REMARK  Name = *****
REMARK  9 active torsions:
REMARK  status: ('A' for Active; 'I' for Inactive)
REMARK    1  A    between atoms: C_1  and  C_2
REMARK    2  A    between atoms: C_2  and  C_3
REMARK    3  A    between atoms: C_11  and  C_12
REMARK    4  A    between atoms: C_12  and  C_16
REMARK    5  A    between atoms: C_13  and  O_14
REMARK    6  A    between atoms: O_14  and  C_15
REMARK    7  A    between atoms: C_16  and  O_18
REMARK    8  A    between atoms: O_18  and  C_19
REMARK    9  A    between atoms: C_27  and  O_28
REMARK                            x       y       z     vdW  Elec       q    Type
REMARK                         _______ _______ _______ _____ _____    ______ ____
ROOT
ATOM      1  C   UNL     1       2.765   0.771   0.578  0.00  0.00    +0.000 C 
ATOM      2  C   UNL     1       2.553   1.456  -0.797  0.00  0.00    +0.000 C 
ATOM      3  N   UNL     1       3.641   1.357  -1.748  0.00  0.00    +0.000 N 
ATOM      4  C   UNL     1       3.325   0.981  -3.112  0.00  0.00    +0.000 C 
ATOM      5  C   UNL     1       4.707   0.858  -3.765  0.00  0.00    +0.000 C 
ATOM      6  C   UNL     1       5.698   0.684  -2.596  0.00  0.00    +0.000 C 
ATOM      7  C   UNL     1       4.798   0.566  -1.359  0.00  0.00    +0.000 C 
ATOM      8  C   UNL     1       5.304   1.088  -0.024  0.00  0.00    +0.000 C 
ATOM      9  C   UNL     1       4.259   0.768   1.069  0.00  0.00    +0.000 C 
ATOM     10  C   UNL     1       6.681   1.886  -2.530  0.00  0.00    +0.000 C 
ATOM     11  O   UNL     1       6.425   3.078  -2.462  0.00  0.00    +0.000 OA
ATOM     12  N   UNL     1       7.972   1.371  -2.580  0.00  0.00    +0.000 N 
ATOM     13  C   UNL     1       7.966  -0.004  -2.723  0.00  0.00    +0.000 A 
ATOM     14  C   UNL     1       9.065  -0.831  -2.834  0.00  0.00    +0.000 A 
ATOM     15  C   UNL     1       8.827  -2.198  -2.987  0.00  0.00    +0.000 A 
ATOM     16  C   UNL     1       7.513  -2.697  -3.027  0.00  0.00    +0.000 A 
ATOM     17  C   UNL     1       6.425  -1.829  -2.912  0.00  0.00    +0.000 A 
ATOM     18  C   UNL     1       6.655  -0.476  -2.756  0.00  0.00    +0.000 A 
ATOM     19  H   UNL     1       3.876   2.349  -1.725  0.00  0.00    +0.000 HD
ATOM     20  H   UNL     1       8.789   1.918  -2.522  0.00  0.00    +0.000 HD
ENDROOT
BRANCH   1  22
ATOM     21  C   UNL     1       0.692  -0.762   0.451  0.00  0.00    +0.000 C 
ATOM     22  C   UNL     1       2.207  -0.679   0.598  0.00  0.00    +0.000 C 
ENDBRANCH   1  22
BRANCH   9  23
ATOM     23  C   UNL     1       4.483   1.569   2.341  0.00  0.00    +0.000 C 
ATOM     24  C   UNL     1       4.720   1.008   3.541  0.00  0.00    +0.000 C 
BRANCH  24  25
ATOM     25  O   UNL     1       4.743  -0.348   3.745  0.00  0.00    +0.000 OA
ATOM     26  C   UNL     1       5.489  -0.702   4.907  0.00  0.00    +0.000 C 
ENDBRANCH  24  25
BRANCH  23  27
ATOM     27  C   UNL     1       4.501   3.057   2.340  0.00  0.00    +0.000 C 
ATOM     28  O   UNL     1       5.057   3.737   3.191  0.00  0.00    +0.000 OA
BRANCH  27  29
ATOM     29  O   UNL     1       3.807   3.536   1.283  0.00  0.00    +0.000 OA
ATOM     30  C   UNL     1       3.829   4.957   1.157  0.00  0.00    +0.000 C 
ENDBRANCH  27  29
ENDBRANCH  23  27
ENDBRANCH   9  23
BRANCH  17  31
ATOM     31  O   UNL     1       5.146  -2.291  -2.954  0.00  0.00    +0.000 OA
ATOM     32  H   UNL     1       4.982  -3.207  -3.060  0.00  0.00    +0.000 HD
ENDBRANCH  17  31
TORSDOF 6
