REMARK  Name = *****
REMARK  1 active torsions:
REMARK  status: ('A' for Active; 'I' for Inactive)
REMARK    1  A    between atoms: C_6  and  N_7
REMARK                            x       y       z     vdW  Elec       q    Type
REMARK                         _______ _______ _______ _____ _____    ______ ____
ROOT
ATOM      1  O   UNL     1       1.510  -1.026  -0.142  0.00  0.00    +0.000 OA
ATOM      2  C   UNL     1       2.689  -0.713  -0.131  0.00  0.00    +0.000 C 
ATOM      3  O   UNL     1       3.342  -0.280   0.978  0.00  0.00    +0.000 OA
ATOM      4  C   UNL     1       4.739  -0.221   0.730  0.00  0.00    +0.000 C 
ATOM      5  C   UNL     1       5.000  -0.534  -0.732  0.00  0.00    +0.000 C 
ATOM      6  C   UNL     1       3.615  -0.682  -1.324  0.00  0.00    +0.000 C 
ATOM      7  C   UNL     1       5.476  -1.242   1.643  0.00  0.00    +0.000 C 
ATOM      8  O   UNL     1       5.352  -2.456   1.618  0.00  0.00    +0.000 OA
ATOM      9  N   UNL     1       6.313  -0.522   2.485  0.00  0.00    +0.000 N 
ATOM     10  C   UNL     1       6.216   0.840   2.244  0.00  0.00    +0.000 A 
ATOM     11  C   UNL     1       6.894   1.850   2.892  0.00  0.00    +0.000 A 
ATOM     12  C   UNL     1       6.634   3.160   2.485  0.00  0.00    +0.000 A 
ATOM     13  C   UNL     1       5.710   3.424   1.456  0.00  0.00    +0.000 A 
ATOM     14  C   UNL     1       5.033   2.383   0.814  0.00  0.00    +0.000 A 
ATOM     15  C   UNL     1       5.302   1.086   1.218  0.00  0.00    +0.000 A 
ATOM     16  H   UNL     1       6.899  -0.926   3.164  0.00  0.00    +0.000 HD
ENDROOT
BRANCH   6  17
ATOM     17  N   UNL     1       3.421  -1.832  -2.203  0.00  0.00    +0.000 N 
ATOM     18  C   UNL     1       3.697  -3.111  -1.772  0.00  0.00    +0.000 A 
ATOM     19  N   UNL     1       3.553  -4.180  -2.479  0.00  0.00    +0.000 NA
ATOM     20  C   UNL     1       3.050  -4.041  -3.778  0.00  0.00    +0.000 A 
ATOM     21  C   UNL     1       2.877  -5.184  -4.562  0.00  0.00    +0.000 A 
ATOM     22  C   UNL     1       2.372  -5.087  -5.862  0.00  0.00    +0.000 A 
ATOM     23  C   UNL     1       2.033  -3.841  -6.389  0.00  0.00    +0.000 A 
ATOM     24  C   UNL     1       2.200  -2.692  -5.617  0.00  0.00    +0.000 A 
ATOM     25  C   UNL     1       2.708  -2.801  -4.317  0.00  0.00    +0.000 A 
ATOM     26  C   UNL     1       2.909  -1.608  -3.475  0.00  0.00    +0.000 A 
ATOM     27  O   UNL     1       2.654  -0.492  -3.922  0.00  0.00    +0.000 OA
ENDBRANCH   6  17
TORSDOF 1
