REMARK  Name = *****
REMARK  8 active torsions:
REMARK  status: ('A' for Active; 'I' for Inactive)
REMARK    1  A    between atoms: C_1  and  C_2
REMARK    2  A    between atoms: C_2  and  C_3
REMARK    3  A    between atoms: C_2  and  C_4
REMARK    4  A    between atoms: C_2  and  C_6
REMARK    5  A    between atoms: C_6  and  C_7
REMARK    6  A    between atoms: C_7  and  C_8
REMARK    7  A    between atoms: C_26  and  C_27
REMARK    8  A    between atoms: C_26  and  C_28
REMARK                            x       y       z     vdW  Elec       q    Type
REMARK                         _______ _______ _______ _____ _____    ______ ____
ROOT
ATOM      1  C   UNK A   1       3.424   3.074  -5.294  0.00  0.00    +0.000 C 
ATOM      2  C   UNK A   1       4.981   2.810  -5.396  0.00  0.00    +0.000 C 
ATOM      3  O   UNK A   1       5.806   2.868  -4.497  0.00  0.00    +0.000 OA
ATOM      4  N   UNK A   1       5.272   2.399  -6.682  0.00  0.00    +0.000 N 
ATOM      5  C   UNK A   1       4.145   2.364  -7.487  0.00  0.00    +0.000 A 
ATOM      6  C   UNK A   1       4.081   2.016  -8.833  0.00  0.00    +0.000 A 
ATOM      7  C   UNK A   1       5.240   1.620  -9.617  0.00  0.00    +0.000 C 
ATOM      8  C   UNK A   1       5.035   1.214 -10.874  0.00  0.00    +0.000 C 
ATOM      9  C   UNK A   1       3.666   1.157 -11.514  0.00  0.00    +0.000 C 
ATOM     10  C   UNK A   1       3.267  -0.305 -11.743  0.00  0.00    +0.000 C 
ATOM     11  C   UNK A   1       3.706   1.897 -12.856  0.00  0.00    +0.000 C 
ATOM     12  O   UNK A   1       2.603   1.771 -10.756  0.00  0.00    +0.000 OA
ATOM     13  C   UNK A   1       2.825   2.074  -9.441  0.00  0.00    +0.000 A 
ATOM     14  C   UNK A   1       1.694   2.484  -8.718  0.00  0.00    +0.000 A 
ATOM     15  C   UNK A   1       1.790   2.830  -7.367  0.00  0.00    +0.000 A 
ATOM     16  C   UNK A   1       3.025   2.753  -6.741  0.00  0.00    +0.000 A 
ATOM     17  H   UNK A   1       6.175   2.158  -6.991  0.00  0.00    +0.000 HD
ENDROOT
BRANCH   1  19
ATOM     18  C   UNK A   1       3.612   4.887  -3.422  0.00  0.00    +0.000 C 
ATOM     19  C   UNK A   1       3.239   4.618  -4.903  0.00  0.00    +0.000 C 
ATOM     20  C   UNK A   1       1.786   5.123  -5.082  0.00  0.00    +0.000 C 
BRANCH  19  21
ATOM     21  C   UNK A   1       4.063   5.521  -5.850  0.00  0.00    +0.000 C 
ATOM     22  C   UNK A   1       5.138   6.266  -5.553  0.00  0.00    +0.000 C 
ENDBRANCH  19  21
ENDBRANCH   1  19
BRANCH   1  23
ATOM     23  C   UNK A   1       2.995   1.964  -4.256  0.00  0.00    +0.000 C 
BRANCH  23  24
ATOM     24  C   UNK A   1       1.578   1.382  -4.113  0.00  0.00    +0.000 C 
ATOM     25  N   UNK A   1       1.048   0.807  -5.348  0.00  0.00    +0.000 N 
ATOM     26  C   PRO A   2      -0.232   0.293  -5.410  0.00  0.00    +0.000 C 
ATOM     27  O   PRO A   2      -0.561  -0.482  -6.301  0.00  0.00    +0.000 OA
ATOM     28  CA  PRO A   2      -1.104   0.639  -4.204  0.00  0.00    +0.000 C 
ATOM     29  CB  PRO A   2      -2.591   0.768  -4.501  0.00  0.00    +0.000 C 
ATOM     30  CG  PRO A   2      -3.073   1.682  -3.374  0.00  0.00    +0.000 C 
ATOM     31  CD  PRO A   2      -1.916   2.656  -3.168  0.00  0.00    +0.000 C 
ATOM     32  N   PRO A   2      -0.757   1.949  -3.670  0.00  0.00    +0.000 N 
ATOM     33  C   UNK A   1       0.551   2.295  -3.400  0.00  0.00    +0.000 C 
ATOM     34  O   UNK A   1       0.853   3.162  -2.587  0.00  0.00    +0.000 OA
ATOM     35  H   UNK A   1       1.615   0.786  -6.152  0.00  0.00    +0.000 HD
ENDBRANCH  23  24
ENDBRANCH   1  23
TORSDOF 4
