REMARK  Name = *****
REMARK  6 active torsions:
REMARK  status: ('A' for Active; 'I' for Inactive)
REMARK    1  A    between atoms: C_1  and  O_2
REMARK    2  A    between atoms: O_2  and  C_3
REMARK    3  A    between atoms: C_6  and  C_11
REMARK    4  A    between atoms: C_7  and  C_8
REMARK    5  A    between atoms: C_8  and  O_9
REMARK    6  A    between atoms: C_25  and  O_26
REMARK                            x       y       z     vdW  Elec       q    Type
REMARK                         _______ _______ _______ _____ _____    ______ ____
ROOT
ATOM      1  C   UNL     1       2.728   0.630  -0.976  0.00  0.00    +0.000 C 
ATOM      2  C   UNL     1       2.684   1.901  -1.818  0.00  0.00    +0.000 C 
ATOM      3  C   UNL     1       3.387   1.712  -3.170  0.00  0.00    +0.000 C 
ATOM      4  C   UNL     1       4.787   1.068  -2.993  0.00  0.00    +0.000 C 
ATOM      5  C   UNL     1       4.723  -0.143  -2.028  0.00  0.00    +0.000 C 
ATOM      6  O   UNL     1       4.081   0.233  -0.794  0.00  0.00    +0.000 OA
ATOM      7  C   UNL     1       2.451   0.877  -4.086  0.00  0.00    +0.000 C 
ATOM      8  O   UNL     1       2.093  -0.278  -3.914  0.00  0.00    +0.000 OA
ATOM      9  N   UNL     1       2.043   1.687  -5.136  0.00  0.00    +0.000 N 
ATOM     10  C   UNL     1       2.610   2.947  -5.056  0.00  0.00    +0.000 A 
ATOM     11  C   UNL     1       2.433   3.997  -5.933  0.00  0.00    +0.000 A 
ATOM     12  C   UNL     1       3.106   5.180  -5.635  0.00  0.00    +0.000 A 
ATOM     13  C   UNL     1       3.921   5.295  -4.500  0.00  0.00    +0.000 A 
ATOM     14  C   UNL     1       4.082   4.215  -3.627  0.00  0.00    +0.000 A 
ATOM     15  C   UNL     1       3.416   3.036  -3.921  0.00  0.00    +0.000 A 
ATOM     16  H   UNL     1       1.427   1.401  -5.849  0.00  0.00    +0.000 HD
ENDROOT
BRANCH   4  17
ATOM     17  C   UNL     1       5.487   0.733  -4.298  0.00  0.00    +0.000 A 
ATOM     18  C   UNL     1       5.176  -0.285  -5.181  0.00  0.00    +0.000 A 
ATOM     19  N   UNL     1       6.056  -0.239  -6.228  0.00  0.00    +0.000 N 
ATOM     20  C   UNL     1       6.965   0.773  -6.041  0.00  0.00    +0.000 A 
ATOM     21  C   UNL     1       8.045   1.171  -6.838  0.00  0.00    +0.000 A 
ATOM     22  C   UNL     1       8.823   2.241  -6.389  0.00  0.00    +0.000 A 
ATOM     23  C   UNL     1       8.530   2.885  -5.191  0.00  0.00    +0.000 A 
ATOM     24  C   UNL     1       7.445   2.475  -4.408  0.00  0.00    +0.000 A 
ATOM     25  C   UNL     1       6.639   1.400  -4.838  0.00  0.00    +0.000 A 
ATOM     26  H   UNL     1       6.041  -0.846  -7.003  0.00  0.00    +0.000 HD
ENDBRANCH   4  17
BRANCH   1  28
ATOM     27  C   UNL     1       1.994  -0.198   1.111  0.00  0.00    +0.000 C 
ATOM     28  O   UNL     1       2.141   0.950   0.287  0.00  0.00    +0.000 OA
ENDBRANCH   1  28
BRANCH  12  29
ATOM     29  O   UNL     1       2.994   6.279  -6.438  0.00  0.00    +0.000 OA
ATOM     30  H   UNL     1       2.459   6.245  -7.207  0.00  0.00    +0.000 HD
ENDBRANCH  12  29
BRANCH   5  31
ATOM     31  C   UNL     1       6.119  -0.646  -1.618  0.00  0.00    +0.000 C 
BRANCH  31  32
ATOM     32  O   UNL     1       6.801   0.350  -0.853  0.00  0.00    +0.000 OA
ATOM     33  H   UNL     1       6.904   1.154  -1.386  0.00  0.00    +0.000 HD
ENDBRANCH  31  32
ENDBRANCH   5  31
TORSDOF 5
