REMARK  Name = *****
REMARK  7 active torsions:
REMARK  status: ('A' for Active; 'I' for Inactive)
REMARK    1  A    between atoms: C_1  and  O_2
REMARK    2  A    between atoms: O_2  and  C_3
REMARK    3  A    between atoms: N_7  and  C_14
REMARK    4  A    between atoms: C_16  and  C_21
REMARK    5  A    between atoms: C_19  and  O_20
REMARK    6  A    between atoms: C_21  and  O_23
REMARK    7  A    between atoms: O_23  and  C_24
REMARK                            x       y       z     vdW  Elec       q    Type
REMARK                         _______ _______ _______ _____ _____    ______ ____
ROOT
ATOM      1  C   UNL     1       3.292   0.422   1.137  0.00  0.00    +0.000 C 
ATOM      2  C   UNL     1       2.723   0.161   2.319  0.00  0.00    +0.000 C 
ATOM      3  C   UNL     1       1.675  -0.882   2.574  0.00  0.00    +0.000 C 
ATOM      4  O   UNL     1       1.193  -1.651   1.757  0.00  0.00    +0.000 OA
ATOM      5  N   UNL     1       1.356  -0.758   3.937  0.00  0.00    +0.000 N 
ATOM      6  C   UNL     1       2.170   0.234   4.547  0.00  0.00    +0.000 A 
ATOM      7  C   UNL     1       2.294   0.594   5.883  0.00  0.00    +0.000 A 
ATOM      8  C   UNL     1       3.202   1.602   6.229  0.00  0.00    +0.000 A 
ATOM      9  C   UNL     1       3.996   2.220   5.253  0.00  0.00    +0.000 A 
ATOM     10  C   UNL     1       3.907   1.827   3.918  0.00  0.00    +0.000 A 
ATOM     11  C   UNL     1       3.001   0.829   3.586  0.00  0.00    +0.000 A 
ENDROOT
BRANCH   5  12
ATOM     12  C   UNL     1       0.328  -1.484   4.602  0.00  0.00    +0.000 A 
ATOM     13  C   UNL     1      -0.468  -0.851   5.573  0.00  0.00    +0.000 A 
ATOM     14  C   UNL     1      -1.481  -1.538   6.266  0.00  0.00    +0.000 A 
ATOM     15  C   UNL     1      -1.720  -2.884   5.984  0.00  0.00    +0.000 A 
ATOM     16  C   UNL     1      -0.967  -3.523   5.002  0.00  0.00    +0.000 A 
ATOM     17  C   UNL     1       0.025  -2.827   4.305  0.00  0.00    +0.000 A 
BRANCH  17  18
ATOM     18  O   UNL     1       0.691  -3.579   3.376  0.00  0.00    +0.000 OA
ATOM     19  H   UNL     1       1.373  -3.192   2.863  0.00  0.00    +0.000 HD
ENDBRANCH  17  18
BRANCH  14  20
ATOM     20  C   UNL     1      -2.263  -0.786   7.285  0.00  0.00    +0.000 C 
ATOM     21  O   UNL     1      -2.000   0.358   7.621  0.00  0.00    +0.000 OA
BRANCH  20  22
ATOM     22  O   UNL     1      -3.282  -1.541   7.764  0.00  0.00    +0.000 OA
ATOM     23  C   UNL     1      -4.087  -0.878   8.740  0.00  0.00    +0.000 C 
ENDBRANCH  20  22
ENDBRANCH  14  20
ENDBRANCH   5  12
BRANCH   1  25
ATOM     24  C   UNL     1       3.176   0.534  -1.180  0.00  0.00    +0.000 C 
ATOM     25  O   UNL     1       3.006  -0.264  -0.012  0.00  0.00    +0.000 OA
ENDBRANCH   1  25
TORSDOF 5
