REMARK  Name = *****
REMARK  11 active torsions:
REMARK  status: ('A' for Active; 'I' for Inactive)
REMARK    1  A    between atoms: C_1  and  O_2
REMARK    2  A    between atoms: O_2  and  C_3
REMARK    3  A    between atoms: C_4  and  O_5
REMARK    4  A    between atoms: C_6  and  C_7
REMARK    5  A    between atoms: C_7  and  C_8
REMARK    6  A    between atoms: C_8  and  C_9
REMARK    7  A    between atoms: C_9  and  C_10
REMARK    8  A    between atoms: C_10  and  C_11
REMARK    9  A    between atoms: C_11  and  C_12
REMARK   10  A    between atoms: C_25  and  O_26
REMARK   11  A    between atoms: O_26  and  C_27
REMARK                            x       y       z     vdW  Elec       q    Type
REMARK                         _______ _______ _______ _____ _____    ______ ____
ROOT
ATOM      1  C   UNL     1       4.745  -1.253  -1.090  0.00  0.00    +0.000 A 
ATOM      2  C   UNL     1       4.310  -1.906  -2.268  0.00  0.00    +0.000 A 
ATOM      3  C   UNL     1       3.341  -2.919  -2.251  0.00  0.00    +0.000 A 
ATOM      4  C   UNL     1       2.831  -3.236  -0.998  0.00  0.00    +0.000 A 
ATOM      5  C   UNL     1       1.796  -4.200  -0.587  0.00  0.00    +0.000 C 
ATOM      6  O   UNL     1       1.140  -4.933  -1.291  0.00  0.00    +0.000 OA
ATOM      7  C   UNL     1       1.702  -4.080   0.958  0.00  0.00    +0.000 C 
ATOM      8  O   UNL     1       0.967  -4.709   1.685  0.00  0.00    +0.000 OA
ATOM      9  N   UNL     1       2.625  -3.119   1.301  0.00  0.00    +0.000 N 
ATOM     10  C   UNL     1       3.279  -2.620   0.175  0.00  0.00    +0.000 A 
ATOM     11  C   UNL     1       4.263  -1.646   0.163  0.00  0.00    +0.000 A 
ATOM     12  H   UNL     1       2.800  -2.821   2.223  0.00  0.00    +0.000 HD
ENDROOT
BRANCH   1  14
ATOM     13  C   UNL     1       5.014   1.029  -1.120  0.00  0.00    +0.000 C 
ATOM     14  O   UNL     1       5.663  -0.241  -1.246  0.00  0.00    +0.000 OA
ENDBRANCH   1  14
BRANCH   2  15
ATOM     15  O   UNL     1       4.846  -1.520  -3.470  0.00  0.00    +0.000 OA
ATOM     16  H   UNL     1       5.494  -0.844  -3.499  0.00  0.00    +0.000 HD
ENDBRANCH   2  15
BRANCH  11  17
ATOM     17  O   UNL     1       4.640  -1.116   1.363  0.00  0.00    +0.000 OA
ATOM     18  C   UNL     1       6.056  -1.096   1.550  0.00  0.00    +0.000 C 
ENDBRANCH  11  17
BRANCH   3  19
ATOM     19  C   UNL     1       2.857  -3.582  -3.512  0.00  0.00    +0.000 C 
BRANCH  19  20
ATOM     20  C   UNL     1       1.630  -2.871  -4.087  0.00  0.00    +0.000 C 
BRANCH  20  21
ATOM     21  C   UNL     1       1.132  -3.562  -5.358  0.00  0.00    +0.000 C 
BRANCH  21  22
ATOM     22  C   UNL     1      -0.088  -2.845  -5.937  0.00  0.00    +0.000 C 
BRANCH  22  23
ATOM     23  C   UNL     1      -0.590  -3.540  -7.205  0.00  0.00    +0.000 C 
BRANCH  23  24
ATOM     24  C   UNL     1      -1.787  -2.832  -7.789  0.00  0.00    +0.000 A 
ATOM     25  C   UNL     1      -1.619  -1.816  -8.739  0.00  0.00    +0.000 A 
ATOM     26  C   UNL     1      -2.727  -1.149  -9.265  0.00  0.00    +0.000 A 
ATOM     27  C   UNL     1      -4.011  -1.488  -8.844  0.00  0.00    +0.000 A 
ATOM     28  C   UNL     1      -4.189  -2.493  -7.894  0.00  0.00    +0.000 A 
ATOM     29  C   UNL     1      -3.082  -3.161  -7.367  0.00  0.00    +0.000 A 
ENDBRANCH  23  24
ENDBRANCH  22  23
ENDBRANCH  21  22
ENDBRANCH  20  21
ENDBRANCH  19  20
ENDBRANCH   3  19
TORSDOF 9
