REMARK  Name = *****
REMARK  3 active torsions:
REMARK  status: ('A' for Active; 'I' for Inactive)
REMARK    1  A    between atoms: C_1  and  O_2
REMARK    2  A    between atoms: O_2  and  C_3
REMARK    3  A    between atoms: C_3  and  C_14
REMARK                            x       y       z     vdW  Elec       q    Type
REMARK                         _______ _______ _______ _____ _____    ______ ____
ROOT
ATOM      1  C   UNL     1       3.126  -1.125   0.624  0.00  0.00    +0.000 C 
ATOM      2  C   UNL     1       2.843  -2.383   1.012  0.00  0.00    +0.000 C 
ATOM      3  C   UNL     1       1.757  -3.202   0.350  0.00  0.00    +0.000 C 
ATOM      4  O   UNL     1       1.001  -2.893  -0.551  0.00  0.00    +0.000 OA
ATOM      5  N   UNL     1       1.754  -4.411   1.027  0.00  0.00    +0.000 N 
ATOM      6  C   UNL     1       2.715  -4.437   2.029  0.00  0.00    +0.000 A 
ATOM      7  C   UNL     1       2.977  -5.494   2.879  0.00  0.00    +0.000 A 
ATOM      8  C   UNL     1       4.003  -5.330   3.809  0.00  0.00    +0.000 A 
ATOM      9  C   UNL     1       4.736  -4.132   3.860  0.00  0.00    +0.000 A 
ATOM     10  C   UNL     1       4.450  -3.075   2.986  0.00  0.00    +0.000 A 
ATOM     11  C   UNL     1       3.421  -3.228   2.072  0.00  0.00    +0.000 A 
ATOM     12  H   UNL     1       1.146  -5.158   0.823  0.00  0.00    +0.000 HD
ENDROOT
BRANCH   1  13
ATOM     13  C   UNL     1       4.167  -0.287   1.240  0.00  0.00    +0.000 A 
ATOM     14  C   UNL     1       5.393  -0.103   0.590  0.00  0.00    +0.000 A 
ATOM     15  C   UNL     1       6.383   0.696   1.166  0.00  0.00    +0.000 A 
ATOM     16  C   UNL     1       6.150   1.321   2.391  0.00  0.00    +0.000 A 
ATOM     17  C   UNL     1       4.928   1.152   3.040  0.00  0.00    +0.000 A 
ATOM     18  C   UNL     1       3.937   0.353   2.466  0.00  0.00    +0.000 A 
ENDBRANCH   1  13
BRANCH   1  20
ATOM     19  C   UNL     1       1.502   0.337  -0.174  0.00  0.00    +0.000 C 
ATOM     20  O   UNL     1       2.559  -0.561  -0.506  0.00  0.00    +0.000 OA
ENDBRANCH   1  20
TORSDOF 2
