REMARK  Name = *****
REMARK  9 active torsions:
REMARK  status: ('A' for Active; 'I' for Inactive)
REMARK    1  A    between atoms: C_1  and  C_2
REMARK    2  A    between atoms: C_2  and  C_3
REMARK    3  A    between atoms: C_11  and  C_12
REMARK    4  A    between atoms: C_12  and  C_16
REMARK    5  A    between atoms: C_13  and  O_14
REMARK    6  A    between atoms: O_14  and  C_15
REMARK    7  A    between atoms: C_16  and  O_18
REMARK    8  A    between atoms: O_18  and  C_19
REMARK    9  A    between atoms: C_27  and  O_28
REMARK                            x       y       z     vdW  Elec       q    Type
REMARK                         _______ _______ _______ _____ _____    ______ ____
ROOT
ATOM      1  C   UNL     1       2.826   0.921   0.652  0.00  0.00    +0.000 C 
ATOM      2  C   UNL     1       2.818   1.843  -0.596  0.00  0.00    +0.000 C 
ATOM      3  N   UNL     1       3.945   1.725  -1.500  0.00  0.00    +0.000 N 
ATOM      4  C   UNL     1       3.671   1.640  -2.921  0.00  0.00    +0.000 C 
ATOM      5  C   UNL     1       5.059   1.398  -3.526  0.00  0.00    +0.000 C 
ATOM      6  C   UNL     1       5.921   0.857  -2.367  0.00  0.00    +0.000 C 
ATOM      7  C   UNL     1       4.929   0.695  -1.207  0.00  0.00    +0.000 C 
ATOM      8  C   UNL     1       5.419   0.899   0.218  0.00  0.00    +0.000 C 
ATOM      9  C   UNL     1       4.263   0.592   1.196  0.00  0.00    +0.000 C 
ATOM     10  C   UNL     1       7.086   1.836  -2.049  0.00  0.00    +0.000 C 
ATOM     11  O   UNL     1       7.030   3.026  -1.783  0.00  0.00    +0.000 OA
ATOM     12  N   UNL     1       8.272   1.115  -2.137  0.00  0.00    +0.000 N 
ATOM     13  C   UNL     1       8.043  -0.194  -2.521  0.00  0.00    +0.000 A 
ATOM     14  C   UNL     1       8.992  -1.173  -2.734  0.00  0.00    +0.000 A 
ATOM     15  C   UNL     1       8.538  -2.430  -3.137  0.00  0.00    +0.000 A 
ATOM     16  C   UNL     1       7.165  -2.672  -3.319  0.00  0.00    +0.000 A 
ATOM     17  C   UNL     1       6.234  -1.656  -3.096  0.00  0.00    +0.000 A 
ATOM     18  C   UNL     1       6.678  -0.412  -2.691  0.00  0.00    +0.000 A 
ATOM     19  H   UNL     1       4.333   2.645  -1.291  0.00  0.00    +0.000 HD
ATOM     20  H   UNL     1       9.163   1.489  -1.949  0.00  0.00    +0.000 HD
ENDROOT
BRANCH   1  22
ATOM     21  C   UNL     1       0.551  -0.204   0.187  0.00  0.00    +0.000 C 
ATOM     22  C   UNL     1       2.047  -0.399   0.404  0.00  0.00    +0.000 C 
ENDBRANCH   1  22
BRANCH   9  23
ATOM     23  C   UNL     1       4.524   1.134   2.593  0.00  0.00    +0.000 C 
ATOM     24  C   UNL     1       4.586   0.361   3.692  0.00  0.00    +0.000 C 
BRANCH  24  25
ATOM     25  O   UNL     1       4.381  -0.995   3.669  0.00  0.00    +0.000 OA
ATOM     26  C   UNL     1       4.976  -1.646   4.789  0.00  0.00    +0.000 C 
ENDBRANCH  24  25
BRANCH  23  27
ATOM     27  C   UNL     1       4.776   2.580   2.839  0.00  0.00    +0.000 C 
ATOM     28  O   UNL     1       5.370   3.017   3.815  0.00  0.00    +0.000 OA
BRANCH  27  29
ATOM     29  O   UNL     1       4.243   3.328   1.846  0.00  0.00    +0.000 OA
ATOM     30  C   UNL     1       4.498   4.727   1.959  0.00  0.00    +0.000 C 
ENDBRANCH  27  29
ENDBRANCH  23  27
ENDBRANCH   9  23
BRANCH  17  31
ATOM     31  O   UNL     1       4.902  -1.867  -3.271  0.00  0.00    +0.000 OA
ATOM     32  H   UNL     1       4.593  -2.708  -3.546  0.00  0.00    +0.000 HD
ENDBRANCH  17  31
TORSDOF 6
