REMARK  Name = *****
REMARK  6 active torsions:
REMARK  status: ('A' for Active; 'I' for Inactive)
REMARK    1  A    between atoms: C_1  and  O_2
REMARK    2  A    between atoms: O_2  and  C_3
REMARK    3  A    between atoms: C_8  and  O_9
REMARK    4  A    between atoms: C_20  and  O_21
REMARK    5  A    between atoms: C_22  and  O_23
REMARK    6  A    between atoms: O_23  and  C_24
REMARK                            x       y       z     vdW  Elec       q    Type
REMARK                         _______ _______ _______ _____ _____    ______ ____
ROOT
ATOM      1  C   UNL     1       2.929   1.362   0.707  0.00  0.00    +0.000 A 
ATOM      2  C   UNL     1       4.021   1.458  -0.177  0.00  0.00    +0.000 A 
ATOM      3  C   UNL     1       4.827   2.615  -0.338  0.00  0.00    +0.000 A 
ATOM      4  C   UNL     1       4.468   3.712   0.500  0.00  0.00    +0.000 A 
ATOM      5  C   UNL     1       3.377   3.622   1.393  0.00  0.00    +0.000 A 
ATOM      6  C   UNL     1       2.614   2.461   1.494  0.00  0.00    +0.000 A 
ATOM      7  C   UNL     1       5.225   4.870   0.398  0.00  0.00    +0.000 A 
ATOM      8  C   UNL     1       5.115   6.188   1.054  0.00  0.00    +0.000 C 
ATOM      9  O   UNL     1       4.330   6.531   1.910  0.00  0.00    +0.000 OA
ATOM     10  C   UNL     1       6.209   7.081   0.408  0.00  0.00    +0.000 C 
ATOM     11  O   UNL     1       6.363   8.267   0.602  0.00  0.00    +0.000 OA
ATOM     12  N   UNL     1       6.887   6.238  -0.441  0.00  0.00    +0.000 N 
ATOM     13  C   UNL     1       7.829   6.617  -1.469  0.00  0.00    +0.000 C 
ATOM     14  C   UNL     1       8.666   5.426  -1.949  0.00  0.00    +0.000 C 
ATOM     15  C   UNL     1       7.852   4.151  -2.101  0.00  0.00    +0.000 A 
ATOM     16  C   UNL     1       8.299   3.140  -2.946  0.00  0.00    +0.000 A 
ATOM     17  C   UNL     1       7.591   1.949  -3.004  0.00  0.00    +0.000 A 
ATOM     18  C   UNL     1       6.440   1.747  -2.213  0.00  0.00    +0.000 A 
ATOM     19  C   UNL     1       5.967   2.727  -1.280  0.00  0.00    +0.000 A 
ATOM     20  C   UNL     1       6.708   3.940  -1.295  0.00  0.00    +0.000 A 
ATOM     21  C   UNL     1       6.298   4.969  -0.471  0.00  0.00    +0.000 A 
ENDROOT
BRANCH   1  23
ATOM     22  C   UNL     1       1.161  -0.065   1.464  0.00  0.00    +0.000 C 
ATOM     23  O   UNL     1       2.312   0.141   0.660  0.00  0.00    +0.000 OA
ENDBRANCH   1  23
BRANCH   6  24
ATOM     24  O   UNL     1       1.575   2.442   2.380  0.00  0.00    +0.000 OA
ATOM     25  H   UNL     1       1.047   1.673   2.467  0.00  0.00    +0.000 HD
ENDBRANCH   6  24
BRANCH  17  26
ATOM     26  O   UNL     1       8.031   0.947  -3.827  0.00  0.00    +0.000 OA
ATOM     27  H   UNL     1       8.795   1.075  -4.354  0.00  0.00    +0.000 HD
ENDBRANCH  17  26
BRANCH  18  28
ATOM     28  O   UNL     1       5.797   0.533  -2.300  0.00  0.00    +0.000 OA
ATOM     29  C   UNL     1       5.127   0.382  -3.554  0.00  0.00    +0.000 C 
ENDBRANCH  18  28
TORSDOF 4
