REMARK  Name = *****
REMARK  5 active torsions:
REMARK  status: ('A' for Active; 'I' for Inactive)
REMARK    1  A    between atoms: O_1  and  C_2
REMARK    2  A    between atoms: C_2  and  C_3
REMARK    3  A    between atoms: C_2  and  C_24
REMARK    4  A    between atoms: C_3  and  C_4
REMARK    5  A    between atoms: C_7  and  C_9
REMARK                            x       y       z     vdW  Elec       q    Type
REMARK                         _______ _______ _______ _____ _____    ______ ____
ROOT
ATOM      1  C   UNL     1       1.612  -1.765   6.633  0.00  0.00    +0.000 C 
ATOM      2  C   UNL     1       1.847  -1.205   7.845  0.00  0.00    +0.000 C 
ATOM      3  C   UNL     1       1.550  -1.823   9.179  0.00  0.00    +0.000 C 
ATOM      4  C   UNL     1       1.486  -3.341   9.159  0.00  0.00    +0.000 C 
ATOM      5  S   UNL     1       0.246  -3.908   7.980  0.00  0.00    +0.000 S 
ATOM      6  C   UNL     1       0.889  -3.105   6.439  0.00  0.00    +0.000 C 
ATOM      7  C   UNL     1      -0.370  -2.912   5.508  0.00  0.00    +0.000 C 
ATOM      8  O   UNL     1      -1.339  -2.188   5.690  0.00  0.00    +0.000 OA
ATOM      9  N   UNL     1      -0.207  -3.752   4.407  0.00  0.00    +0.000 N 
ATOM     10  C   UNL     1       0.992  -4.442   4.468  0.00  0.00    +0.000 A 
ATOM     11  C   UNL     1       1.479  -5.334   3.536  0.00  0.00    +0.000 A 
ATOM     12  C   UNL     1       2.725  -5.911   3.787  0.00  0.00    +0.000 A 
ATOM     13  C   UNL     1       3.448  -5.584   4.948  0.00  0.00    +0.000 A 
ATOM     14  C   UNL     1       2.935  -4.677   5.881  0.00  0.00    +0.000 A 
ATOM     15  C   UNL     1       1.693  -4.111   5.631  0.00  0.00    +0.000 A 
ATOM     16  H   UNL     1      -0.862  -3.843   3.678  0.00  0.00    +0.000 HD
ENDROOT
BRANCH   1  20
ATOM     17  C   UNL     1       2.161  -0.115   3.457  0.00  0.00    +0.000 A 
ATOM     18  N   UNL     1       3.385   0.276   3.817  0.00  0.00    +0.000 NA
ATOM     19  S   UNL     1       3.640  -0.318   5.352  0.00  0.00    +0.000 S 
ATOM     20  C   UNL     1       2.049  -1.010   5.480  0.00  0.00    +0.000 A 
ATOM     21  N   UNL     1       1.384  -0.833   4.355  0.00  0.00    +0.000 NA
BRANCH  17  22
ATOM     22  C   UNL     1       1.615   0.231   2.116  0.00  0.00    +0.000 C 
BRANCH  22  23
ATOM     23  C   UNL     1       2.385  -0.427   0.966  0.00  0.00    +0.000 C 
BRANCH  23  24
ATOM     24  O   UNL     1       1.924   0.109  -0.278  0.00  0.00    +0.000 OA
ATOM     25  H   UNL     1       2.042   1.072  -0.278  0.00  0.00    +0.000 HD
ENDBRANCH  23  24
BRANCH  23  26
ATOM     26  C   UNL     1       2.165  -1.911   0.879  0.00  0.00    +0.000 C 
ATOM     27  C   UNL     1       3.119  -2.830   1.076  0.00  0.00    +0.000 C 
ENDBRANCH  23  26
ENDBRANCH  22  23
ENDBRANCH  17  22
ENDBRANCH   1  20
TORSDOF 5
