REMARK  Name = *****
REMARK  5 active torsions:
REMARK  status: ('A' for Active; 'I' for Inactive)
REMARK    1  A    between atoms: C_1  and  O_2
REMARK    2  A    between atoms: O_2  and  C_3
REMARK    3  A    between atoms: C_15  and  C_16
REMARK    4  A    between atoms: C_17  and  C_18
REMARK    5  A    between atoms: C_17  and  C_19
REMARK                            x       y       z     vdW  Elec       q    Type
REMARK                         _______ _______ _______ _____ _____    ______ ____
ROOT
ATOM      1  C   UNK A   1       4.839  -1.120   0.176  0.00  0.00    +0.000 A 
ATOM      2  C   UNK A   1       3.603  -1.177  -0.495  0.00  0.00    +0.000 A 
ATOM      3  C   UNK A   1       3.526  -1.594  -1.832  0.00  0.00    +0.000 A 
ATOM      4  C   UNK A   1       4.698  -1.949  -2.478  0.00  0.00    +0.000 A 
ATOM      5  C   UNK A   1       5.914  -1.889  -1.803  0.00  0.00    +0.000 A 
ATOM      6  N   UNK A   1       6.947  -2.272  -2.643  0.00  0.00    +0.000 N 
ATOM      7  C   UNK A   1       6.482  -2.583  -3.917  0.00  0.00    +0.000 C 
ATOM      8  O   UNK A   1       7.198  -2.854  -4.868  0.00  0.00    +0.000 OA
ATOM      9  C   UNK A   1       4.933  -2.444  -3.890  0.00  0.00    +0.000 C 
ATOM     10  C   UNK A   1       4.454  -1.481  -4.947  0.00  0.00    +0.000 C 
ATOM     11  C   UNK A   1       3.455  -2.023  -5.651  0.00  0.00    +0.000 C 
ATOM     12  N   UNK A   1       3.160  -3.302  -5.220  0.00  0.00    +0.000 N 
ATOM     13  C   UNK A   1       4.145  -3.750  -4.213  0.00  0.00    +0.000 C 
ATOM     14  C   PRO A   2       2.056  -4.028  -5.638  0.00  0.00    +0.000 C 
ATOM     15  O   PRO A   2       1.765  -5.141  -5.206  0.00  0.00    +0.000 OA
ATOM     16  CA  PRO A   2       1.083  -3.192  -6.476  0.00  0.00    +0.000 C 
ATOM     17  CB  PRO A   2       0.254  -3.976  -7.482  0.00  0.00    +0.000 C 
ATOM     18  CG  PRO A   2      -0.164  -2.890  -8.475  0.00  0.00    +0.000 C 
ATOM     19  CD  PRO A   2       1.047  -1.962  -8.543  0.00  0.00    +0.000 C 
ATOM     20  N   PRO A   2       1.751  -2.199  -7.301  0.00  0.00    +0.000 N 
ATOM     21  C   UNK A   1       2.753  -1.398  -6.813  0.00  0.00    +0.000 C 
ATOM     22  O   UNK A   1       3.113  -0.340  -7.310  0.00  0.00    +0.000 OA
ATOM     23  C   UNK A   1       6.015  -1.482  -0.489  0.00  0.00    +0.000 A 
ATOM     24  H   UNK A   1       7.892  -2.318  -2.372  0.00  0.00    +0.000 HD
ENDROOT
BRANCH  13  25
ATOM     25  C   UNK A   1       4.949  -4.877  -4.824  0.00  0.00    +0.000 C 
ATOM     26  C   UNK A   1       5.211  -6.090  -4.296  0.00  0.00    +0.000 C 
ATOM     27  C   UNK A   1       4.755  -6.571  -2.947  0.00  0.00    +0.000 C 
ATOM     28  C   UNK A   1       6.022  -7.097  -5.070  0.00  0.00    +0.000 C 
ENDBRANCH  13  25
BRANCH   1  30
ATOM     29  C   UNK A   1       3.867  -0.335   2.203  0.00  0.00    +0.000 C 
ATOM     30  O   UNK A   1       5.024  -0.730   1.475  0.00  0.00    +0.000 OA
ENDBRANCH   1  30
TORSDOF 2
