MODEL 1
REMARK VINA RESULT:      -4.1      0.000      0.000
REMARK  Name = *****
REMARK  9 active torsions:
REMARK  status: ('A' for Active; 'I' for Inactive)
REMARK    1  A    between atoms: C_1  and  C_2
REMARK    2  A    between atoms: C_2  and  C_3
REMARK    3  A    between atoms: C_2  and  N_4
REMARK    4  A    between atoms: N_4  and  C_5
REMARK    5  A    between atoms: C_5  and  C_6
REMARK    6  A    between atoms: C_6  and  C_7
REMARK    7  A    between atoms: C_6  and  O_15
REMARK    8  A    between atoms: C_9  and  O_14
REMARK    9  A    between atoms: C_11  and  O_13
REMARK                            x       y       z     vdW  Elec       q    Type
REMARK                         _______ _______ _______ _____ _____    ______ ____
ROOT
ATOM      1  C   UNL     1      87.806  63.624  86.175  0.00  0.00    +0.000 C 
ENDROOT
BRANCH   1   2
ATOM      2  C   UNL     1      89.047  64.467  85.963  0.00  0.00    +0.000 A 
ATOM      3  C   UNL     1      89.091  65.810  86.373  0.00  0.00    +0.000 A 
ATOM      4  C   UNL     1      90.241  66.568  86.157  0.00  0.00    +0.000 A 
ATOM      5  C   UNL     1      91.356  66.018  85.537  0.00  0.00    +0.000 A 
ATOM      6  C   UNL     1      91.311  64.691  85.129  0.00  0.00    +0.000 A 
ATOM      7  C   UNL     1      90.175  63.915  85.335  0.00  0.00    +0.000 A 
BRANCH   6   8
ATOM      8  O   UNL     1      92.377  64.101  84.513  0.00  0.00    +0.000 OA
ATOM      9  H   UNL     1      92.237  63.502  83.806  0.00  0.00    +0.000 HD
ENDBRANCH   6   8
BRANCH   4  10
ATOM     10  O   UNL     1      90.311  67.874  86.547  0.00  0.00    +0.000 OA
ATOM     11  H   UNL     1      90.769  68.105  87.331  0.00  0.00    +0.000 HD
ENDBRANCH   4  10
ENDBRANCH   1   2
BRANCH   1  12
ATOM     12  O   UNL     1      88.137  62.255  85.914  0.00  0.00    +0.000 OA
ATOM     13  H   UNL     1      87.525  61.676  86.393  0.00  0.00    +0.000 HD
ENDBRANCH   1  12
BRANCH   1  14
ATOM     14  C   UNL     1      87.218  63.740  87.604  0.00  0.00    +0.000 C 
BRANCH  14  15
ATOM     15  N   UNL     1      88.002  63.008  88.614  0.00  0.00    +0.000 N 
ATOM     16  H   UNL     1      87.712  62.031  88.606  0.00  0.00    +0.000 HD
ATOM     17  H   UNL     1      88.987  63.114  88.373  0.00  0.00    +0.000 HD
BRANCH  15  19
ATOM     18  C   UNL     1      89.201  63.828  90.565  0.00  0.00    +0.000 C 
ATOM     19  C   UNL     1      87.820  63.539  89.972  0.00  0.00    +0.000 C 
ATOM     20  C   UNL     1      86.982  64.819  89.980  0.00  0.00    +0.000 C 
ENDBRANCH  15  19
ENDBRANCH  14  15
ENDBRANCH   1  14
TORSDOF 7
ENDMDL
