MODEL 1
REMARK VINA RESULT:      -4.2      0.000      0.000
REMARK  Name = *****
REMARK  9 active torsions:
REMARK  status: ('A' for Active; 'I' for Inactive)
REMARK    1  A    between atoms: C_1  and  C_2
REMARK    2  A    between atoms: C_2  and  C_3
REMARK    3  A    between atoms: C_2  and  C_4
REMARK    4  A    between atoms: C_2  and  N_5
REMARK    5  A    between atoms: N_5  and  C_6
REMARK    6  A    between atoms: C_6  and  C_7
REMARK    7  A    between atoms: C_7  and  C_8
REMARK    8  A    between atoms: C_7  and  O_17
REMARK    9  A    between atoms: C_11  and  N_15
REMARK                            x       y       z     vdW  Elec       q    Type
REMARK                         _______ _______ _______ _____ _____    ______ ____
ROOT
ATOM      1  C   UNL     1      89.574  65.478  85.547  0.00  0.00    +0.000 C 
ENDROOT
BRANCH   1   2
ATOM      2  C   UNL     1      89.619  66.992  85.495  0.00  0.00    +0.000 A 
ATOM      3  C   UNL     1      89.896  67.668  84.297  0.00  0.00    +0.000 A 
ATOM      4  C   UNL     1      89.955  69.066  84.264  0.00  0.00    +0.000 A 
ATOM      5  C   UNL     1      89.702  69.837  85.412  0.00  0.00    +0.000 A 
ATOM      6  C   UNL     1      89.468  69.146  86.616  0.00  0.00    +0.000 A 
ATOM      7  C   UNL     1      89.410  67.748  86.655  0.00  0.00    +0.000 A 
ATOM      8 CL   UNL     1      89.211  70.011  88.094  0.00  0.00    +0.000 Cl
ATOM      9 CL   UNL     1      90.322  69.827  82.753  0.00  0.00    +0.000 Cl
BRANCH   5  10
ATOM     10  N   UNL     1      89.902  71.236  85.406  0.00  0.00    +0.000 N 
ATOM     11  H   UNL     1      90.725  71.614  85.021  0.00  0.00    +0.000 HD
ATOM     12  H   UNL     1      89.218  71.833  85.787  0.00  0.00    +0.000 HD
ENDBRANCH   5  10
ENDBRANCH   1   2
BRANCH   1  13
ATOM     13  O   UNL     1      90.863  64.998  85.940  0.00  0.00    +0.000 OA
ATOM     14  H   UNL     1      91.063  65.310  86.837  0.00  0.00    +0.000 HD
ENDBRANCH   1  13
BRANCH   1  15
ATOM     15  C   UNL     1      88.505  64.917  86.521  0.00  0.00    +0.000 C 
BRANCH  15  16
ATOM     16  N   UNL     1      89.087  64.113  87.606  0.00  0.00    +0.000 N 
ATOM     17  H   UNL     1      89.315  63.195  87.225  0.00  0.00    +0.000 HD
ATOM     18  H   UNL     1      89.898  64.638  87.935  0.00  0.00    +0.000 HD
BRANCH  16  20
ATOM     19  C   UNL     1      89.062  63.729  90.073  0.00  0.00    +0.000 C 
ATOM     20  C   UNL     1      88.232  63.913  88.791  0.00  0.00    +0.000 C 
ATOM     21  C   UNL     1      87.268  62.729  88.614  0.00  0.00    +0.000 C 
ATOM     22  C   UNL     1      87.396  65.200  88.934  0.00  0.00    +0.000 C 
ENDBRANCH  16  20
ENDBRANCH  15  16
ENDBRANCH   1  15
TORSDOF 6
ENDMDL
