REMARK  Name = *****
REMARK  9 active torsions:
REMARK  status: ('A' for Active; 'I' for Inactive)
REMARK    1  A    between atoms: C_1  and  C_2
REMARK    2  A    between atoms: C_2  and  C_3
REMARK    3  A    between atoms: C_2  and  C_4
REMARK    4  A    between atoms: C_2  and  N_5
REMARK    5  A    between atoms: N_5  and  C_6
REMARK    6  A    between atoms: C_6  and  C_7
REMARK    7  A    between atoms: C_7  and  C_8
REMARK    8  A    between atoms: C_7  and  O_17
REMARK    9  A    between atoms: C_11  and  N_15
REMARK                            x       y       z     vdW  Elec       q    Type
REMARK                         _______ _______ _______ _____ _____    ______ ____
ROOT
ATOM      1  C   UNL     1       5.377  -2.251   1.178  0.00  0.00    +0.000 C 
ENDROOT
BRANCH   1   2
ATOM      2  C   UNL     1       4.717  -3.570   0.827  0.00  0.00    +0.000 A 
ATOM      3  C   UNL     1       4.746  -4.068  -0.484  0.00  0.00    +0.000 A 
ATOM      4  C   UNL     1       4.116  -5.277  -0.802  0.00  0.00    +0.000 A 
ATOM      5  C   UNL     1       3.471  -6.048   0.182  0.00  0.00    +0.000 A 
ATOM      6  C   UNL     1       3.413  -5.516   1.484  0.00  0.00    +0.000 A 
ATOM      7  C   UNL     1       4.039  -4.306   1.807  0.00  0.00    +0.000 A 
ATOM      8 CL   UNL     1       2.584  -6.363   2.746  0.00  0.00    +0.000 Cl
ATOM      9 CL   UNL     1       4.178  -5.817  -2.445  0.00  0.00    +0.000 Cl
BRANCH   5  10
ATOM     10  N   UNL     1       2.719  -7.191  -0.169  0.00  0.00    +0.000 N 
ATOM     11  H   UNL     1       2.770  -7.552  -1.083  0.00  0.00    +0.000 HD
ATOM     12  H   UNL     1       2.144  -7.627   0.501  0.00  0.00    +0.000 HD
ENDBRANCH   5  10
ENDBRANCH   1   2
BRANCH   1  13
ATOM     13  O   UNL     1       6.743  -2.300   0.755  0.00  0.00    +0.000 OA
ATOM     14  H   UNL     1       6.779  -2.412  -0.208  0.00  0.00    +0.000 HD
ENDBRANCH   1  13
BRANCH   1  15
ATOM     15  C   UNL     1       4.691  -1.018   0.534  0.00  0.00    +0.000 C 
BRANCH  15  16
ATOM     16  N   UNL     1       3.297  -0.847   0.970  0.00  0.00    +0.000 N 
ATOM     17  H   UNL     1       2.781  -1.684   0.700  0.00  0.00    +0.000 HD
ATOM     18  H   UNL     1       3.340  -0.693   1.978  0.00  0.00    +0.000 HD
BRANCH  16  20
ATOM     19  C   UNL     1       2.436   0.231  -1.111  0.00  0.00    +0.000 C 
ATOM     20  C   UNL     1       2.587   0.322   0.417  0.00  0.00    +0.000 C 
ATOM     21  C   UNL     1       3.268   1.645   0.800  0.00  0.00    +0.000 C 
ATOM     22  C   UNL     1       1.180   0.301   1.046  0.00  0.00    +0.000 C 
ENDBRANCH  16  20
ENDBRANCH  15  16
ENDBRANCH   1  15
TORSDOF 6
