REMARK  Name = *****
REMARK  3 active torsions:
REMARK  status: ('A' for Active; 'I' for Inactive)
REMARK    1  A    between atoms: C_4  and  S_6
REMARK    2  A    between atoms: S_6  and  C_9
REMARK    3  A    between atoms: C_16  and  O_19
REMARK                            x       y       z     vdW  Elec       q    Type
REMARK                         _______ _______ _______ _____ _____    ______ ____
ROOT
ATOM      1  C   UNL     1      -3.014   0.926   2.479  0.00  0.00    +0.000 A 
ATOM      2  C   UNL     1      -3.860   2.076   2.505  0.00  0.00    +0.000 A 
ATOM      3  C   UNL     1      -3.465   3.430   2.356  0.00  0.00    +0.000 A 
ATOM      4  C   UNL     1      -4.399   4.462   2.393  0.00  0.00    +0.000 A 
ATOM      5  C   UNL     1      -5.722   4.131   2.578  0.00  0.00    +0.000 A 
ATOM      6  N   UNL     1      -6.157   2.864   2.729  0.00  0.00    +0.000 NA
ATOM      7  C   UNL     1      -5.244   1.870   2.701  0.00  0.00    +0.000 A 
ATOM      8  C   UNL     1      -5.716   0.573   2.877  0.00  0.00    +0.000 A 
ATOM      9  C   UNL     1      -4.890  -0.542   2.874  0.00  0.00    +0.000 A 
ATOM     10  C   UNL     1      -3.529  -0.366   2.677  0.00  0.00    +0.000 A 
ENDROOT
BRANCH   1  11
ATOM     11  S   UNL     1      -1.252   1.056   2.192  0.00  0.00    +0.000 S 
ATOM     12  O   UNL     1      -0.681  -0.269   2.357  0.00  0.00    +0.000 OA
ATOM     13  O   UNL     1      -0.764   2.156   3.000  0.00  0.00    +0.000 OA
BRANCH  11  17
ATOM     14  C   UNL     1       0.566   0.426  -0.924  0.00  0.00    +0.000 C 
ATOM     15  C   UNL     1      -0.780   0.288  -1.612  0.00  0.00    +0.000 C 
ATOM     16  C   UNL     1      -1.773   0.483  -0.474  0.00  0.00    +0.000 C 
ATOM     17  C   UNL     1      -1.114   1.503   0.463  0.00  0.00    +0.000 C 
ATOM     18  C   UNL     1       0.354   1.599   0.022  0.00  0.00    +0.000 C 
ENDBRANCH  11  17
ENDBRANCH   1  11
BRANCH   8  19
ATOM     19  O   UNL     1      -7.063   0.370   3.067  0.00  0.00    +0.000 OA
ATOM     20  H   UNL     1      -7.650   1.100   3.074  0.00  0.00    +0.000 HD
ENDBRANCH   8  19
TORSDOF 3
