REMARK  Name = *****
REMARK  7 active torsions:
REMARK  status: ('A' for Active; 'I' for Inactive)
REMARK    1  A    between atoms: C_1  and  N_2
REMARK    2  A    between atoms: N_2  and  C_3
REMARK    3  A    between atoms: N_2  and  C_4
REMARK    4  A    between atoms: C_13  and  S_14
REMARK    5  A    between atoms: S_14  and  N_17
REMARK    6  A    between atoms: N_17  and  C_18
REMARK    7  A    between atoms: N_17  and  C_19
REMARK                            x       y       z     vdW  Elec       q    Type
REMARK                         _______ _______ _______ _____ _____    ______ ____
ROOT
ATOM      1  C   UNL     1       3.216   0.758   0.863  0.00  0.00    +0.000 A 
ATOM      2  C   UNL     1       2.769   0.280   2.102  0.00  0.00    +0.000 A 
ATOM      3  C   UNL     1       3.388   0.678   3.275  0.00  0.00    +0.000 A 
ATOM      4  C   UNL     1       4.467   1.559   3.228  0.00  0.00    +0.000 A 
ATOM      5  C   UNL     1       4.975   2.084   2.011  0.00  0.00    +0.000 A 
ATOM      6  C   UNL     1       4.323   1.661   0.814  0.00  0.00    +0.000 A 
ATOM      7  C   UNL     1       4.786   2.155  -0.426  0.00  0.00    +0.000 A 
ATOM      8  C   UNL     1       5.866   3.024  -0.527  0.00  0.00    +0.000 A 
ATOM      9  C   UNL     1       6.510   3.440   0.625  0.00  0.00    +0.000 A 
ATOM     10  C   UNL     1       6.069   2.998   1.886  0.00  0.00    +0.000 A 
ENDROOT
BRANCH   1  12
ATOM     11  C   UNL     1       1.145   0.387  -0.352  0.00  0.00    +0.000 C 
ATOM     12  N   UNL     1       2.607   0.322  -0.348  0.00  0.00    +0.000 N 
ATOM     13  C   UNL     1       3.156  -0.973  -0.765  0.00  0.00    +0.000 C 
ENDBRANCH   1  12
BRANCH  10  14
ATOM     14  S   UNL     1       7.005   3.634   3.283  0.00  0.00    +0.000 S 
ATOM     15  O   UNL     1       6.971   2.675   4.366  0.00  0.00    +0.000 OA
ATOM     16  O   UNL     1       8.284   4.089   2.773  0.00  0.00    +0.000 OA
BRANCH  14  17
ATOM     17  N   UNL     1       6.128   5.019   3.752  0.00  0.00    +0.000 NA
ATOM     18  C   UNL     1       6.120   6.150   2.808  0.00  0.00    +0.000 C 
ATOM     19  C   UNL     1       4.831   4.810   4.413  0.00  0.00    +0.000 C 
ENDBRANCH  14  17
ENDBRANCH  10  14
TORSDOF 3
