REMARK  Name = *****
REMARK  5 active torsions:
REMARK  status: ('A' for Active; 'I' for Inactive)
REMARK    1  A    between atoms: C_1  and  C_2
REMARK    2  A    between atoms: C_2  and  N_3
REMARK    3  A    between atoms: N_3  and  S_4
REMARK    4  A    between atoms: S_4  and  C_7
REMARK    5  A    between atoms: C_9  and  C_14
REMARK                            x       y       z     vdW  Elec       q    Type
REMARK                         _______ _______ _______ _____ _____    ______ ____
ROOT
ATOM      1  C   UNL     1       5.360   2.253  -1.818  0.00  0.00    +0.000 A 
ATOM      2  C   UNL     1       6.265   2.143  -2.887  0.00  0.00    +0.000 A 
ATOM      3  C   UNL     1       6.589   3.285  -3.665  0.00  0.00    +0.000 A 
ATOM      4  C   UNL     1       5.950   4.504  -3.362  0.00  0.00    +0.000 A 
ATOM      5  C   UNL     1       5.051   4.600  -2.297  0.00  0.00    +0.000 A 
ATOM      6  C   UNL     1       4.762   3.483  -1.521  0.00  0.00    +0.000 A 
ATOM      7 CL   UNL     1       6.211   5.943  -4.285  0.00  0.00    +0.000 Cl
ATOM      8  C   UNL     1       7.552   3.178  -4.823  0.00  0.00    +0.000 C 
ATOM      9 CL   UNL     1       6.968   0.612  -3.319  0.00  0.00    +0.000 Cl
ENDROOT
BRANCH   1  10
ATOM     10  S   UNL     1       4.950   0.867  -0.783  0.00  0.00    +0.000 S 
ATOM     11  O   UNL     1       3.895   1.286   0.115  0.00  0.00    +0.000 OA
ATOM     12  O   UNL     1       6.184   0.311  -0.277  0.00  0.00    +0.000 OA
BRANCH  10  13
ATOM     13  N   UNL     1       4.279  -0.248  -1.842  0.00  0.00    +0.000 NA
ATOM     14  H   UNL     1       5.004  -0.489  -2.517  0.00  0.00    +0.000 HD
BRANCH  13  16
ATOM     15  C   UNL     1       2.402  -1.162  -3.077  0.00  0.00    +0.000 C 
ATOM     16  C   UNL     1       3.087   0.109  -2.609  0.00  0.00    +0.000 C 
ENDBRANCH  13  16
ENDBRANCH  10  13
ENDBRANCH   1  10
TORSDOF 3
