REMARK  Name = *****
REMARK  2 active torsions:
REMARK  status: ('A' for Active; 'I' for Inactive)
REMARK    1  A    between atoms: C_2  and  S_3
REMARK    2  A    between atoms: S_3  and  C_6
REMARK                            x       y       z     vdW  Elec       q    Type
REMARK                         _______ _______ _______ _____ _____    ______ ____
ROOT
ATOM      1  C   UNL     1       4.913  -0.783   0.915  0.00  0.00    +0.000 A 
ATOM      2  C   UNL     1       5.748  -1.903   0.770  0.00  0.00    +0.000 A 
ATOM      3  C   UNL     1       7.106  -1.732   0.537  0.00  0.00    +0.000 A 
ATOM      4  C   UNL     1       7.633  -0.447   0.448  0.00  0.00    +0.000 A 
ATOM      5  C   UNL     1       6.819   0.687   0.600  0.00  0.00    +0.000 A 
ATOM      6  C   UNL     1       7.396   1.964   0.506  0.00  0.00    +0.000 A 
ATOM      7  C   UNL     1       6.627   3.116   0.659  0.00  0.00    +0.000 A 
ATOM      8  C   UNL     1       5.269   3.003   0.913  0.00  0.00    +0.000 A 
ATOM      9  C   UNL     1       4.679   1.740   1.008  0.00  0.00    +0.000 A 
ATOM     10  C   UNL     1       5.428   0.544   0.848  0.00  0.00    +0.000 A 
ENDROOT
BRANCH   1  11
ATOM     11  S   UNL     1       3.169  -1.103   1.165  0.00  0.00    +0.000 S 
ATOM     12  O   UNL     1       2.752  -0.335   2.323  0.00  0.00    +0.000 OA
ATOM     13  O   UNL     1       2.982  -2.543   1.146  0.00  0.00    +0.000 OA
BRANCH  11  15
ATOM     14  C   UNL     1       1.167  -0.071  -0.271  0.00  0.00    +0.000 C 
ATOM     15  C   UNL     1       2.448  -0.464  -0.285  0.00  0.00    +0.000 C 
ENDBRANCH  11  15
ENDBRANCH   1  11
TORSDOF 2
