REMARK  Name = *****
REMARK  6 active torsions:
REMARK  status: ('A' for Active; 'I' for Inactive)
REMARK    1  A    between atoms: C_1  and  C_2
REMARK    2  A    between atoms: C_2  and  N_3
REMARK    3  A    between atoms: N_3  and  S_4
REMARK    4  A    between atoms: S_4  and  C_7
REMARK    5  A    between atoms: C_10  and  N_15
REMARK    6  A    between atoms: C_12  and  C_13
REMARK                            x       y       z     vdW  Elec       q    Type
REMARK                         _______ _______ _______ _____ _____    ______ ____
ROOT
ATOM      1  C   UNL     1       5.395  -2.889   0.607  0.00  0.00    +0.000 A 
ATOM      2  C   UNL     1       4.592  -3.966   0.203  0.00  0.00    +0.000 A 
ATOM      3  C   UNL     1       4.947  -5.269   0.540  0.00  0.00    +0.000 A 
ATOM      4  C   UNL     1       6.098  -5.535   1.298  0.00  0.00    +0.000 A 
ATOM      5  C   UNL     1       6.924  -4.442   1.655  0.00  0.00    +0.000 A 
ATOM      6  C   UNL     1       6.572  -3.102   1.358  0.00  0.00    +0.000 A 
ATOM      7  C   UNL     1       7.476  -1.967   1.769  0.00  0.00    +0.000 C 
ATOM      8 CL   UNL     1       8.408  -4.798   2.501  0.00  0.00    +0.000 Cl
ATOM      9 CL   UNL     1       3.918  -6.556   0.011  0.00  0.00    +0.000 Cl
ENDROOT
BRANCH   1  10
ATOM     10  S   UNL     1       4.885  -1.266   0.061  0.00  0.00    +0.000 S 
ATOM     11  O   UNL     1       3.717  -1.400  -0.782  0.00  0.00    +0.000 OA
ATOM     12  O   UNL     1       6.059  -0.556  -0.391  0.00  0.00    +0.000 OA
BRANCH  10  13
ATOM     13  N   UNL     1       4.395  -0.545   1.498  0.00  0.00    +0.000 NA
ATOM     14  H   UNL     1       5.031  -0.864   2.228  0.00  0.00    +0.000 HD
BRANCH  13  16
ATOM     15  C   UNL     1       2.930  -0.372   3.426  0.00  0.00    +0.000 C 
ATOM     16  C   UNL     1       3.031  -0.793   1.971  0.00  0.00    +0.000 C 
ENDBRANCH  13  16
ENDBRANCH  10  13
ENDBRANCH   1  10
BRANCH   4  17
ATOM     17  N   UNL     1       6.532  -6.867   1.493  0.00  0.00    +0.000 N 
ATOM     18  H   UNL     1       5.947  -7.618   1.240  0.00  0.00    +0.000 HD
ATOM     19  H   UNL     1       7.419  -7.044   1.882  0.00  0.00    +0.000 HD
ENDBRANCH   4  17
TORSDOF 4
