REMARK  Name = *****
REMARK  5 active torsions:
REMARK  status: ('A' for Active; 'I' for Inactive)
REMARK    1  A    between atoms: C_1  and  C_2
REMARK    2  A    between atoms: C_2  and  C_3
REMARK    3  A    between atoms: C_3  and  N_4
REMARK    4  A    between atoms: N_4  and  S_5
REMARK    5  A    between atoms: S_5  and  C_8
REMARK                            x       y       z     vdW  Elec       q    Type
REMARK                         _______ _______ _______ _____ _____    ______ ____
ROOT
ATOM      1  C   UNL     1       6.660   2.089   2.185  0.00  0.00    +0.000 A 
ATOM      2  C   UNL     1       7.408   0.876   2.150  0.00  0.00    +0.000 A 
ATOM      3  C   UNL     1       7.008  -0.485   2.227  0.00  0.00    +0.000 A 
ATOM      4  C   UNL     1       7.955  -1.529   2.157  0.00  0.00    +0.000 A 
ATOM      5  C   UNL     1       9.329  -1.276   2.009  0.00  0.00    +0.000 A 
ATOM      6  C   UNL     1       9.713   0.059   1.939  0.00  0.00    +0.000 A 
ATOM      7  C   UNL     1       8.753   1.057   2.013  0.00  0.00    +0.000 A 
ATOM      8  C   UNL     1       9.390   2.275   1.926  0.00  0.00    +0.000 A 
ATOM      9  C   UNL     1       8.698   3.469   1.973  0.00  0.00    +0.000 A 
ATOM     10  C   UNL     1       7.302   3.354   2.106  0.00  0.00    +0.000 A 
ATOM     11  N   UNL     1      10.743   2.025   1.797  0.00  0.00    +0.000 N 
ATOM     12  C   UNL     1      11.028   0.653   1.797  0.00  0.00    +0.000 C 
ATOM     13  O   UNL     1      12.148   0.173   1.693  0.00  0.00    +0.000 OA
ATOM     14  H   UNL     1      11.427   2.728   1.715  0.00  0.00    +0.000 HD
ENDROOT
BRANCH   1  15
ATOM     15  S   UNL     1       4.888   2.057   2.321  0.00  0.00    +0.000 S 
ATOM     16  O   UNL     1       4.417   3.423   2.387  0.00  0.00    +0.000 OA
ATOM     17  O   UNL     1       4.526   1.085   3.327  0.00  0.00    +0.000 OA
BRANCH  15  18
ATOM     18  N   UNL     1       4.411   1.432   0.839  0.00  0.00    +0.000 NA
ATOM     19  H   UNL     1       4.792   0.487   0.782  0.00  0.00    +0.000 HD
BRANCH  18  20
ATOM     20  C   UNL     1       4.789   2.117  -0.396  0.00  0.00    +0.000 C 
BRANCH  20  22
ATOM     21  C   UNL     1       4.147   2.408  -2.813  0.00  0.00    +0.000 C 
ATOM     22  C   UNL     1       3.807   1.728  -1.497  0.00  0.00    +0.000 C 
ENDBRANCH  20  22
ENDBRANCH  18  20
ENDBRANCH  15  18
ENDBRANCH   1  15
TORSDOF 4
