REMARK  Name = *****
REMARK  7 active torsions:
REMARK  status: ('A' for Active; 'I' for Inactive)
REMARK    1  A    between atoms: C_1  and  C_2
REMARK    2  A    between atoms: C_2  and  N_3
REMARK    3  A    between atoms: N_3  and  S_4
REMARK    4  A    between atoms: S_4  and  C_7
REMARK    5  A    between atoms: C_10  and  O_17
REMARK    6  A    between atoms: O_17  and  C_18
REMARK    7  A    between atoms: C_18  and  C_19
REMARK                            x       y       z     vdW  Elec       q    Type
REMARK                         _______ _______ _______ _____ _____    ______ ____
ROOT
ATOM      1  C   UNL     1       5.278  -1.637  -2.588  0.00  0.00    +0.000 A 
ATOM      2  C   UNL     1       5.253  -3.038  -2.691  0.00  0.00    +0.000 A 
ATOM      3  C   UNL     1       5.600  -3.670  -3.879  0.00  0.00    +0.000 A 
ATOM      4  C   UNL     1       5.981  -2.914  -4.984  0.00  0.00    +0.000 A 
ATOM      5  C   UNL     1       6.027  -1.496  -4.903  0.00  0.00    +0.000 A 
ATOM      6  C   UNL     1       6.419  -0.728  -6.024  0.00  0.00    +0.000 A 
ATOM      7  C   UNL     1       6.478   0.662  -5.989  0.00  0.00    +0.000 A 
ATOM      8  C   UNL     1       6.144   1.324  -4.824  0.00  0.00    +0.000 A 
ATOM      9  C   UNL     1       5.752   0.593  -3.700  0.00  0.00    +0.000 A 
ATOM     10  C   UNL     1       5.679  -0.828  -3.692  0.00  0.00    +0.000 A 
ENDROOT
BRANCH   1  11
ATOM     11  S   UNL     1       4.800  -0.988  -0.988  0.00  0.00    +0.000 S 
ATOM     12  O   UNL     1       5.393   0.310  -0.768  0.00  0.00    +0.000 OA
ATOM     13  O   UNL     1       4.975  -2.048  -0.016  0.00  0.00    +0.000 OA
BRANCH  11  14
ATOM     14  N   UNL     1       3.139  -0.804  -1.143  0.00  0.00    +0.000 NA
ATOM     15  H   UNL     1       2.760  -1.730  -1.339  0.00  0.00    +0.000 HD
BRANCH  14  17
ATOM     16  C   UNL     1       1.136   0.398  -1.796  0.00  0.00    +0.000 C 
ATOM     17  C   UNL     1       2.583   0.097  -2.148  0.00  0.00    +0.000 C 
ENDBRANCH  14  17
ENDBRANCH  11  14
ENDBRANCH   1  11
BRANCH   4  18
ATOM     18  O   UNL     1       6.329  -3.465  -6.196  0.00  0.00    +0.000 OA
BRANCH  18  19
ATOM     19  C   UNL     1       6.286  -4.884  -6.331  0.00  0.00    +0.000 C 
ATOM     20  C   UNL     1       6.693  -5.230  -7.752  0.00  0.00    +0.000 C 
ENDBRANCH  18  19
ENDBRANCH   4  18
TORSDOF 5
