REMARK  Name = *****
REMARK  5 active torsions:
REMARK  status: ('A' for Active; 'I' for Inactive)
REMARK    1  A    between atoms: C_1  and  C_2
REMARK    2  A    between atoms: C_2  and  C_3
REMARK    3  A    between atoms: C_2  and  C_4
REMARK    4  A    between atoms: C_2  and  S_5
REMARK    5  A    between atoms: S_5  and  C_8
REMARK                            x       y       z     vdW  Elec       q    Type
REMARK                         _______ _______ _______ _____ _____    ______ ____
ROOT
ATOM      1  C   UNL     1       5.016  -1.698   0.354  0.00  0.00    +0.000 A 
ATOM      2  C   UNL     1       5.677  -2.941   0.396  0.00  0.00    +0.000 A 
ATOM      3  C   UNL     1       7.061  -3.001   0.470  0.00  0.00    +0.000 A 
ATOM      4  C   UNL     1       7.797  -1.823   0.493  0.00  0.00    +0.000 A 
ATOM      5  C   UNL     1       7.169  -0.571   0.426  0.00  0.00    +0.000 A 
ATOM      6  C   UNL     1       7.967   0.585   0.439  0.00  0.00    +0.000 A 
ATOM      7  C   UNL     1       7.402   1.854   0.364  0.00  0.00    +0.000 A 
ATOM      8  C   UNL     1       6.027   1.982   0.271  0.00  0.00    +0.000 A 
ATOM      9  C   UNL     1       5.218   0.841   0.259  0.00  0.00    +0.000 A 
ATOM     10  C   UNL     1       5.752  -0.474   0.342  0.00  0.00    +0.000 A 
ENDROOT
BRANCH   1  11
ATOM     11  S   UNL     1       3.224  -1.781   0.256  0.00  0.00    +0.000 S 
ATOM     12  O   UNL     1       2.900  -3.111  -0.238  0.00  0.00    +0.000 OA
ATOM     13  O   UNL     1       2.745  -0.633  -0.490  0.00  0.00    +0.000 OA
BRANCH  11  15
ATOM     14  C   UNL     1       3.199  -2.802   2.830  0.00  0.00    +0.000 C 
ATOM     15  C   UNL     1       2.610  -1.673   1.972  0.00  0.00    +0.000 C 
ATOM     16  C   UNL     1       1.078  -1.827   1.933  0.00  0.00    +0.000 C 
ATOM     17  C   UNL     1       2.951  -0.319   2.605  0.00  0.00    +0.000 C 
ENDBRANCH  11  15
ENDBRANCH   1  11
TORSDOF 2
