REMARK  Name = *****
REMARK  5 active torsions:
REMARK  status: ('A' for Active; 'I' for Inactive)
REMARK    1  A    between atoms: C_1  and  N_2
REMARK    2  A    between atoms: N_2  and  C_3
REMARK    3  A    between atoms: N_2  and  C_4
REMARK    4  A    between atoms: C_13  and  S_14
REMARK    5  A    between atoms: S_14  and  N_17
REMARK                            x       y       z     vdW  Elec       q    Type
REMARK                         _______ _______ _______ _____ _____    ______ ____
ROOT
ATOM      1  C   UNL     1       3.247   0.262  -0.942  0.00  0.00    +0.000 A 
ATOM      2  C   UNL     1       3.065   1.602  -1.314  0.00  0.00    +0.000 A 
ATOM      3  C   UNL     1       3.852   2.175  -2.302  0.00  0.00    +0.000 A 
ATOM      4  C   UNL     1       4.836   1.417  -2.932  0.00  0.00    +0.000 A 
ATOM      5  C   UNL     1       5.073   0.059  -2.601  0.00  0.00    +0.000 A 
ATOM      6  C   UNL     1       4.258  -0.515  -1.585  0.00  0.00    +0.000 A 
ATOM      7  C   UNL     1       4.465  -1.868  -1.233  0.00  0.00    +0.000 A 
ATOM      8  C   UNL     1       5.442  -2.655  -1.838  0.00  0.00    +0.000 A 
ATOM      9  C   UNL     1       6.242  -2.107  -2.827  0.00  0.00    +0.000 A 
ATOM     10  C   UNL     1       6.061  -0.769  -3.212  0.00  0.00    +0.000 A 
ENDROOT
BRANCH   1  12
ATOM     11  C   UNL     1       1.019  -0.155  -0.091  0.00  0.00    +0.000 C 
ATOM     12  N   UNL     1       2.462  -0.321   0.092  0.00  0.00    +0.000 N 
ATOM     13  C   UNL     1       2.956   0.083   1.412  0.00  0.00    +0.000 C 
ENDBRANCH   1  12
BRANCH  10  14
ATOM     14  S   UNL     1       7.134  -0.158  -4.503  0.00  0.00    +0.000 S 
ATOM     15  O   UNL     1       7.752   1.067  -4.038  0.00  0.00    +0.000 OA
ATOM     16  O   UNL     1       7.960  -1.258  -4.967  0.00  0.00    +0.000 OA
BRANCH  14  17
ATOM     17  N   UNL     1       6.003   0.235  -5.738  0.00  0.00    +0.000 NA
ATOM     18  C   UNL     1       5.751  -0.775  -6.770  0.00  0.00    +0.000 C 
ATOM     19  C   UNL     1       6.589   0.439  -7.069  0.00  0.00    +0.000 C 
ENDBRANCH  14  17
ENDBRANCH  10  14
TORSDOF 3
