REMARK  Name = *****
REMARK  7 active torsions:
REMARK  status: ('A' for Active; 'I' for Inactive)
REMARK    1  A    between atoms: C_1  and  C_2
REMARK    2  A    between atoms: C_2  and  N_3
REMARK    3  A    between atoms: N_3  and  C_4
REMARK    4  A    between atoms: N_3  and  S_6
REMARK    5  A    between atoms: C_4  and  C_5
REMARK    6  A    between atoms: S_6  and  C_9
REMARK    7  A    between atoms: C_12  and  C_19
REMARK                            x       y       z     vdW  Elec       q    Type
REMARK                         _______ _______ _______ _____ _____    ______ ____
ROOT
ATOM      1  C   UNL     1       4.818  -2.961  -0.927  0.00  0.00    +0.000 A 
ATOM      2  C   UNL     1       5.657  -2.953  -2.051  0.00  0.00    +0.000 A 
ATOM      3  C   UNL     1       6.074  -4.145  -2.621  0.00  0.00    +0.000 A 
ATOM      4  C   UNL     1       5.668  -5.369  -2.077  0.00  0.00    +0.000 A 
ATOM      5  C   UNL     1       4.848  -5.399  -0.914  0.00  0.00    +0.000 A 
ATOM      6  C   UNL     1       4.449  -6.624  -0.330  0.00  0.00    +0.000 A 
ATOM      7  C   UNL     1       3.673  -6.679   0.825  0.00  0.00    +0.000 A 
ATOM      8  C   UNL     1       3.282  -5.504   1.437  0.00  0.00    +0.000 A 
ATOM      9  C   UNL     1       3.656  -4.278   0.884  0.00  0.00    +0.000 A 
ATOM     10  C   UNL     1       4.422  -4.180  -0.308  0.00  0.00    +0.000 A 
ATOM     11  C   UNL     1       6.149  -6.631  -2.751  0.00  0.00    +0.000 C 
ENDROOT
BRANCH   1  12
ATOM     12  S   UNL     1       4.283  -1.354  -0.352  0.00  0.00    +0.000 S 
ATOM     13  O   UNL     1       5.417  -0.760   0.323  0.00  0.00    +0.000 OA
ATOM     14  O   UNL     1       2.986  -1.454   0.285  0.00  0.00    +0.000 OA
BRANCH  12  15
ATOM     15  N   UNL     1       4.011  -0.482  -1.808  0.00  0.00    +0.000 NA
BRANCH  15  17
ATOM     16  C   UNL     1       3.200  -0.909  -4.100  0.00  0.00    +0.000 C 
ATOM     17  C   UNL     1       2.849  -0.941  -2.621  0.00  0.00    +0.000 C 
ENDBRANCH  15  17
BRANCH  15  18
ATOM     18  C   UNL     1       4.135   0.999  -1.696  0.00  0.00    +0.000 C 
ATOM     19  C   UNL     1       3.174   1.627  -0.699  0.00  0.00    +0.000 C 
ENDBRANCH  15  18
ENDBRANCH  12  15
ENDBRANCH   1  12
TORSDOF 4
