REMARK  Name = *****
REMARK  1 active torsions:
REMARK  status: ('A' for Active; 'I' for Inactive)
REMARK    1  A    between atoms: C_4  and  C_7
REMARK                            x       y       z     vdW  Elec       q    Type
REMARK                         _______ _______ _______ _____ _____    ______ ____
ROOT
ATOM      1  C   UNL     1      -2.454   0.172  -1.279  0.00  0.00    +0.000 C 
ATOM      2  C   UNL     1      -1.377   0.225  -2.380  0.00  0.00    +0.000 C 
ATOM      3  C   UNL     1      -0.515   1.433  -2.126  0.00  0.00    +0.000 C 
ATOM      4  O   UNL     1       0.696   1.446  -2.328  0.00  0.00    +0.000 OA
ATOM      5  C   UNL     1      -1.218   2.645  -1.665  0.00  0.00    +0.000 A 
ATOM      6  C   UNL     1      -0.562   3.879  -1.620  0.00  0.00    +0.000 A 
ATOM      7  C   UNL     1      -1.269   5.020  -1.243  0.00  0.00    +0.000 A 
ATOM      8  C   UNL     1      -2.624   4.928  -0.920  0.00  0.00    +0.000 A 
ATOM      9  C   UNL     1      -3.273   3.692  -0.960  0.00  0.00    +0.000 A 
ATOM     10  C   UNL     1      -2.565   2.545  -1.317  0.00  0.00    +0.000 A 
ATOM     11  O   UNL     1      -3.266   1.369  -1.304  0.00  0.00    +0.000 OA
ATOM     12 CL   UNL     1      -2.027   0.405  -4.051  0.00  0.00    +0.000 Cl
ATOM     13 CL   UNL     1      -3.590  -1.211  -1.621  0.00  0.00    +0.000 Cl
ENDROOT
BRANCH   1  17
ATOM     14  C   UNL     1      -1.024  -0.613   2.776  0.00  0.00    +0.000 A 
ATOM     15  C   UNL     1      -2.157   0.165   2.569  0.00  0.00    +0.000 A 
ATOM     16  C   UNL     1      -2.611   0.409   1.270  0.00  0.00    +0.000 A 
ATOM     17  C   UNL     1      -1.929  -0.104   0.147  0.00  0.00    +0.000 A 
ATOM     18  C   UNL     1      -0.798  -0.908   0.386  0.00  0.00    +0.000 A 
ATOM     19  C   UNL     1      -0.349  -1.154   1.687  0.00  0.00    +0.000 A 
ENDBRANCH   1  17
TORSDOF 1
