REMARK  Name = *****
REMARK  3 active torsions:
REMARK  status: ('A' for Active; 'I' for Inactive)
REMARK    1  A    between atoms: C_1  and  O_2
REMARK    2  A    between atoms: O_2  and  C_3
REMARK    3  A    between atoms: C_3  and  C_14
REMARK                            x       y       z     vdW  Elec       q    Type
REMARK                         _______ _______ _______ _____ _____    ______ ____
ROOT
ATOM      1  C   UNL     1       2.883  -1.109   0.714  0.00  0.00    +0.000 C 
ATOM      2  C   UNL     1       3.443  -0.555   2.029  0.00  0.00    +0.000 C 
ATOM      3  C   UNL     1       4.291   0.648   1.729  0.00  0.00    +0.000 C 
ATOM      4  O   UNL     1       4.414   1.577   2.522  0.00  0.00    +0.000 OA
ATOM      5  C   UNL     1       5.055   0.615   0.470  0.00  0.00    +0.000 A 
ATOM      6  C   UNL     1       5.968   1.625   0.155  0.00  0.00    +0.000 A 
ATOM      7  C   UNL     1       6.721   1.529  -1.015  0.00  0.00    +0.000 A 
ATOM      8  C   UNL     1       6.567   0.426  -1.857  0.00  0.00    +0.000 A 
ATOM      9  C   UNL     1       5.651  -0.579  -1.537  0.00  0.00    +0.000 A 
ATOM     10  C   UNL     1       4.882  -0.475  -0.380  0.00  0.00    +0.000 A 
ATOM     11  O   UNL     1       4.002  -1.492  -0.127  0.00  0.00    +0.000 OA
ENDROOT
BRANCH   1  12
ATOM     12  C   UNL     1       2.076  -2.408   0.865  0.00  0.00    +0.000 A 
ATOM     13  C   UNL     1       1.546  -3.016  -0.293  0.00  0.00    +0.000 A 
ATOM     14  C   UNL     1       0.799  -4.193  -0.218  0.00  0.00    +0.000 A 
ATOM     15  C   UNL     1       0.564  -4.788   1.016  0.00  0.00    +0.000 A 
ATOM     16  C   UNL     1       1.075  -4.207   2.174  0.00  0.00    +0.000 A 
ATOM     17  C   UNL     1       1.825  -3.028   2.101  0.00  0.00    +0.000 A 
ENDBRANCH   1  12
BRANCH   1  19
ATOM     18  C   UNL     1       0.971   0.395   0.723  0.00  0.00    +0.000 C 
ATOM     19  O   UNL     1       2.068  -0.153   0.005  0.00  0.00    +0.000 OA
ENDBRANCH   1  19
TORSDOF 2
