REMARK  Name = *****
REMARK  3 active torsions:
REMARK  status: ('A' for Active; 'I' for Inactive)
REMARK    1  A    between atoms: C_6  and  C_11
REMARK    2  A    between atoms: C_6  and  O_17
REMARK    3  A    between atoms: C_12  and  C_13
REMARK                            x       y       z     vdW  Elec       q    Type
REMARK                         _______ _______ _______ _____ _____    ______ ____
ROOT
ATOM      1  C   UNL     1      -2.514   0.714   0.329  0.00  0.00    +0.000 C 
ATOM      2  C   UNL     1      -2.534  -0.719  -0.196  0.00  0.00    +0.000 C 
ATOM      3  C   UNL     1      -1.259  -1.475   0.170  0.00  0.00    +0.000 C 
ATOM      4  C   UNL     1      -0.006  -0.723  -0.304  0.00  0.00    +0.000 C 
ATOM      5  C   UNL     1       1.271  -1.485   0.087  0.00  0.00    +0.000 C 
ATOM      6  C   UNL     1       2.558  -0.743  -0.320  0.00  0.00    +0.000 C 
ATOM      7  C   UNL     1       2.546   0.716   0.165  0.00  0.00    +0.000 C 
ATOM      8  C   UNL     1       1.263   1.463  -0.209  0.00  0.00    +0.000 C 
ATOM      9  C   UNL     1       0.015   0.709   0.263  0.00  0.00    +0.000 C 
ATOM     10  C   UNL     1      -1.263   1.465  -0.123  0.00  0.00    +0.000 C 
ENDROOT
BRANCH   6  11
ATOM     11  C   UNL     1       3.734  -1.443   0.230  0.00  0.00    +0.000 C 
ATOM     12  C   UNL     1       4.699  -2.018   0.661  0.00  0.00    +0.000 C 
BRANCH  12  13
ATOM     13  C   UNL     1       5.871  -2.715   1.169  0.00  0.00    +0.000 C 
ATOM     14  F   UNL     1       5.966  -2.574   2.511  0.00  0.00    +0.000 F 
ATOM     15  F   UNL     1       5.806  -4.037   0.894  0.00  0.00    +0.000 F 
ATOM     16  F   UNL     1       7.005  -2.227   0.619  0.00  0.00    +0.000 F 
ENDBRANCH  12  13
ENDBRANCH   6  11
BRANCH   6  17
ATOM     17  O   UNL     1       2.691  -0.771  -1.740  0.00  0.00    +0.000 OA
ATOM     18  H   UNL     1       1.935  -0.318  -2.145  0.00  0.00    +0.000 HD
ENDBRANCH   6  17
TORSDOF 3
