REMARK  Name = *****
REMARK  4 active torsions:
REMARK  status: ('A' for Active; 'I' for Inactive)
REMARK    1  A    between atoms: C_1  and  C_2
REMARK    2  A    between atoms: C_9  and  C_12
REMARK    3  A    between atoms: C_15  and  O_18
REMARK    4  A    between atoms: O_18  and  C_19
REMARK                            x       y       z     vdW  Elec       q    Type
REMARK                         _______ _______ _______ _____ _____    ______ ____
ROOT
ATOM      1  C   UNL     1       0.917   0.024  -0.229  0.00  0.00    +0.000 C 
ATOM      2  C   UNL     1       2.406  -0.003  -0.047  0.00  0.00    +0.000 A 
ATOM      3  C   UNL     1       3.100  -1.222  -0.042  0.00  0.00    +0.000 A 
ATOM      4  C   UNL     1       4.494  -1.251   0.096  0.00  0.00    +0.000 A 
ATOM      5  C   UNL     1       5.198  -0.051   0.217  0.00  0.00    +0.000 A 
ATOM      6  C   UNL     1       4.516   1.166   0.201  0.00  0.00    +0.000 A 
ATOM      7  C   UNL     1       3.127   1.191   0.062  0.00  0.00    +0.000 A 
ATOM      8  O   UNL     1       6.553   0.027   0.370  0.00  0.00    +0.000 OA
ATOM      9  C   UNL     1       7.321  -1.190   0.323  0.00  0.00    +0.000 C 
ATOM     10  C   UNL     1       6.540  -2.477   0.225  0.00  0.00    +0.000 C 
ATOM     11  C   UNL     1       5.209  -2.517   0.119  0.00  0.00    +0.000 C 
ENDROOT
BRANCH   9  12
ATOM     12  C   UNL     1       8.255  -1.202   1.523  0.00  0.00    +0.000 A 
ATOM     13  C   UNL     1       7.759  -1.031   2.824  0.00  0.00    +0.000 A 
ATOM     14  C   UNL     1       8.621  -1.063   3.923  0.00  0.00    +0.000 A 
ATOM     15  C   UNL     1       9.991  -1.267   3.748  0.00  0.00    +0.000 A 
ATOM     16  C   UNL     1      10.494  -1.443   2.459  0.00  0.00    +0.000 A 
ATOM     17  C   UNL     1       9.632  -1.412   1.355  0.00  0.00    +0.000 A 
BRANCH  15  18
ATOM     18  O   UNL     1      10.720  -1.276   4.905  0.00  0.00    +0.000 OA
ATOM     19  C   UNL     1      12.124  -1.457   4.779  0.00  0.00    +0.000 C 
ENDBRANCH  15  18
ENDBRANCH   9  12
TORSDOF 2
