REMARK  Name = *****
REMARK  5 active torsions:
REMARK  status: ('A' for Active; 'I' for Inactive)
REMARK    1  A    between atoms: C_1  and  O_2
REMARK    2  A    between atoms: O_2  and  C_3
REMARK    3  A    between atoms: C_12  and  C_13
REMARK    4  A    between atoms: C_12  and  O_19
REMARK    5  A    between atoms: O_19  and  C_20
REMARK                            x       y       z     vdW  Elec       q    Type
REMARK                         _______ _______ _______ _____ _____    ______ ____
ROOT
ATOM      1  C   UNL     1       2.951   1.186  -0.691  0.00  0.00    +0.000 C 
ATOM      2  C   UNL     1       2.676   2.416  -0.226  0.00  0.00    +0.000 C 
ATOM      3  C   UNL     1       3.466   3.540  -0.703  0.00  0.00    +0.000 A 
ATOM      4  C   UNL     1       3.137   4.852  -0.338  0.00  0.00    +0.000 A 
ATOM      5  C   UNL     1       3.913   5.924  -0.784  0.00  0.00    +0.000 A 
ATOM      6  C   UNL     1       5.024   5.691  -1.591  0.00  0.00    +0.000 A 
ATOM      7  C   UNL     1       5.356   4.386  -1.953  0.00  0.00    +0.000 A 
ATOM      8  C   UNL     1       4.573   3.315  -1.516  0.00  0.00    +0.000 A 
ATOM      9  O   UNL     1       4.987   2.075  -1.900  0.00  0.00    +0.000 OA
ATOM     10  C   UNL     1       4.101   0.946  -1.700  0.00  0.00    +0.000 C 
ENDROOT
BRANCH  10  11
ATOM     11  C   UNL     1       4.986  -0.225  -1.214  0.00  0.00    +0.000 A 
ATOM     12  C   UNL     1       6.086   0.003  -0.365  0.00  0.00    +0.000 A 
ATOM     13  C   UNL     1       6.875  -1.056   0.092  0.00  0.00    +0.000 A 
ATOM     14  C   UNL     1       6.573  -2.363  -0.281  0.00  0.00    +0.000 A 
ATOM     15  C   UNL     1       5.478  -2.615  -1.104  0.00  0.00    +0.000 A 
ATOM     16  C   UNL     1       4.689  -1.557  -1.562  0.00  0.00    +0.000 A 
ENDBRANCH  10  11
BRANCH   1  18
ATOM     17  C   UNL     1       1.153   0.160   0.554  0.00  0.00    +0.000 C 
ATOM     18  O   UNL     1       2.239   0.041  -0.354  0.00  0.00    +0.000 OA
ENDBRANCH   1  18
BRANCH  10  19
ATOM     19  O   UNL     1       3.447   0.602  -2.946  0.00  0.00    +0.000 OA
ATOM     20  C   UNL     1       4.283   0.704  -4.090  0.00  0.00    +0.000 C 
ENDBRANCH  10  19
TORSDOF 3
