REMARK  Name = *****
REMARK  3 active torsions:
REMARK  status: ('A' for Active; 'I' for Inactive)
REMARK    1  A    between atoms: C_7  and  C_10
REMARK    2  A    between atoms: C_10  and  C_11
REMARK    3  A    between atoms: C_10  and  O_16
REMARK                            x       y       z     vdW  Elec       q    Type
REMARK                         _______ _______ _______ _____ _____    ______ ____
ROOT
ATOM      1  C   UNL     1      -2.442  -0.466  -0.507  0.00  0.00    +0.000 A 
ATOM      2  C   UNL     1      -2.203   0.894  -0.389  0.00  0.00    +0.000 A 
ATOM      3  C   UNL     1      -0.924   1.362  -0.085  0.00  0.00    +0.000 A 
ATOM      4  C   UNL     1       0.121   0.434   0.099  0.00  0.00    +0.000 A 
ATOM      5  C   UNL     1      -0.088  -0.944  -0.015  0.00  0.00    +0.000 A 
ATOM      6  C   UNL     1      -1.403  -1.383  -0.324  0.00  0.00    +0.000 A 
ATOM      7  C   UNL     1       1.136  -1.696   0.210  0.00  0.00    +0.000 A 
ATOM      8  C   UNL     1       2.190  -0.849   0.504  0.00  0.00    +0.000 A 
ATOM      9  S   UNL     1       1.757   0.795   0.479  0.00  0.00    +0.000 S 
ENDROOT
BRANCH   7  10
ATOM     10  C   UNL     1       1.229  -3.204   0.152  0.00  0.00    +0.000 C 
BRANCH  10  11
ATOM     11  C   UNL     1       1.058  -3.756  -1.244  0.00  0.00    +0.000 A 
ATOM     12  C   UNL     1       1.535  -3.264  -2.447  0.00  0.00    +0.000 A 
ATOM     13  C   UNL     1       1.167  -4.078  -3.556  0.00  0.00    +0.000 A 
ATOM     14  C   UNL     1       0.426  -5.171  -3.169  0.00  0.00    +0.000 A 
ATOM     15  S   UNL     1       0.176  -5.212  -1.480  0.00  0.00    +0.000 S 
ENDBRANCH  10  11
BRANCH  10  16
ATOM     16  O   UNL     1       2.493  -3.682   0.622  0.00  0.00    +0.000 OA
ATOM     17  H   UNL     1       3.197  -3.364   0.036  0.00  0.00    +0.000 HD
ENDBRANCH  10  16
ENDBRANCH   7  10
TORSDOF 3
