REMARK  Name = *****
REMARK  3 active torsions:
REMARK  status: ('A' for Active; 'I' for Inactive)
REMARK    1  A    between atoms: C_1  and  O_2
REMARK    2  A    between atoms: O_2  and  C_3
REMARK    3  A    between atoms: C_7  and  C_9
REMARK                            x       y       z     vdW  Elec       q    Type
REMARK                         _______ _______ _______ _____ _____    ______ ____
ROOT
ATOM      1  C   UNL     1       6.856   2.116  -0.287  0.00  0.00    +0.000 C 
ATOM      2  C   UNL     1       7.464   2.787  -1.523  0.00  0.00    +0.000 C 
ATOM      3  C   UNL     1       7.768   4.249  -1.248  0.00  0.00    +0.000 C 
ATOM      4  C   UNL     1       8.530   4.369   0.037  0.00  0.00    +0.000 A 
ATOM      5  C   UNL     1       9.328   5.495   0.282  0.00  0.00    +0.000 A 
ATOM      6  C   UNL     1      10.030   5.617   1.482  0.00  0.00    +0.000 A 
ATOM      7  C   UNL     1       9.932   4.619   2.449  0.00  0.00    +0.000 A 
ATOM      8  C   UNL     1       9.128   3.504   2.218  0.00  0.00    +0.000 A 
ATOM      9  C   UNL     1       8.423   3.381   1.019  0.00  0.00    +0.000 A 
ATOM     10  O   UNL     1       7.647   2.261   0.902  0.00  0.00    +0.000 OA
ENDROOT
BRANCH   1  15
ATOM     11  C   UNL     1       3.636   3.775   1.032  0.00  0.00    +0.000 A 
ATOM     12  C   UNL     1       2.672   3.132   0.257  0.00  0.00    +0.000 A 
ATOM     13  C   UNL     1       3.057   2.168  -0.677  0.00  0.00    +0.000 A 
ATOM     14  C   UNL     1       4.404   1.846  -0.841  0.00  0.00    +0.000 A 
ATOM     15  C   UNL     1       5.392   2.478  -0.068  0.00  0.00    +0.000 A 
ATOM     16  C   UNL     1       4.985   3.443   0.867  0.00  0.00    +0.000 A 
BRANCH  11  18
ATOM     17  C   UNL     1       2.042   5.120   2.174  0.00  0.00    +0.000 C 
ATOM     18  O   UNL     1       3.396   4.738   1.975  0.00  0.00    +0.000 OA
ENDBRANCH  11  18
ENDBRANCH   1  15
TORSDOF 2
