REMARK  Name = *****
REMARK  3 active torsions:
REMARK  status: ('A' for Active; 'I' for Inactive)
REMARK    1  A    between atoms: C_1  and  O_2
REMARK    2  A    between atoms: O_2  and  C_3
REMARK    3  A    between atoms: C_3  and  C_15
REMARK                            x       y       z     vdW  Elec       q    Type
REMARK                         _______ _______ _______ _____ _____    ______ ____
ROOT
ATOM      1  C   UNL     1       2.852  -1.366  -2.588  0.00  0.00    +0.000 C 
ATOM      2  C   UNL     1       4.263  -1.129  -2.072  0.00  0.00    +0.000 C 
ATOM      3  C   UNL     1       5.336  -1.700  -2.646  0.00  0.00    +0.000 C 
ATOM      4  C   UNL     1       5.193  -2.696  -3.789  0.00  0.00    +0.000 C 
ATOM      5  C   UNL     1       5.988  -3.966  -3.423  0.00  0.00    +0.000 C 
ATOM      6  C   UNL     1       6.239  -4.925  -4.589  0.00  0.00    +0.000 C 
ATOM      7  C   UNL     1       7.528  -4.604  -5.344  0.00  0.00    +0.000 C 
ATOM      8  C   UNL     1       7.486  -3.346  -6.204  0.00  0.00    +0.000 C 
ATOM      9  C   UNL     1       7.065  -2.069  -5.478  0.00  0.00    +0.000 C 
ATOM     10  C   UNL     1       5.575  -2.057  -5.138  0.00  0.00    +0.000 C 
ATOM     11  O   UNL     1       3.805  -3.111  -3.858  0.00  0.00    +0.000 OA
ATOM     12  O   UNL     1       2.979  -1.893  -3.934  0.00  0.00    +0.000 OA
ENDROOT
BRANCH   1  13
ATOM     13  C   UNL     1       2.023  -0.086  -2.778  0.00  0.00    +0.000 A 
ATOM     14  C   UNL     1       2.623   1.162  -3.042  0.00  0.00    +0.000 A 
ATOM     15  C   UNL     1       1.845   2.305  -3.243  0.00  0.00    +0.000 A 
ATOM     16  C   UNL     1       0.460   2.210  -3.201  0.00  0.00    +0.000 A 
ATOM     17  C   UNL     1      -0.163   0.992  -2.972  0.00  0.00    +0.000 A 
ATOM     18  C   UNL     1       0.614  -0.151  -2.772  0.00  0.00    +0.000 A 
ATOM     19  F   UNL     1      -0.283   3.308  -3.395  0.00  0.00    +0.000 F 
ENDBRANCH   1  13
BRANCH   1  21
ATOM     20  C   UNL     1       2.134  -2.021  -0.369  0.00  0.00    +0.000 C 
ATOM     21  O   UNL     1       2.162  -2.314  -1.757  0.00  0.00    +0.000 OA
ENDBRANCH   1  21
TORSDOF 2
