REMARK  Name = *****
REMARK  4 active torsions:
REMARK  status: ('A' for Active; 'I' for Inactive)
REMARK    1  A    between atoms: C_1  and  C_2
REMARK    2  A    between atoms: C_3  and  C_20
REMARK    3  A    between atoms: N_9  and  N_12
REMARK    4  A    between atoms: C_13  and  C_14
REMARK                            x       y       z     vdW  Elec       q    Type
REMARK                         _______ _______ _______ _____ _____    ______ ____
ROOT
ATOM      1  C   UNL     1       1.430   0.058  -1.135  0.00  0.00    +0.000 C 
ATOM      2  C   UNL     1       2.610  -0.067  -0.224  0.00  0.00    +0.000 A 
ATOM      3  C   UNL     1       3.132  -1.261   0.254  0.00  0.00    +0.000 A 
ATOM      4  S   UNL     1       4.483  -1.013   1.276  0.00  0.00    +0.000 S 
ATOM      5  C   UNL     1       4.397   0.677   1.109  0.00  0.00    +0.000 A 
ATOM      6  C   UNL     1       3.363   1.056   0.280  0.00  0.00    +0.000 A 
ATOM      7  C   UNL     1       3.171   2.482   0.032  0.00  0.00    +0.000 A 
ATOM      8  O   UNL     1       2.251   2.903  -0.667  0.00  0.00    +0.000 OA
ATOM      9  N   UNL     1       4.152   3.285   0.636  0.00  0.00    +0.000 N 
ATOM     10  C   UNL     1       5.097   2.751   1.504  0.00  0.00    +0.000 A 
ATOM     11  N   UNL     1       5.269   1.491   1.756  0.00  0.00    +0.000 NA
ATOM     12  C   UNL     1       2.662  -2.654  -0.014  0.00  0.00    +0.000 C 
ENDROOT
BRANCH   9  13
ATOM     13  N   UNL     1       4.013   4.656   0.540  0.00  0.00    +0.000 NA
ATOM     14  C   UNL     1       5.009   5.376   0.112  0.00  0.00    +0.000 C 
BRANCH  14  15
ATOM     15  C   UNL     1       6.295   4.944  -0.468  0.00  0.00    +0.000 A 
ATOM     16  C   UNL     1       6.366   3.908  -1.403  0.00  0.00    +0.000 A 
ATOM     17  C   UNL     1       7.602   3.545  -1.937  0.00  0.00    +0.000 A 
ATOM     18  C   UNL     1       8.758   4.224  -1.550  0.00  0.00    +0.000 A 
ATOM     19  C   UNL     1       8.681   5.276  -0.636  0.00  0.00    +0.000 A 
ATOM     20  C   UNL     1       7.447   5.644  -0.098  0.00  0.00    +0.000 A 
ENDBRANCH  14  15
ENDBRANCH   9  13
TORSDOF 2
