REMARK  Name = *****
REMARK  6 active torsions:
REMARK  status: ('A' for Active; 'I' for Inactive)
REMARK    1  A    between atoms: C_1  and  C_2
REMARK    2  A    between atoms: C_2  and  C_3
REMARK    3  A    between atoms: C_2  and  C_4
REMARK    4  A    between atoms: C_2  and  C_5
REMARK    5  A    between atoms: C_9  and  C_11
REMARK    6  A    between atoms: C_9  and  O_17
REMARK                            x       y       z     vdW  Elec       q    Type
REMARK                         _______ _______ _______ _____ _____    ______ ____
ROOT
ATOM      1  C   UNL     1       2.915  -1.222  -0.416  0.00  0.00    +0.000 C 
ATOM      2  C   UNL     1       2.133  -2.491  -0.014  0.00  0.00    +0.000 C 
ATOM      3  C   UNL     1       2.763  -3.764  -0.574  0.00  0.00    +0.000 C 
ATOM      4  C   UNL     1       4.219  -3.914  -0.143  0.00  0.00    +0.000 C 
ATOM      5  C   UNL     1       5.072  -2.673  -0.473  0.00  0.00    +0.000 C 
ATOM      6  C   UNL     1       4.395  -1.371   0.023  0.00  0.00    +0.000 C 
ENDROOT
BRANCH   5   7
ATOM      7  C   UNL     1       6.477  -2.806   0.128  0.00  0.00    +0.000 A 
ATOM      8  C   UNL     1       7.628  -2.801  -0.680  0.00  0.00    +0.000 A 
ATOM      9  C   UNL     1       8.905  -2.919  -0.125  0.00  0.00    +0.000 A 
ATOM     10  C   UNL     1       9.060  -3.045   1.252  0.00  0.00    +0.000 A 
ATOM     11  C   UNL     1       7.938  -3.052   2.075  0.00  0.00    +0.000 A 
ATOM     12  C   UNL     1       6.661  -2.933   1.519  0.00  0.00    +0.000 A 
ENDBRANCH   5   7
BRANCH   1  14
ATOM     13  C   UNL     1       2.138   0.200   1.616  0.00  0.00    +0.000 C 
ATOM     14  C   UNL     1       2.242   0.115   0.081  0.00  0.00    +0.000 C 
ATOM     15  C   UNL     1       0.816   0.244  -0.502  0.00  0.00    +0.000 C 
ATOM     16  C   UNL     1       3.046   1.338  -0.414  0.00  0.00    +0.000 C 
ENDBRANCH   1  14
BRANCH   5  17
ATOM     17  O   UNL     1       5.196  -2.589  -1.902  0.00  0.00    +0.000 OA
ATOM     18  H   UNL     1       4.315  -2.504  -2.299  0.00  0.00    +0.000 HD
ENDBRANCH   5  17
TORSDOF 3
