REMARK  Name = *****
REMARK  1 active torsions:
REMARK  status: ('A' for Active; 'I' for Inactive)
REMARK    1  A    between atoms: C_2  and  C_13
REMARK                            x       y       z     vdW  Elec       q    Type
REMARK                         _______ _______ _______ _____ _____    ______ ____
ROOT
ATOM      1  C   UNL     1      -2.460   0.580  -0.423  0.00  0.00    +0.000 C 
ATOM      2  C   UNL     1      -2.214  -0.605   0.506  0.00  0.00    +0.000 C 
ATOM      3  O   UNL     1      -1.035  -1.327   0.091  0.00  0.00    +0.000 OA
ATOM      4  C   UNL     1       0.085  -0.549  -0.029  0.00  0.00    +0.000 A 
ATOM      5  C   UNL     1       0.050   0.828  -0.248  0.00  0.00    +0.000 A 
ATOM      6  C   UNL     1      -1.259   1.483  -0.418  0.00  0.00    +0.000 C 
ATOM      7  O   UNL     1      -1.344   2.691  -0.611  0.00  0.00    +0.000 OA
ATOM      8  C   UNL     1       1.232   1.566  -0.347  0.00  0.00    +0.000 A 
ATOM      9  C   UNL     1       2.454   0.906  -0.238  0.00  0.00    +0.000 A 
ATOM     10  C   UNL     1       2.500  -0.475  -0.040  0.00  0.00    +0.000 A 
ATOM     11  C   UNL     1       1.312  -1.205   0.060  0.00  0.00    +0.000 A 
ATOM     12 CL   UNL     1       3.921   1.797  -0.360  0.00  0.00    +0.000 Cl
ENDROOT
BRANCH   2  13
ATOM     13  C   UNL     1      -2.192  -0.356   2.012  0.00  0.00    +0.000 A 
ATOM     14  C   UNL     1      -2.510   0.881   2.595  0.00  0.00    +0.000 A 
ATOM     15  C   UNL     1      -2.486   1.045   3.984  0.00  0.00    +0.000 A 
ATOM     16  C   UNL     1      -2.153  -0.024   4.812  0.00  0.00    +0.000 A 
ATOM     17  C   UNL     1      -1.847  -1.261   4.255  0.00  0.00    +0.000 A 
ATOM     18  C   UNL     1      -1.871  -1.426   2.869  0.00  0.00    +0.000 A 
ENDBRANCH   2  13
TORSDOF 1
