REMARK  Name = *****
REMARK  3 active torsions:
REMARK  status: ('A' for Active; 'I' for Inactive)
REMARK    1  A    between atoms: C_9  and  C_11
REMARK    2  A    between atoms: C_11  and  C_12
REMARK    3  A    between atoms: C_11  and  O_18
REMARK                            x       y       z     vdW  Elec       q    Type
REMARK                         _______ _______ _______ _____ _____    ______ ____
ROOT
ATOM      1  C   UNL     1      -1.249   1.257   0.398  0.00  0.00    +0.000 C 
ATOM      2  C   UNL     1      -1.498   0.934  -1.042  0.00  0.00    +0.000 C 
ATOM      3  C   UNL     1      -0.521   0.204  -1.591  0.00  0.00    +0.000 C 
ATOM      4  C   UNL     1       0.563  -0.116  -0.615  0.00  0.00    +0.000 C 
ATOM      5  C   UNL     1       0.095   0.589   0.700  0.00  0.00    +0.000 C 
ATOM      6  C   UNL     1       1.299   1.506   1.030  0.00  0.00    +0.000 C 
ATOM      7  C   UNL     1       2.461   0.590   0.614  0.00  0.00    +0.000 C 
ATOM      8  C   UNL     1       1.982   0.480  -0.843  0.00  0.00    +0.000 C 
ATOM      9  C   UNL     1       1.905   1.965  -1.147  0.00  0.00    +0.000 C 
ATOM     10  C   UNL     1       1.475   2.573  -0.026  0.00  0.00    +0.000 C 
ENDROOT
BRANCH   9  11
ATOM     11  C   UNL     1       2.223   2.561  -2.476  0.00  0.00    +0.000 C 
BRANCH  11  12
ATOM     12  C   UNL     1       3.715   2.703  -2.717  0.00  0.00    +0.000 A 
ATOM     13  C   UNL     1       4.484   1.641  -3.223  0.00  0.00    +0.000 A 
ATOM     14  C   UNL     1       5.857   1.787  -3.424  0.00  0.00    +0.000 A 
ATOM     15  C   UNL     1       6.483   2.993  -3.116  0.00  0.00    +0.000 A 
ATOM     16  C   UNL     1       5.737   4.052  -2.603  0.00  0.00    +0.000 A 
ATOM     17  C   UNL     1       4.363   3.907  -2.401  0.00  0.00    +0.000 A 
ENDBRANCH  11  12
BRANCH  11  18
ATOM     18  O   UNL     1       1.622   1.776  -3.502  0.00  0.00    +0.000 OA
ATOM     19  H   UNL     1       1.992   0.879  -3.482  0.00  0.00    +0.000 HD
ENDBRANCH  11  18
ENDBRANCH   9  11
TORSDOF 3
