REMARK  Name = *****
REMARK  6 active torsions:
REMARK  status: ('A' for Active; 'I' for Inactive)
REMARK    1  A    between atoms: C_1  and  C_2
REMARK    2  A    between atoms: C_2  and  C_3
REMARK    3  A    between atoms: C_12  and  C_13
REMARK    4  A    between atoms: C_12  and  O_20
REMARK    5  A    between atoms: C_16  and  O_19
REMARK    6  A    between atoms: O_20  and  C_21
REMARK                            x       y       z     vdW  Elec       q    Type
REMARK                         _______ _______ _______ _____ _____    ______ ____
ROOT
ATOM      1  C   UNL     1       2.894   0.371  -1.282  0.00  0.00    +0.000 C 
ATOM      2  C   UNL     1       3.142   1.662  -1.564  0.00  0.00    +0.000 C 
ATOM      3  C   UNL     1       3.662   2.010  -2.874  0.00  0.00    +0.000 A 
ATOM      4  C   UNL     1       3.808   3.348  -3.257  0.00  0.00    +0.000 A 
ATOM      5  C   UNL     1       4.333   3.668  -4.511  0.00  0.00    +0.000 A 
ATOM      6  C   UNL     1       4.720   2.653  -5.384  0.00  0.00    +0.000 A 
ATOM      7  C   UNL     1       4.578   1.319  -5.002  0.00  0.00    +0.000 A 
ATOM      8  C   UNL     1       4.041   1.000  -3.753  0.00  0.00    +0.000 A 
ATOM      9  O   UNL     1       3.961  -0.326  -3.452  0.00  0.00    +0.000 OA
ATOM     10  C   UNL     1       3.173  -0.741  -2.308  0.00  0.00    +0.000 C 
ENDROOT
BRANCH  10  11
ATOM     11  C   UNL     1       3.978  -1.887  -1.658  0.00  0.00    +0.000 A 
ATOM     12  C   UNL     1       5.362  -1.736  -1.429  0.00  0.00    +0.000 A 
ATOM     13  C   UNL     1       6.109  -2.749  -0.821  0.00  0.00    +0.000 A 
ATOM     14  C   UNL     1       5.477  -3.922  -0.428  0.00  0.00    +0.000 A 
ATOM     15  C   UNL     1       4.114  -4.096  -0.629  0.00  0.00    +0.000 A 
ATOM     16  C   UNL     1       3.368  -3.084  -1.237  0.00  0.00    +0.000 A 
BRANCH  14  17
ATOM     17  O   UNL     1       6.166  -4.936   0.169  0.00  0.00    +0.000 OA
ATOM     18  H   UNL     1       7.087  -4.851   0.320  0.00  0.00    +0.000 HD
ENDBRANCH  14  17
ENDBRANCH  10  11
BRANCH   1  20
ATOM     19  C   UNL     1       0.852  -0.403   0.034  0.00  0.00    +0.000 C 
ATOM     20  C   UNL     1       2.316   0.011   0.074  0.00  0.00    +0.000 C 
ENDBRANCH   1  20
BRANCH  10  21
ATOM     21  O   UNL     1       1.873  -1.204  -2.728  0.00  0.00    +0.000 OA
ATOM     22  C   UNL     1       1.853  -1.832  -4.002  0.00  0.00    +0.000 C 
ENDBRANCH  10  21
TORSDOF 4
