REMARK  Name = *****
REMARK  1 active torsions:
REMARK  status: ('A' for Active; 'I' for Inactive)
REMARK    1  A    between atoms: C_11  and  C_12
REMARK                            x       y       z     vdW  Elec       q    Type
REMARK                         _______ _______ _______ _____ _____    ______ ____
ROOT
ATOM      1  C   UNL     1      -2.454   0.639  -0.398  0.00  0.00    +0.000 C 
ATOM      2  C   UNL     1      -1.272   1.523  -0.032  0.00  0.00    +0.000 C 
ATOM      3  C   UNL     1      -0.001   0.723   0.000  0.00  0.00    +0.000 A 
ATOM      4  C   UNL     1      -0.036  -0.675   0.080  0.00  0.00    +0.000 A 
ATOM      5  C   UNL     1       1.147  -1.413   0.093  0.00  0.00    +0.000 A 
ATOM      6  C   UNL     1       2.372  -0.753   0.058  0.00  0.00    +0.000 A 
ATOM      7  C   UNL     1       2.424   0.639   0.005  0.00  0.00    +0.000 A 
ATOM      8  C   UNL     1       1.238   1.376  -0.023  0.00  0.00    +0.000 A 
ATOM      9 CL   UNL     1       3.835  -1.660   0.084  0.00  0.00    +0.000 Cl
ATOM     10  O   UNL     1      -1.195  -1.402   0.110  0.00  0.00    +0.000 OA
ATOM     11  C   UNL     1      -2.378  -0.649   0.423  0.00  0.00    +0.000 C 
ENDROOT
BRANCH  11  12
ATOM     12  C   UNL     1      -3.597  -1.517   0.162  0.00  0.00    +0.000 A 
ATOM     13  C   UNL     1      -4.686  -1.485   1.047  0.00  0.00    +0.000 A 
ATOM     14  C   UNL     1      -5.823  -2.258   0.804  0.00  0.00    +0.000 A 
ATOM     15  C   UNL     1      -5.887  -3.069  -0.327  0.00  0.00    +0.000 A 
ATOM     16  C   UNL     1      -4.816  -3.108  -1.217  0.00  0.00    +0.000 A 
ATOM     17  C   UNL     1      -3.679  -2.335  -0.976  0.00  0.00    +0.000 A 
ENDBRANCH  11  12
TORSDOF 1
