REMARK  Name = *****
REMARK  1 active torsions:
REMARK  status: ('A' for Active; 'I' for Inactive)
REMARK    1  A    between atoms: C_2  and  C_12
REMARK                            x       y       z     vdW  Elec       q    Type
REMARK                         _______ _______ _______ _____ _____    ______ ____
ROOT
ATOM      1  C   UNL     1      -1.204   1.572   0.077  0.00  0.00    +0.000 C 
ATOM      2  C   UNL     1      -2.424   0.720  -0.291  0.00  0.00    +0.000 C 
ATOM      3  C   UNL     1      -2.319  -0.615   0.451  0.00  0.00    +0.000 C 
ATOM      4  O   UNL     1      -1.167  -1.364   0.044  0.00  0.00    +0.000 OA
ATOM      5  C   UNL     1      -0.000  -0.649   0.019  0.00  0.00    +0.000 A 
ATOM      6  C   UNL     1       0.054   0.750   0.021  0.00  0.00    +0.000 A 
ATOM      7  C   UNL     1       1.304   1.385  -0.005  0.00  0.00    +0.000 A 
ATOM      8  C   UNL     1       2.474   0.627  -0.060  0.00  0.00    +0.000 A 
ATOM      9  C   UNL     1       2.414  -0.764  -0.087  0.00  0.00    +0.000 A 
ATOM     10  C   UNL     1       1.174  -1.401  -0.050  0.00  0.00    +0.000 A 
ATOM     11 CL   UNL     1       4.002   1.418  -0.099  0.00  0.00    +0.000 Cl
ENDROOT
BRANCH   2  12
ATOM     12  C   UNL     1      -3.730   1.448  -0.032  0.00  0.00    +0.000 A 
ATOM     13  C   UNL     1      -4.545   1.817  -1.114  0.00  0.00    +0.000 A 
ATOM     14  C   UNL     1      -5.751   2.490  -0.902  0.00  0.00    +0.000 A 
ATOM     15  C   UNL     1      -6.151   2.803   0.393  0.00  0.00    +0.000 A 
ATOM     16  C   UNL     1      -5.355   2.449   1.479  0.00  0.00    +0.000 A 
ATOM     17  C   UNL     1      -4.149   1.775   1.268  0.00  0.00    +0.000 A 
ATOM     18 CL   UNL     1      -7.635   3.633   0.655  0.00  0.00    +0.000 Cl
ENDBRANCH   2  12
TORSDOF 1
