REMARK  Name = *****
REMARK  3 active torsions:
REMARK  status: ('A' for Active; 'I' for Inactive)
REMARK    1  A    between atoms: C_6  and  O_9
REMARK    2  A    between atoms: O_9  and  C_10
REMARK    3  A    between atoms: C_10  and  C_11
REMARK                            x       y       z     vdW  Elec       q    Type
REMARK                         _______ _______ _______ _____ _____    ______ ____
ROOT
ATOM      1  C   UNL     1       2.023  -1.650   0.122  0.00  0.00    +0.000 C 
ATOM      2  C   UNL     1       0.651  -2.053  -0.405  0.00  0.00    +0.000 C 
ATOM      3  C   UNL     1      -0.381  -1.004  -0.088  0.00  0.00    +0.000 A 
ATOM      4  C   UNL     1      -0.028   0.345   0.061  0.00  0.00    +0.000 A 
ATOM      5  C   UNL     1      -1.008   1.306   0.337  0.00  0.00    +0.000 A 
ATOM      6  C   UNL     1      -2.349   0.937   0.461  0.00  0.00    +0.000 A 
ATOM      7  C   UNL     1      -2.708  -0.400   0.294  0.00  0.00    +0.000 A 
ATOM      8  C   UNL     1      -1.731  -1.364   0.017  0.00  0.00    +0.000 A 
ATOM      9  C   UNL     1       1.390   0.773  -0.080  0.00  0.00    +0.000 C 
ATOM     10  O   UNL     1       1.696   1.959   0.011  0.00  0.00    +0.000 OA
ATOM     11  C   UNL     1       2.422  -0.283  -0.410  0.00  0.00    +0.000 C 
ENDROOT
BRANCH   6  12
ATOM     12  O   UNL     1      -3.200   1.970   0.736  0.00  0.00    +0.000 OA
BRANCH  12  13
ATOM     13  C   UNL     1      -4.569   1.644   0.978  0.00  0.00    +0.000 C 
BRANCH  13  14
ATOM     14  C   UNL     1      -5.317   2.895   1.385  0.00  0.00    +0.000 A 
ATOM     15  C   UNL     1      -6.586   3.169   0.849  0.00  0.00    +0.000 A 
ATOM     16  C   UNL     1      -7.292   4.304   1.251  0.00  0.00    +0.000 A 
ATOM     17  C   UNL     1      -6.737   5.161   2.194  0.00  0.00    +0.000 A 
ATOM     18  C   UNL     1      -5.488   4.904   2.745  0.00  0.00    +0.000 A 
ATOM     19  C   UNL     1      -4.781   3.769   2.345  0.00  0.00    +0.000 A 
ATOM     20  F   UNL     1      -7.418   6.248   2.579  0.00  0.00    +0.000 F 
ENDBRANCH  13  14
ENDBRANCH  12  13
ENDBRANCH   6  12
TORSDOF 3
