REMARK  Name = *****
REMARK  1 active torsions:
REMARK  status: ('A' for Active; 'I' for Inactive)
REMARK    1  A    between atoms: C_2  and  C_12
REMARK                            x       y       z     vdW  Elec       q    Type
REMARK                         _______ _______ _______ _____ _____    ______ ____
ROOT
ATOM      1  C   UNL     1      -2.266   0.171  -0.478  0.00  0.00    +0.000 C 
ATOM      2  C   UNL     1      -1.818   1.312   0.429  0.00  0.00    +0.000 C 
ATOM      3  O   UNL     1      -0.513   1.787   0.040  0.00  0.00    +0.000 OA
ATOM      4  C   UNL     1       0.440   0.806  -0.046  0.00  0.00    +0.000 A 
ATOM      5  C   UNL     1       1.768   1.216   0.057  0.00  0.00    +0.000 A 
ATOM      6  C   UNL     1       2.797   0.273  -0.010  0.00  0.00    +0.000 A 
ATOM      7  C   UNL     1       2.499  -1.079  -0.188  0.00  0.00    +0.000 A 
ATOM      8  C   UNL     1       1.172  -1.491  -0.310  0.00  0.00    +0.000 A 
ATOM      9  C   UNL     1       0.147  -0.542  -0.246  0.00  0.00    +0.000 A 
ATOM     10  C   UNL     1      -1.260  -0.943  -0.427  0.00  0.00    +0.000 C 
ATOM     11  O   UNL     1      -1.573  -2.118  -0.587  0.00  0.00    +0.000 OA
ENDROOT
BRANCH   2  12
ATOM     12  C   UNL     1      -1.886   1.114   1.942  0.00  0.00    +0.000 A 
ATOM     13  C   UNL     1      -2.388  -0.048   2.549  0.00  0.00    +0.000 A 
ATOM     14  C   UNL     1      -2.433  -0.165   3.943  0.00  0.00    +0.000 A 
ATOM     15  C   UNL     1      -1.984   0.880   4.746  0.00  0.00    +0.000 A 
ATOM     16  C   UNL     1      -1.492   2.045   4.167  0.00  0.00    +0.000 A 
ATOM     17  C   UNL     1      -1.446   2.161   2.776  0.00  0.00    +0.000 A 
ATOM     18 CL   UNL     1      -2.043   0.732   6.458  0.00  0.00    +0.000 Cl
ENDBRANCH   2  12
TORSDOF 1
