REMARK  Name = *****
REMARK  3 active torsions:
REMARK  status: ('A' for Active; 'I' for Inactive)
REMARK    1  A    between atoms: C_1  and  C_2
REMARK    2  A    between atoms: N_9  and  N_12
REMARK    3  A    between atoms: C_13  and  C_14
REMARK                            x       y       z     vdW  Elec       q    Type
REMARK                         _______ _______ _______ _____ _____    ______ ____
ROOT
ATOM      1  C   UNL     1       0.950  -0.140   1.075  0.00  0.00    +0.000 C 
ATOM      2  C   UNL     1       2.311  -0.118   0.442  0.00  0.00    +0.000 A 
ATOM      3  C   UNL     1       3.242  -1.123   0.739  0.00  0.00    +0.000 A 
ATOM      4  C   UNL     1       4.503  -1.051   0.159  0.00  0.00    +0.000 A 
ATOM      5  C   UNL     1       4.865  -0.005  -0.683  0.00  0.00    +0.000 A 
ATOM      6  C   UNL     1       3.962   1.004  -0.972  0.00  0.00    +0.000 A 
ATOM      7  C   UNL     1       2.684   0.946  -0.404  0.00  0.00    +0.000 A 
ATOM      8  S   UNL     1       6.530  -0.163  -1.252  0.00  0.00    +0.000 S 
ATOM      9  N   UNL     1       6.682  -1.683  -0.472  0.00  0.00    +0.000 N 
ATOM     10  C   UNL     1       5.602  -2.012   0.367  0.00  0.00    +0.000 A 
ATOM     11  O   UNL     1       5.511  -2.918   1.184  0.00  0.00    +0.000 OA
ENDROOT
BRANCH   9  12
ATOM     12  N   UNL     1       7.944  -2.132  -0.227  0.00  0.00    +0.000 NA
ATOM     13  C   UNL     1       8.165  -3.414  -0.219  0.00  0.00    +0.000 C 
BRANCH  13  14
ATOM     14  C   UNL     1       7.299  -4.518  -0.680  0.00  0.00    +0.000 A 
ATOM     15  C   UNL     1       6.557  -4.414  -1.861  0.00  0.00    +0.000 A 
ATOM     16  C   UNL     1       5.777  -5.493  -2.286  0.00  0.00    +0.000 A 
ATOM     17  C   UNL     1       5.755  -6.670  -1.537  0.00  0.00    +0.000 A 
ATOM     18  C   UNL     1       6.513  -6.783  -0.371  0.00  0.00    +0.000 A 
ATOM     19  C   UNL     1       7.296  -5.707   0.055  0.00  0.00    +0.000 A 
ATOM     20 CL   UNL     1       4.795  -7.997  -2.063  0.00  0.00    +0.000 Cl
ENDBRANCH  13  14
ENDBRANCH   9  12
TORSDOF 2
