REMARK  Name = *****
REMARK  4 active torsions:
REMARK  status: ('A' for Active; 'I' for Inactive)
REMARK    1  A    between atoms: C_1  and  C_2
REMARK    2  A    between atoms: C_11  and  C_13
REMARK    3  A    between atoms: C_13  and  C_14
REMARK    4  A    between atoms: C_14  and  C_16
REMARK                            x       y       z     vdW  Elec       q    Type
REMARK                         _______ _______ _______ _____ _____    ______ ____
ROOT
ATOM      1  C   UNL     1       0.969  -0.718  -1.200  0.00  0.00    +0.000 C 
ATOM      2  C   UNL     1       2.334  -0.295  -0.716  0.00  0.00    +0.000 C 
ATOM      3  C   UNL     1       2.960  -0.997   0.244  0.00  0.00    +0.000 C 
ATOM      4  C   UNL     1       4.304  -0.808   0.824  0.00  0.00    +0.000 A 
ATOM      5  C   UNL     1       4.668  -1.742   1.819  0.00  0.00    +0.000 A 
ATOM      6  C   UNL     1       5.931  -1.733   2.418  0.00  0.00    +0.000 A 
ATOM      7  C   UNL     1       6.869  -0.790   2.028  0.00  0.00    +0.000 A 
ATOM      8  C   UNL     1       6.531   0.145   1.053  0.00  0.00    +0.000 A 
ATOM      9  C   UNL     1       5.255   0.158   0.466  0.00  0.00    +0.000 A 
ATOM     10  O   UNL     1       5.122   1.155  -0.457  0.00  0.00    +0.000 OA
ATOM     11  C   UNL     1       3.847   1.792  -0.604  0.00  0.00    +0.000 C 
ATOM     12  C   UNL     1       2.885   0.919  -1.413  0.00  0.00    +0.000 C 
ENDROOT
BRANCH  11  13
ATOM     13  C   UNL     1       3.304   2.372   0.713  0.00  0.00    +0.000 C 
BRANCH  13  14
ATOM     14  C   UNL     1       2.187   3.374   0.493  0.00  0.00    +0.000 C 
ATOM     15  O   UNL     1       1.960   3.876  -0.606  0.00  0.00    +0.000 OA
BRANCH  14  16
ATOM     16  C   UNL     1       1.343   3.771   1.661  0.00  0.00    +0.000 A 
ATOM     17  C   UNL     1       1.696   3.463   2.980  0.00  0.00    +0.000 A 
ATOM     18  C   UNL     1       0.868   3.853   4.037  0.00  0.00    +0.000 A 
ATOM     19  C   UNL     1      -0.311   4.553   3.783  0.00  0.00    +0.000 A 
ATOM     20  C   UNL     1      -0.665   4.869   2.473  0.00  0.00    +0.000 A 
ATOM     21  C   UNL     1       0.160   4.482   1.415  0.00  0.00    +0.000 A 
ENDBRANCH  14  16
ENDBRANCH  13  14
ENDBRANCH  11  13
TORSDOF 3
