REMARK  Name = *****
REMARK  5 active torsions:
REMARK  status: ('A' for Active; 'I' for Inactive)
REMARK    1  A    between atoms: C_1  and  N_2
REMARK    2  A    between atoms: N_2  and  C_3
REMARK    3  A    between atoms: N_2  and  S_11
REMARK    4  A    between atoms: C_3  and  C_4
REMARK    5  A    between atoms: S_11  and  C_14
REMARK                            x       y       z     vdW  Elec       q    Type
REMARK                         _______ _______ _______ _____ _____    ______ ____
ROOT
ATOM      1  C   UNL     1       0.868  -0.100   0.453  0.00  0.00    +0.000 C 
ATOM      2  N   UNL     1       2.339   0.022   0.299  0.00  0.00    +0.000 NA
ENDROOT
BRANCH   2   3
ATOM      3  S   UNL     1       3.229  -0.293   1.727  0.00  0.00    +0.000 S 
ATOM      4  O   UNL     1       4.639  -0.198   1.414  0.00  0.00    +0.000 OA
ATOM      5  O   UNL     1       2.640   0.509   2.780  0.00  0.00    +0.000 OA
BRANCH   3   6
ATOM      6  C   UNL     1       2.881  -2.002   2.049  0.00  0.00    +0.000 A 
ATOM      7  C   UNL     1       3.319  -2.965   1.134  0.00  0.00    +0.000 A 
ATOM      8  C   UNL     1       3.053  -4.312   1.377  0.00  0.00    +0.000 A 
ATOM      9  C   UNL     1       2.359  -4.689   2.529  0.00  0.00    +0.000 A 
ATOM     10  C   UNL     1       1.931  -3.723   3.443  0.00  0.00    +0.000 A 
ATOM     11  C   UNL     1       2.194  -2.374   3.208  0.00  0.00    +0.000 A 
ENDBRANCH   3   6
ENDBRANCH   2   3
BRANCH   2  12
ATOM     12  C   UNL     1       2.726   1.324  -0.317  0.00  0.00    +0.000 C 
BRANCH  12  13
ATOM     13  C   UNL     1       2.303   1.440  -1.767  0.00  0.00    +0.000 A 
ATOM     14  C   UNL     1       1.487   2.498  -2.194  0.00  0.00    +0.000 A 
ATOM     15  C   UNL     1       1.107   2.601  -3.535  0.00  0.00    +0.000 A 
ATOM     16  C   UNL     1       1.544   1.650  -4.455  0.00  0.00    +0.000 A 
ATOM     17  C   UNL     1       2.360   0.597  -4.047  0.00  0.00    +0.000 A 
ATOM     18  C   UNL     1       2.740   0.494  -2.708  0.00  0.00    +0.000 A 
ATOM     19 CL   UNL     1       1.073   1.777  -6.104  0.00  0.00    +0.000 Cl
ENDBRANCH  12  13
ENDBRANCH   2  12
TORSDOF 4
