REMARK  Name = *****
REMARK  5 active torsions:
REMARK  status: ('A' for Active; 'I' for Inactive)
REMARK    1  A    between atoms: C_1  and  C_2
REMARK    2  A    between atoms: C_7  and  C_8
REMARK    3  A    between atoms: C_8  and  O_21
REMARK    4  A    between atoms: C_9  and  C_19
REMARK    5  A    between atoms: C_9  and  C_20
REMARK                            x       y       z     vdW  Elec       q    Type
REMARK                         _______ _______ _______ _____ _____    ______ ____
ROOT
ATOM      1  C   UNL     1       0.320  -1.576  -0.218  0.00  0.00    +0.000 C 
ATOM      2  C   UNL     1      -1.220  -1.311  -0.280  0.00  0.00    +0.000 C 
ATOM      3  C   UNL     1      -1.919  -2.667  -0.191  0.00  0.00    +0.000 C 
ATOM      4  O   UNL     1      -3.060  -2.809   0.249  0.00  0.00    +0.000 OA
ATOM      5  C   UNL     1      -1.225  -3.833  -0.771  0.00  0.00    +0.000 A 
ATOM      6  C   UNL     1      -1.863  -5.076  -0.851  0.00  0.00    +0.000 A 
ATOM      7  C   UNL     1      -1.216  -6.150  -1.463  0.00  0.00    +0.000 A 
ATOM      8  C   UNL     1       0.060  -5.979  -2.001  0.00  0.00    +0.000 A 
ATOM      9  C   UNL     1       0.693  -4.738  -1.916  0.00  0.00    +0.000 A 
ATOM     10  C   UNL     1       0.055  -3.669  -1.287  0.00  0.00    +0.000 A 
ATOM     11  O   UNL     1       0.741  -2.490  -1.242  0.00  0.00    +0.000 OA
ATOM     12  C   UNL     1      -1.735  -0.443   0.888  0.00  0.00    +0.000 C 
ATOM     13  C   UNL     1      -1.682  -0.672  -1.602  0.00  0.00    +0.000 C 
ENDROOT
BRANCH   1  20
ATOM     14  C   UNL     1       1.720  -0.507  -2.843  0.00  0.00    +0.000 C 
ATOM     15  C   UNL     1       1.790   0.193  -1.510  0.00  0.00    +0.000 A 
ATOM     16  C   UNL     1       2.560   1.376  -1.465  0.00  0.00    +0.000 A 
ATOM     17  C   UNL     1       2.726   2.095  -0.286  0.00  0.00    +0.000 A 
ATOM     18  C   UNL     1       2.134   1.642   0.881  0.00  0.00    +0.000 A 
ATOM     19  C   UNL     1       1.378   0.470   0.861  0.00  0.00    +0.000 A 
ATOM     20  C   UNL     1       1.181  -0.289  -0.322  0.00  0.00    +0.000 A 
ENDBRANCH   1  20
BRANCH   1  21
ATOM     21  O   UNL     1       0.641  -2.193   1.042  0.00  0.00    +0.000 OA
ATOM     22  H   UNL     1       0.372  -1.607   1.766  0.00  0.00    +0.000 HD
ENDBRANCH   1  21
TORSDOF 2
