REMARK  Name = *****
REMARK  3 active torsions:
REMARK  status: ('A' for Active; 'I' for Inactive)
REMARK    1  A    between atoms: C_1  and  C_2
REMARK    2  A    between atoms: C_2  and  C_3
REMARK    3  A    between atoms: C_5  and  C_13
REMARK                            x       y       z     vdW  Elec       q    Type
REMARK                         _______ _______ _______ _____ _____    ______ ____
ROOT
ATOM      1  C   UNL     1       3.059   1.091   0.849  0.00  0.00    +0.000 C 
ATOM      2  C   UNL     1       2.285   2.282   0.269  0.00  0.00    +0.000 C 
ATOM      3  C   UNL     1       2.964   3.593   0.674  0.00  0.00    +0.000 C 
ATOM      4  O   UNL     1       4.308   3.686   0.185  0.00  0.00    +0.000 OA
ATOM      5  C   UNL     1       5.045   2.534   0.217  0.00  0.00    +0.000 A 
ATOM      6  C   UNL     1       6.393   2.681  -0.115  0.00  0.00    +0.000 A 
ATOM      7  C   UNL     1       7.232   1.570  -0.169  0.00  0.00    +0.000 A 
ATOM      8  C   UNL     1       6.719   0.304   0.098  0.00  0.00    +0.000 A 
ATOM      9  C   UNL     1       5.370   0.152   0.424  0.00  0.00    +0.000 A 
ATOM     10  C   UNL     1       4.519   1.267   0.500  0.00  0.00    +0.000 A 
ENDROOT
BRANCH   3  11
ATOM     11  C   UNL     1       2.169   4.779   0.149  0.00  0.00    +0.000 A 
ATOM     12  C   UNL     1       1.248   5.432   0.983  0.00  0.00    +0.000 A 
ATOM     13  C   UNL     1       0.492   6.504   0.505  0.00  0.00    +0.000 A 
ATOM     14  C   UNL     1       0.645   6.934  -0.812  0.00  0.00    +0.000 A 
ATOM     15  C   UNL     1       1.552   6.292  -1.652  0.00  0.00    +0.000 A 
ATOM     16  C   UNL     1       2.307   5.219  -1.176  0.00  0.00    +0.000 A 
ENDBRANCH   3  11
BRANCH   1  18
ATOM     17  C   UNL     1       3.230  -0.379   2.958  0.00  0.00    +0.000 C 
ATOM     18  C   UNL     1       2.816   0.965   2.371  0.00  0.00    +0.000 C 
ENDBRANCH   1  18
TORSDOF 2
