REMARK  Name = *****
REMARK  1 active torsions:
REMARK  status: ('A' for Active; 'I' for Inactive)
REMARK    1  A    between atoms: C_4  and  P_7
REMARK                            x       y       z     vdW  Elec       q    Type
REMARK                         _______ _______ _______ _____ _____    ______ ____
ROOT
ATOM      1  P   UNL     1       2.785  -0.925  -0.958  0.00  0.00    +0.000 P 
ATOM      2  O   UNL     1       3.405  -2.095  -0.251  0.00  0.00    +0.000 OA
ATOM      3  N   UNL     1       3.682   0.449  -1.165  0.00  0.00    +0.000 N 
ATOM      4  C   UNL     1       3.935   0.719  -2.531  0.00  0.00    +0.000 A 
ATOM      5  C   UNL     1       4.734   1.788  -2.929  0.00  0.00    +0.000 A 
ATOM      6  C   UNL     1       4.894   2.061  -4.290  0.00  0.00    +0.000 A 
ATOM      7  C   UNL     1       4.243   1.279  -5.250  0.00  0.00    +0.000 A 
ATOM      8  C   UNL     1       3.422   0.220  -4.859  0.00  0.00    +0.000 A 
ATOM      9  C   UNL     1       3.262  -0.053  -3.503  0.00  0.00    +0.000 A 
ATOM     10  S   UNL     1       2.238  -1.399  -2.919  0.00  0.00    +0.000 S 
ATOM     11  H   UNL     1       4.003   1.013  -0.424  0.00  0.00    +0.000 HD
ENDROOT
BRANCH   1  15
ATOM     12  C   UNL     1      -1.491   0.381   0.444  0.00  0.00    +0.000 C 
ATOM     13  C   UNL     1      -0.800  -0.780   1.151  0.00  0.00    +0.000 C 
ATOM     14  C   UNL     1       0.367  -1.322   0.332  0.00  0.00    +0.000 C 
ATOM     15  C   UNL     1       1.378  -0.225  -0.040  0.00  0.00    +0.000 C 
ATOM     16  C   UNL     1       0.665   0.940  -0.742  0.00  0.00    +0.000 C 
ATOM     17  C   UNL     1      -0.500   1.481   0.082  0.00  0.00    +0.000 C 
ENDBRANCH   1  15
TORSDOF 1
