REMARK  Name = *****
REMARK  2 active torsions:
REMARK  status: ('A' for Active; 'I' for Inactive)
REMARK    1  A    between atoms: C_4  and  S_7
REMARK    2  A    between atoms: S_7  and  C_8
REMARK                            x       y       z     vdW  Elec       q    Type
REMARK                         _______ _______ _______ _____ _____    ______ ____
ROOT
ATOM      1  C   UNL     1       3.671  -2.128   0.268  0.00  0.00    +0.000 A 
ATOM      2  C   UNL     1       4.963  -2.598   0.400  0.00  0.00    +0.000 A 
ATOM      3  C   UNL     1       4.877  -3.981   0.703  0.00  0.00    +0.000 A 
ATOM      4  C   UNL     1       5.793  -5.016   0.957  0.00  0.00    +0.000 A 
ATOM      5  C   UNL     1       5.297  -6.301   1.224  0.00  0.00    +0.000 A 
ATOM      6  C   UNL     1       3.923  -6.555   1.237  0.00  0.00    +0.000 A 
ATOM      7  C   UNL     1       2.997  -5.536   0.988  0.00  0.00    +0.000 A 
ATOM      8  C   UNL     1       3.520  -4.272   0.729  0.00  0.00    +0.000 A 
ATOM      9  O   UNL     1       2.792  -3.154   0.470  0.00  0.00    +0.000 OA
ENDROOT
BRANCH   1  10
ATOM     10  S   UNL     1       3.170  -0.497  -0.096  0.00  0.00    +0.000 S 
BRANCH  10  14
ATOM     11  C   UNL     1      -1.392   0.227  -0.499  0.00  0.00    +0.000 C 
ATOM     12  C   UNL     1      -0.868  -1.165  -0.836  0.00  0.00    +0.000 C 
ATOM     13  C   UNL     1       0.648  -1.165  -1.036  0.00  0.00    +0.000 C 
ATOM     14  C   UNL     1       1.367  -0.585   0.189  0.00  0.00    +0.000 C 
ATOM     15  C   UNL     1       0.849   0.827   0.501  0.00  0.00    +0.000 C 
ATOM     16  C   UNL     1      -0.666   0.828   0.701  0.00  0.00    +0.000 C 
ENDBRANCH  10  14
ENDBRANCH   1  10
TORSDOF 2
