REMARK  Name = *****
REMARK  3 active torsions:
REMARK  status: ('A' for Active; 'I' for Inactive)
REMARK    1  A    between atoms: C_1  and  C_2
REMARK    2  A    between atoms: C_2  and  C_12
REMARK    3  A    between atoms: C_12  and  C_13
REMARK                            x       y       z     vdW  Elec       q    Type
REMARK                         _______ _______ _______ _____ _____    ______ ____
ROOT
ATOM      1  C   UNL     1       0.959  -0.197  -0.081  0.00  0.00    +0.000 C 
ATOM      2  C   UNL     1       2.484  -0.181   0.097  0.00  0.00    +0.000 C 
ATOM      3  C   UNL     1       2.871   1.175   0.667  0.00  0.00    +0.000 C 
ATOM      4  C   UNL     1       3.653   1.326   1.740  0.00  0.00    +0.000 C 
ATOM      5  C   UNL     1       4.153   0.124   2.387  0.00  0.00    +0.000 A 
ATOM      6  C   UNL     1       5.067   0.203   3.444  0.00  0.00    +0.000 A 
ATOM      7  C   UNL     1       5.520  -0.960   4.070  0.00  0.00    +0.000 A 
ATOM      8  C   UNL     1       5.057  -2.206   3.649  0.00  0.00    +0.000 A 
ATOM      9  C   UNL     1       4.143  -2.288   2.598  0.00  0.00    +0.000 A 
ATOM     10  C   UNL     1       3.699  -1.127   1.964  0.00  0.00    +0.000 A 
ATOM     11  O   UNL     1       2.792  -1.301   0.958  0.00  0.00    +0.000 OA
ENDROOT
BRANCH   2  12
ATOM     12  C   UNL     1       3.231  -0.370  -1.254  0.00  0.00    +0.000 C 
BRANCH  12  13
ATOM     13  C   UNL     1       2.826  -1.576  -2.076  0.00  0.00    +0.000 A 
ATOM     14  C   UNL     1       1.976  -1.434  -3.181  0.00  0.00    +0.000 A 
ATOM     15  C   UNL     1       1.601  -2.548  -3.934  0.00  0.00    +0.000 A 
ATOM     16  C   UNL     1       2.073  -3.813  -3.592  0.00  0.00    +0.000 A 
ATOM     17  C   UNL     1       2.920  -3.967  -2.497  0.00  0.00    +0.000 A 
ATOM     18  C   UNL     1       3.296  -2.854  -1.743  0.00  0.00    +0.000 A 
ENDBRANCH  12  13
ENDBRANCH   2  12
TORSDOF 2
