REMARK  Name = *****
REMARK  3 active torsions:
REMARK  status: ('A' for Active; 'I' for Inactive)
REMARK    1  A    between atoms: C_8  and  C_10
REMARK    2  A    between atoms: C_10  and  O_11
REMARK    3  A    between atoms: O_11  and  C_12
REMARK                            x       y       z     vdW  Elec       q    Type
REMARK                         _______ _______ _______ _____ _____    ______ ____
ROOT
ATOM      1  C   UNL     1       2.325   0.220  -1.159  0.00  0.00    +0.000 A 
ATOM      2  C   UNL     1       2.308   0.967   0.015  0.00  0.00    +0.000 A 
ATOM      3  C   UNL     1       1.170   0.999   0.828  0.00  0.00    +0.000 A 
ATOM      4  C   UNL     1       0.046   0.256   0.428  0.00  0.00    +0.000 A 
ATOM      5  C   UNL     1       0.041  -0.500  -0.745  0.00  0.00    +0.000 A 
ATOM      6  C   UNL     1       1.200  -0.515  -1.547  0.00  0.00    +0.000 A 
ATOM      7  N   UNL     1      -1.136  -1.181  -1.008  0.00  0.00    +0.000 NA
ATOM      8  C   UNL     1      -2.019  -0.938  -0.061  0.00  0.00    +0.000 A 
ATOM      9  S   UNL     1      -1.479   0.089   1.209  0.00  0.00    +0.000 S 
ENDROOT
BRANCH   8  10
ATOM     10  C   UNL     1      -3.396  -1.533  -0.018  0.00  0.00    +0.000 C 
BRANCH  10  11
ATOM     11  O   UNL     1      -4.335  -0.462  -0.133  0.00  0.00    +0.000 OA
BRANCH  11  12
ATOM     12  C   UNL     1      -5.661  -0.789  -0.071  0.00  0.00    +0.000 A 
ATOM     13  C   UNL     1      -6.187  -2.082  -0.004  0.00  0.00    +0.000 A 
ATOM     14  C   UNL     1      -7.572  -2.271   0.053  0.00  0.00    +0.000 A 
ATOM     15  C   UNL     1      -8.420  -1.171   0.042  0.00  0.00    +0.000 A 
ATOM     16  C   UNL     1      -7.912   0.119  -0.027  0.00  0.00    +0.000 A 
ATOM     17  C   UNL     1      -6.531   0.308  -0.085  0.00  0.00    +0.000 A 
ATOM     18  F   UNL     1      -9.745  -1.358   0.097  0.00  0.00    +0.000 F 
ENDBRANCH  11  12
ENDBRANCH  10  11
ENDBRANCH   8  10
TORSDOF 3
