REMARK  Name = *****
REMARK  2 active torsions:
REMARK  status: ('A' for Active; 'I' for Inactive)
REMARK    1  A    between atoms: C_4  and  C_7
REMARK    2  A    between atoms: C_7  and  C_19
REMARK                            x       y       z     vdW  Elec       q    Type
REMARK                         _______ _______ _______ _____ _____    ______ ____
ROOT
ATOM      1  C   UNL     1      -2.571   0.601  -0.370  0.00  0.00    +0.000 C 
ATOM      2  O   UNL     1      -2.342   1.226   0.913  0.00  0.00    +0.000 OA
ATOM      3  C   UNL     1      -1.773   2.459   0.830  0.00  0.00    +0.000 A 
ATOM      4  C   UNL     1      -1.808   3.229  -0.324  0.00  0.00    +0.000 A 
ATOM      5  C   UNL     1      -1.201   4.490  -0.354  0.00  0.00    +0.000 A 
ATOM      6  C   UNL     1      -0.566   4.968   0.790  0.00  0.00    +0.000 A 
ATOM      7  C   UNL     1      -0.542   4.205   1.957  0.00  0.00    +0.000 A 
ATOM      8  C   UNL     1      -1.152   2.948   1.978  0.00  0.00    +0.000 A 
ATOM      9 CL   UNL     1       0.183   6.516   0.768  0.00  0.00    +0.000 Cl
ATOM     10  C   UNL     1      -2.531   2.730  -1.500  0.00  0.00    +0.000 C 
ATOM     11  O   UNL     1      -2.658   3.397  -2.514  0.00  0.00    +0.000 OA
ATOM     12  O   UNL     1      -3.105   1.520  -1.352  0.00  0.00    +0.000 OA
ENDROOT
BRANCH   1  16
ATOM     13  C   UNL     1      -5.567  -2.512   0.228  0.00  0.00    +0.000 A 
ATOM     14  C   UNL     1      -5.460  -1.873  -1.004  0.00  0.00    +0.000 A 
ATOM     15  C   UNL     1      -4.507  -0.871  -1.193  0.00  0.00    +0.000 A 
ATOM     16  C   UNL     1      -3.644  -0.482  -0.150  0.00  0.00    +0.000 A 
ATOM     17  C   UNL     1      -3.762  -1.151   1.084  0.00  0.00    +0.000 A 
ATOM     18  C   UNL     1      -4.718  -2.153   1.271  0.00  0.00    +0.000 A 
ENDBRANCH   1  16
BRANCH   1  19
ATOM     19  C   UNL     1      -1.267  -0.086  -0.900  0.00  0.00    +0.000 C 
ATOM     20  F   UNL     1      -0.749  -0.961  -0.004  0.00  0.00    +0.000 F 
ATOM     21  F   UNL     1      -1.472  -0.761  -2.057  0.00  0.00    +0.000 F 
ATOM     22  F   UNL     1      -0.295   0.828  -1.155  0.00  0.00    +0.000 F 
ENDBRANCH   1  19
TORSDOF 2
