REMARK  Name = *****
REMARK  1 active torsions:
REMARK  status: ('A' for Active; 'I' for Inactive)
REMARK    1  A    between atoms: C_4  and  S_7
REMARK                            x       y       z     vdW  Elec       q    Type
REMARK                         _______ _______ _______ _____ _____    ______ ____
ROOT
ATOM      1  S   UNL     1      -4.562   1.520  -1.661  0.00  0.00    +0.000 S 
ATOM      2  N   UNL     1      -3.035   1.639  -1.486  0.00  0.00    +0.000 NA
ATOM      3  C   UNL     1      -2.474   2.606  -0.771  0.00  0.00    +0.000 A 
ATOM      4  C   UNL     1      -1.094   2.550  -0.666  0.00  0.00    +0.000 A 
ATOM      5  C   UNL     1      -0.359   3.504   0.044  0.00  0.00    +0.000 A 
ATOM      6  C   UNL     1      -1.016   4.553   0.671  0.00  0.00    +0.000 A 
ATOM      7  C   UNL     1      -2.403   4.640   0.583  0.00  0.00    +0.000 A 
ATOM      8  C   UNL     1      -3.139   3.680  -0.131  0.00  0.00    +0.000 A 
ATOM      9  C   UNL     1      -4.528   3.796  -0.209  0.00  0.00    +0.000 C 
ATOM     10  C   UNL     1      -5.313   2.880  -0.888  0.00  0.00    +0.000 C 
ATOM     11  O   UNL     1      -4.978   0.289  -1.033  0.00  0.00    +0.000 OA
ENDROOT
BRANCH   1  15
ATOM     12  C   UNL     1      -5.142   1.449  -6.148  0.00  0.00    +0.000 A 
ATOM     13  C   UNL     1      -4.429   2.494  -5.556  0.00  0.00    +0.000 A 
ATOM     14  C   UNL     1      -4.242   2.515  -4.173  0.00  0.00    +0.000 A 
ATOM     15  C   UNL     1      -4.772   1.486  -3.392  0.00  0.00    +0.000 A 
ATOM     16  C   UNL     1      -5.482   0.437  -3.979  0.00  0.00    +0.000 A 
ATOM     17  C   UNL     1      -5.666   0.422  -5.361  0.00  0.00    +0.000 A 
ENDBRANCH   1  15
TORSDOF 1
