REMARK  Name = *****
REMARK  6 active torsions:
REMARK  status: ('A' for Active; 'I' for Inactive)
REMARK    1  A    between atoms: C_1  and  C_2
REMARK    2  A    between atoms: C_2  and  C_3
REMARK    3  A    between atoms: C_2  and  C_4
REMARK    4  A    between atoms: C_4  and  C_16
REMARK    5  A    between atoms: C_12  and  O_14
REMARK    6  A    between atoms: O_14  and  C_15
REMARK                            x       y       z     vdW  Elec       q    Type
REMARK                         _______ _______ _______ _____ _____    ______ ____
ROOT
ATOM      1  C   UNL     1       3.140   0.340   1.268  0.00  0.00    +0.000 C 
ATOM      2  C   UNL     1       4.607  -0.140   1.429  0.00  0.00    +0.000 C 
ATOM      3  C   UNL     1       4.740  -1.644   1.233  0.00  0.00    +0.000 C 
ATOM      4  C   UNL     1       3.674  -2.367   1.991  0.00  0.00    +0.000 A 
ATOM      5  C   UNL     1       2.541  -1.694   2.441  0.00  0.00    +0.000 A 
ATOM      6  O   UNL     1       2.321  -0.361   2.246  0.00  0.00    +0.000 OA
ATOM      7  C   UNL     1       1.559  -2.377   3.157  0.00  0.00    +0.000 A 
ATOM      8  C   UNL     1       1.686  -3.747   3.406  0.00  0.00    +0.000 A 
ATOM      9  C   UNL     1       2.803  -4.438   2.939  0.00  0.00    +0.000 A 
ATOM     10  C   UNL     1       3.790  -3.744   2.233  0.00  0.00    +0.000 A 
ENDROOT
BRANCH   1  11
ATOM     11  C   UNL     1       3.051   1.847   1.624  0.00  0.00    +0.000 A 
ATOM     12  C   UNL     1       2.002   2.341   2.425  0.00  0.00    +0.000 A 
ATOM     13  C   UNL     1       1.906   3.698   2.746  0.00  0.00    +0.000 A 
ATOM     14  C   UNL     1       2.855   4.596   2.272  0.00  0.00    +0.000 A 
ATOM     15  C   UNL     1       3.898   4.138   1.475  0.00  0.00    +0.000 A 
ATOM     16  C   UNL     1       3.994   2.780   1.154  0.00  0.00    +0.000 A 
ENDBRANCH   1  11
BRANCH   1  18
ATOM     17  C   UNL     1       1.055   0.480  -0.279  0.00  0.00    +0.000 C 
ATOM     18  C   UNL     1       2.528   0.055  -0.157  0.00  0.00    +0.000 C 
ATOM     19  C   UNL     1       3.320   0.639  -1.333  0.00  0.00    +0.000 C 
ENDBRANCH   1  18
BRANCH   9  20
ATOM     20  O   UNL     1       3.051  -5.773   3.104  0.00  0.00    +0.000 OA
ATOM     21  C   UNL     1       2.074  -6.524   3.815  0.00  0.00    +0.000 C 
ENDBRANCH   9  20
TORSDOF 3
