REMARK  Name = *****
REMARK  3 active torsions:
REMARK  status: ('A' for Active; 'I' for Inactive)
REMARK    1  A    between atoms: C_1  and  C_2
REMARK    2  A    between atoms: C_4  and  C_19
REMARK    3  A    between atoms: C_9  and  C_13
REMARK                            x       y       z     vdW  Elec       q    Type
REMARK                         _______ _______ _______ _____ _____    ______ ____
ROOT
ATOM      1  C   UNL     1       1.007   0.172   0.107  0.00  0.00    +0.000 C 
ATOM      2  C   UNL     1       2.502   0.088   0.006  0.00  0.00    +0.000 A 
ATOM      3  C   UNL     1       3.152  -1.150   0.089  0.00  0.00    +0.000 A 
ATOM      4  C   UNL     1       4.555  -1.250   0.018  0.00  0.00    +0.000 A 
ATOM      5  C   UNL     1       5.311  -0.069  -0.123  0.00  0.00    +0.000 A 
ATOM      6  C   UNL     1       6.794  -0.064  -0.267  0.00  0.00    +0.000 C 
ATOM      7  O   UNL     1       7.466  -1.088  -0.204  0.00  0.00    +0.000 OA
ATOM      8  C   UNL     1       7.436   1.262  -0.566  0.00  0.00    +0.000 C 
ATOM      9  C   UNL     1       6.664   2.332   0.183  0.00  0.00    +0.000 C 
ATOM     10  O   UNL     1       5.307   2.377  -0.277  0.00  0.00    +0.000 OA
ATOM     11  C   UNL     1       4.661   1.173  -0.164  0.00  0.00    +0.000 A 
ATOM     12  C   UNL     1       3.268   1.249  -0.112  0.00  0.00    +0.000 A 
ATOM     13  C   UNL     1       5.176  -2.618   0.085  0.00  0.00    +0.000 C 
ENDROOT
BRANCH   9  14
ATOM     14  C   UNL     1       7.302   3.693  -0.024  0.00  0.00    +0.000 A 
ATOM     15  C   UNL     1       7.050   4.452  -1.178  0.00  0.00    +0.000 A 
ATOM     16  C   UNL     1       7.667   5.691  -1.364  0.00  0.00    +0.000 A 
ATOM     17  C   UNL     1       8.547   6.184  -0.404  0.00  0.00    +0.000 A 
ATOM     18  C   UNL     1       8.813   5.439   0.743  0.00  0.00    +0.000 A 
ATOM     19  C   UNL     1       8.197   4.200   0.932  0.00  0.00    +0.000 A 
ENDBRANCH   9  14
TORSDOF 1
