REMARK  Name = *****
REMARK  2 active torsions:
REMARK  status: ('A' for Active; 'I' for Inactive)
REMARK    1  A    between atoms: C_3  and  C_13
REMARK    2  A    between atoms: C_3  and  O_19
REMARK                            x       y       z     vdW  Elec       q    Type
REMARK                         _______ _______ _______ _____ _____    ______ ____
ROOT
ATOM      1  C   UNL     1      -0.992   1.597   0.040  0.00  0.00    +0.000 C 
ATOM      2  C   UNL     1      -2.263   0.810  -0.257  0.00  0.00    +0.000 C 
ATOM      3  C   UNL     1      -2.295  -0.520   0.508  0.00  0.00    +0.000 C 
ATOM      4  C   UNL     1      -1.075  -1.357   0.090  0.00  0.00    +0.000 C 
ATOM      5  O   UNL     1      -1.124  -2.585   0.008  0.00  0.00    +0.000 OA
ATOM      6  C   UNL     1       0.204  -0.639  -0.171  0.00  0.00    +0.000 A 
ATOM      7  C   UNL     1       0.242   0.765  -0.190  0.00  0.00    +0.000 A 
ATOM      8  C   UNL     1       1.473   1.407  -0.395  0.00  0.00    +0.000 A 
ATOM      9  C   UNL     1       2.636   0.663  -0.601  0.00  0.00    +0.000 A 
ATOM     10  C   UNL     1       2.577  -0.729  -0.598  0.00  0.00    +0.000 A 
ATOM     11  C   UNL     1       1.369  -1.386  -0.384  0.00  0.00    +0.000 A 
ATOM     12 BR   UNL     1       4.155  -1.732  -0.877  0.00  0.00    +0.000 Br
ENDROOT
BRANCH   3  13
ATOM     13  C   UNL     1      -2.449  -0.339   2.019  0.00  0.00    +0.000 A 
ATOM     14  C   UNL     1      -3.598   0.299   2.526  0.00  0.00    +0.000 A 
ATOM     15  C   UNL     1      -3.771   0.501   3.897  0.00  0.00    +0.000 A 
ATOM     16  C   UNL     1      -2.801   0.063   4.792  0.00  0.00    +0.000 A 
ATOM     17  C   UNL     1      -1.664  -0.584   4.316  0.00  0.00    +0.000 A 
ATOM     18  C   UNL     1      -1.490  -0.786   2.943  0.00  0.00    +0.000 A 
ENDBRANCH   3  13
BRANCH   3  19
ATOM     19  O   UNL     1      -3.461  -1.232   0.061  0.00  0.00    +0.000 OA
ATOM     20  H   UNL     1      -3.407  -1.371  -0.898  0.00  0.00    +0.000 HD
ENDBRANCH   3  19
TORSDOF 2
