REMARK  Name = *****
REMARK  3 active torsions:
REMARK  status: ('A' for Active; 'I' for Inactive)
REMARK    1  A    between atoms: C_9  and  O_12
REMARK    2  A    between atoms: O_12  and  C_13
REMARK    3  A    between atoms: C_13  and  C_14
REMARK                            x       y       z     vdW  Elec       q    Type
REMARK                         _______ _______ _______ _____ _____    ______ ____
ROOT
ATOM      1  C   UNL     1      -1.250   1.483   0.287  0.00  0.00    +0.000 C 
ATOM      2  C   UNL     1      -2.437   0.739  -0.310  0.00  0.00    +0.000 C 
ATOM      3  C   UNL     1      -2.413  -0.729   0.055  0.00  0.00    +0.000 C 
ATOM      4  S   UNL     1      -3.812  -1.617   0.264  0.00  0.00    +0.000 S 
ATOM      5  N   UNL     1      -1.192  -1.346   0.099  0.00  0.00    +0.000 N 
ATOM      6  C   UNL     1       0.023  -0.658   0.007  0.00  0.00    +0.000 A 
ATOM      7  C   UNL     1       0.035   0.739   0.053  0.00  0.00    +0.000 A 
ATOM      8  C   UNL     1       1.260   1.413  -0.013  0.00  0.00    +0.000 A 
ATOM      9  C   UNL     1       2.461   0.707  -0.137  0.00  0.00    +0.000 A 
ATOM     10  C   UNL     1       2.434  -0.688  -0.181  0.00  0.00    +0.000 A 
ATOM     11  C   UNL     1       1.215  -1.371  -0.100  0.00  0.00    +0.000 A 
ATOM     12  H   UNL     1      -1.168  -2.325   0.199  0.00  0.00    +0.000 HD
ENDROOT
BRANCH   9  13
ATOM     13  O   UNL     1       3.577   1.494  -0.194  0.00  0.00    +0.000 OA
BRANCH  13  14
ATOM     14  C   UNL     1       4.837   0.833  -0.304  0.00  0.00    +0.000 C 
BRANCH  14  15
ATOM     15  C   UNL     1       5.933   1.872  -0.290  0.00  0.00    +0.000 A 
ATOM     16  C   UNL     1       6.065   2.746   0.799  0.00  0.00    +0.000 A 
ATOM     17  C   UNL     1       7.088   3.695   0.829  0.00  0.00    +0.000 A 
ATOM     18  C   UNL     1       7.992   3.778  -0.228  0.00  0.00    +0.000 A 
ATOM     19  C   UNL     1       7.874   2.914  -1.315  0.00  0.00    +0.000 A 
ATOM     20  C   UNL     1       6.850   1.964  -1.346  0.00  0.00    +0.000 A 
ENDBRANCH  14  15
ENDBRANCH  13  14
ENDBRANCH   9  13
TORSDOF 3
