REMARK  Name = *****
REMARK  5 active torsions:
REMARK  status: ('A' for Active; 'I' for Inactive)
REMARK    1  A    between atoms: C_1  and  C_2
REMARK    2  A    between atoms: C_5  and  S_8
REMARK    3  A    between atoms: S_8  and  N_11
REMARK    4  A    between atoms: C_12  and  C_14
REMARK    5  A    between atoms: C_19  and  C_20
REMARK                            x       y       z     vdW  Elec       q    Type
REMARK                         _______ _______ _______ _____ _____    ______ ____
ROOT
ATOM      1  S   UNL     1      -4.235   0.330  -0.576  0.00  0.00    +0.000 S 
ATOM      2  O   UNL     1      -5.138  -0.453  -1.400  0.00  0.00    +0.000 OA
ATOM      3  O   UNL     1      -3.751  -0.195   0.686  0.00  0.00    +0.000 OA
ENDROOT
BRANCH   1   8
ATOM      4  C   UNL     1       0.580   1.743  -3.993  0.00  0.00    +0.000 C 
ATOM      5  C   UNL     1      -0.601   1.378  -3.141  0.00  0.00    +0.000 A 
ATOM      6  C   UNL     1      -0.488   1.323  -1.745  0.00  0.00    +0.000 A 
ATOM      7  C   UNL     1      -1.596   1.003  -0.958  0.00  0.00    +0.000 A 
ATOM      8  C   UNL     1      -2.825   0.751  -1.571  0.00  0.00    +0.000 A 
ATOM      9  C   UNL     1      -2.951   0.794  -2.962  0.00  0.00    +0.000 A 
ATOM     10  C   UNL     1      -1.840   1.115  -3.742  0.00  0.00    +0.000 A 
ENDBRANCH   1   8
BRANCH   1  11
ATOM     11  N   UNL     1      -4.928   1.878  -0.361  0.00  0.00    +0.000 NA
ATOM     12  C   UNL     1      -6.218   1.829   0.349  0.00  0.00    +0.000 C 
ATOM     13  O   UNL     1      -4.988   2.121   1.039  0.00  0.00    +0.000 OA
BRANCH  12  14
ATOM     14  C   UNL     1      -7.203   2.951   0.132  0.00  0.00    +0.000 A 
ATOM     15  C   UNL     1      -7.442   3.897   1.148  0.00  0.00    +0.000 A 
ATOM     16  C   UNL     1      -8.347   4.946   0.978  0.00  0.00    +0.000 A 
ATOM     17  C   UNL     1      -9.040   5.073  -0.219  0.00  0.00    +0.000 A 
ATOM     18  C   UNL     1      -8.833   4.151  -1.242  0.00  0.00    +0.000 A 
ATOM     19  C   UNL     1      -7.929   3.087  -1.076  0.00  0.00    +0.000 A 
ATOM     20  C   UNL     1      -7.727   2.117  -2.211  0.00  0.00    +0.000 C 
ENDBRANCH  12  14
ENDBRANCH   1  11
TORSDOF 3
