REMARK  Name = *****
REMARK  3 active torsions:
REMARK  status: ('A' for Active; 'I' for Inactive)
REMARK    1  A    between atoms: C_1  and  O_2
REMARK    2  A    between atoms: O_2  and  C_3
REMARK    3  A    between atoms: C_6  and  C_9
REMARK                            x       y       z     vdW  Elec       q    Type
REMARK                         _______ _______ _______ _____ _____    ______ ____
ROOT
ATOM      1  C   UNL     1       5.358  -0.391   5.514  0.00  0.00    +0.000 C 
ATOM      2  C   UNL     1       5.146   0.653   6.610  0.00  0.00    +0.000 C 
ATOM      3  S   UNL     1       6.264   0.305   7.998  0.00  0.00    +0.000 S 
ATOM      4  C   UNL     1       6.086  -1.470   8.037  0.00  0.00    +0.000 A 
ATOM      5  C   UNL     1       6.624  -2.150   9.138  0.00  0.00    +0.000 A 
ATOM      6  C   UNL     1       6.494  -3.536   9.253  0.00  0.00    +0.000 A 
ATOM      7  C   UNL     1       5.820  -4.255   8.270  0.00  0.00    +0.000 A 
ATOM      8  C   UNL     1       5.285  -3.589   7.169  0.00  0.00    +0.000 A 
ATOM      9  C   UNL     1       5.428  -2.203   7.039  0.00  0.00    +0.000 A 
ATOM     10  O   UNL     1       4.856  -1.676   5.910  0.00  0.00    +0.000 OA
ENDROOT
BRANCH   1  14
ATOM     11  C   UNL     1       3.269   0.875   1.922  0.00  0.00    +0.000 A 
ATOM     12  C   UNL     1       4.652   1.013   2.022  0.00  0.00    +0.000 A 
ATOM     13  C   UNL     1       5.322   0.594   3.178  0.00  0.00    +0.000 A 
ATOM     14  C   UNL     1       4.619   0.028   4.251  0.00  0.00    +0.000 A 
ATOM     15  C   UNL     1       3.227  -0.106   4.143  0.00  0.00    +0.000 A 
ATOM     16  C   UNL     1       2.563   0.313   2.987  0.00  0.00    +0.000 A 
BRANCH  11  18
ATOM     17  C   UNL     1       3.168   1.830  -0.252  0.00  0.00    +0.000 C 
ATOM     18  O   UNL     1       2.496   1.245   0.856  0.00  0.00    +0.000 OA
ENDBRANCH  11  18
ENDBRANCH   1  14
TORSDOF 2
