REMARK  Name = *****
REMARK  1 active torsions:
REMARK  status: ('A' for Active; 'I' for Inactive)
REMARK    1  A    between atoms: C_2  and  C_12
REMARK                            x       y       z     vdW  Elec       q    Type
REMARK                         _______ _______ _______ _____ _____    ______ ____
ROOT
ATOM      1  C   UNL     1      -2.190   0.070  -0.224  0.00  0.00    +0.000 C 
ATOM      2  C   UNL     1      -1.737   1.333   0.505  0.00  0.00    +0.000 C 
ATOM      3  O   UNL     1      -0.460   1.801   0.028  0.00  0.00    +0.000 OA
ATOM      4  C   UNL     1       0.503   0.843  -0.148  0.00  0.00    +0.000 A 
ATOM      5  C   UNL     1       1.811   1.306  -0.294  0.00  0.00    +0.000 A 
ATOM      6  C   UNL     1       2.865   0.399  -0.430  0.00  0.00    +0.000 A 
ATOM      7  C   UNL     1       2.612  -0.973  -0.426  0.00  0.00    +0.000 A 
ATOM      8  C   UNL     1       1.304  -1.440  -0.298  0.00  0.00    +0.000 A 
ATOM      9  C   UNL     1       0.254  -0.527  -0.167  0.00  0.00    +0.000 A 
ATOM     10  C   UNL     1      -1.140  -0.993  -0.100  0.00  0.00    +0.000 C 
ATOM     11  O   UNL     1      -1.407  -2.189  -0.047  0.00  0.00    +0.000 OA
ENDROOT
BRANCH   2  12
ATOM     12  C   UNL     1      -1.832   1.260   2.024  0.00  0.00    +0.000 A 
ATOM     13  C   UNL     1      -0.723   1.374   2.876  0.00  0.00    +0.000 A 
ATOM     14  C   UNL     1      -0.874   1.300   4.265  0.00  0.00    +0.000 A 
ATOM     15  C   UNL     1      -2.136   1.122   4.828  0.00  0.00    +0.000 A 
ATOM     16  C   UNL     1      -3.251   1.026   4.001  0.00  0.00    +0.000 A 
ATOM     17  C   UNL     1      -3.092   1.101   2.619  0.00  0.00    +0.000 A 
ATOM     18  F   UNL     1      -4.187   1.033   1.848  0.00  0.00    +0.000 F 
ENDBRANCH   2  12
TORSDOF 1
