REMARK  Name = *****
REMARK  5 active torsions:
REMARK  status: ('A' for Active; 'I' for Inactive)
REMARK    1  A    between atoms: C_1  and  C_2
REMARK    2  A    between atoms: C_2  and  O_3
REMARK    3  A    between atoms: O_3  and  C_4
REMARK    4  A    between atoms: C_11  and  C_13
REMARK    5  A    between atoms: C_11  and  C_14
REMARK                            x       y       z     vdW  Elec       q    Type
REMARK                         _______ _______ _______ _____ _____    ______ ____
ROOT
ATOM      1  C   UNL     1       4.436  -1.653  -0.088  0.00  0.00    +0.000 A 
ATOM      2  C   UNL     1       4.761  -2.360  -1.252  0.00  0.00    +0.000 A 
ATOM      3  C   UNL     1       6.095  -2.531  -1.580  0.00  0.00    +0.000 A 
ATOM      4  C   UNL     1       7.091  -2.012  -0.777  0.00  0.00    +0.000 A 
ATOM      5  C   UNL     1       6.804  -1.313   0.376  0.00  0.00    +0.000 A 
ATOM      6  C   UNL     1       5.460  -1.136   0.725  0.00  0.00    +0.000 A 
ATOM      7  O   UNL     1       8.357  -2.244  -1.239  0.00  0.00    +0.000 OA
ATOM      8  C   UNL     1       8.200  -3.157  -2.372  0.00  0.00    +0.000 C 
ATOM      9  C   UNL     1       6.698  -3.171  -2.771  0.00  0.00    +0.000 C 
ATOM     10  C   UNL     1       8.661  -4.538  -1.868  0.00  0.00    +0.000 C 
ENDROOT
BRANCH   8  11
ATOM     11  C   UNL     1       9.075  -2.713  -3.548  0.00  0.00    +0.000 A 
ATOM     12  C   UNL     1       9.893  -1.574  -3.467  0.00  0.00    +0.000 A 
ATOM     13  C   UNL     1      10.676  -1.172  -4.551  0.00  0.00    +0.000 A 
ATOM     14  C   UNL     1      10.658  -1.903  -5.736  0.00  0.00    +0.000 A 
ATOM     15  C   UNL     1       9.856  -3.035  -5.838  0.00  0.00    +0.000 A 
ATOM     16  C   UNL     1       9.071  -3.438  -4.755  0.00  0.00    +0.000 A 
ENDBRANCH   8  11
BRANCH   1  17
ATOM     17  O   UNL     1       3.093  -1.531   0.144  0.00  0.00    +0.000 OA
BRANCH  17  19
ATOM     18  C   UNL     1       1.179  -0.646   1.252  0.00  0.00    +0.000 C 
ATOM     19  C   UNL     1       2.696  -0.714   1.243  0.00  0.00    +0.000 C 
ENDBRANCH  17  19
ENDBRANCH   1  17
TORSDOF 3
