REMARK  Name = *****
REMARK  3 active torsions:
REMARK  status: ('A' for Active; 'I' for Inactive)
REMARK    1  A    between atoms: C_1  and  O_2
REMARK    2  A    between atoms: O_2  and  C_3
REMARK    3  A    between atoms: C_5  and  C_13
REMARK                            x       y       z     vdW  Elec       q    Type
REMARK                         _______ _______ _______ _____ _____    ______ ____
ROOT
ATOM      1  C   UNL     1       2.964   1.119  -0.068  0.00  0.00    +0.000 C 
ATOM      2  C   UNL     1       2.325   2.490  -0.253  0.00  0.00    +0.000 C 
ATOM      3  C   UNL     1       3.390   3.581  -0.137  0.00  0.00    +0.000 C 
ATOM      4  O   UNL     1       4.371   3.435  -1.182  0.00  0.00    +0.000 OA
ATOM      5  C   UNL     1       4.817   2.163  -1.424  0.00  0.00    +0.000 A 
ATOM      6  C   UNL     1       5.957   2.065  -2.224  0.00  0.00    +0.000 A 
ATOM      7  C   UNL     1       6.504   0.817  -2.519  0.00  0.00    +0.000 A 
ATOM      8  C   UNL     1       5.908  -0.336  -2.016  0.00  0.00    +0.000 A 
ATOM      9  C   UNL     1       4.761  -0.240  -1.226  0.00  0.00    +0.000 A 
ATOM     10  C   UNL     1       4.194   1.011  -0.934  0.00  0.00    +0.000 A 
ENDROOT
BRANCH   3  11
ATOM     11  C   UNL     1       4.032   3.763   1.239  0.00  0.00    +0.000 A 
ATOM     12  C   UNL     1       5.387   4.120   1.360  0.00  0.00    +0.000 A 
ATOM     13  C   UNL     1       5.975   4.315   2.612  0.00  0.00    +0.000 A 
ATOM     14  C   UNL     1       5.216   4.171   3.769  0.00  0.00    +0.000 A 
ATOM     15  C   UNL     1       3.867   3.844   3.673  0.00  0.00    +0.000 A 
ATOM     16  C   UNL     1       3.277   3.652   2.420  0.00  0.00    +0.000 A 
ENDBRANCH   3  11
BRANCH   1  18
ATOM     17  C   UNL     1       1.137  -0.253   0.606  0.00  0.00    +0.000 C 
ATOM     18  O   UNL     1       2.027   0.100  -0.444  0.00  0.00    +0.000 OA
ENDBRANCH   1  18
TORSDOF 2
