REMARK  Name = *****
REMARK  1 active torsions:
REMARK  status: ('A' for Active; 'I' for Inactive)
REMARK    1  A    between atoms: C_3  and  C_11
REMARK                            x       y       z     vdW  Elec       q    Type
REMARK                         _______ _______ _______ _____ _____    ______ ____
ROOT
ATOM      1  C   UNL     1      -1.138   1.612  -0.084  0.00  0.00    +0.000 C 
ATOM      2  C   UNL     1      -2.340   0.722  -0.376  0.00  0.00    +0.000 C 
ATOM      3  C   UNL     1      -2.278  -0.546   0.526  0.00  0.00    +0.000 C 
ATOM      4  O   UNL     1      -1.092  -1.306   0.175  0.00  0.00    +0.000 OA
ATOM      5  C   UNL     1       0.063  -0.601  -0.038  0.00  0.00    +0.000 A 
ATOM      6  C   UNL     1       1.230  -1.360  -0.132  0.00  0.00    +0.000 A 
ATOM      7  C   UNL     1       2.462  -0.731  -0.305  0.00  0.00    +0.000 A 
ATOM      8  C   UNL     1       2.527   0.658  -0.387  0.00  0.00    +0.000 A 
ATOM      9  C   UNL     1       1.359   1.418  -0.310  0.00  0.00    +0.000 A 
ATOM     10  C   UNL     1       0.116   0.791  -0.150  0.00  0.00    +0.000 A 
ATOM     11 CL   UNL     1      -3.657  -1.654   0.071  0.00  0.00    +0.000 Cl
ATOM     12 CL   UNL     1      -3.837   1.704  -0.315  0.00  0.00    +0.000 Cl
ENDROOT
BRANCH   3  13
ATOM     13  C   UNL     1      -2.366  -0.332   2.054  0.00  0.00    +0.000 A 
ATOM     14  C   UNL     1      -3.495   0.259   2.655  0.00  0.00    +0.000 A 
ATOM     15  C   UNL     1      -3.566   0.470   4.036  0.00  0.00    +0.000 A 
ATOM     16  C   UNL     1      -2.516   0.078   4.858  0.00  0.00    +0.000 A 
ATOM     17  C   UNL     1      -1.402  -0.537   4.300  0.00  0.00    +0.000 A 
ATOM     18  C   UNL     1      -1.332  -0.744   2.919  0.00  0.00    +0.000 A 
ENDBRANCH   3  13
TORSDOF 1
