REMARK  Name = *****
REMARK  4 active torsions:
REMARK  status: ('A' for Active; 'I' for Inactive)
REMARK    1  A    between atoms: C_1  and  C_2
REMARK    2  A    between atoms: C_5  and  S_8
REMARK    3  A    between atoms: S_8  and  C_9
REMARK    4  A    between atoms: C_9  and  C_10
REMARK                            x       y       z     vdW  Elec       q    Type
REMARK                         _______ _______ _______ _____ _____    ______ ____
ROOT
ATOM      1  C   UNL     1      -6.047   1.535   0.383  0.00  0.00    +0.000 C 
ATOM      2  C   UNL     1      -6.723   1.358   1.745  0.00  0.00    +0.000 C 
ATOM      3  C   UNL     1      -8.233   1.415   1.558  0.00  0.00    +0.000 C 
ATOM      4  C   UNL     1      -8.617   2.557   0.662  0.00  0.00    +0.000 A 
ATOM      5  C   UNL     1      -9.950   2.985   0.603  0.00  0.00    +0.000 A 
ATOM      6  C   UNL     1     -10.315   4.046  -0.227  0.00  0.00    +0.000 A 
ATOM      7  C   UNL     1      -9.351   4.687  -1.004  0.00  0.00    +0.000 A 
ATOM      8  C   UNL     1      -8.025   4.259  -0.958  0.00  0.00    +0.000 A 
ATOM      9  C   UNL     1      -7.662   3.189  -0.141  0.00  0.00    +0.000 A 
ATOM     10  O   UNL     1      -6.338   2.842  -0.154  0.00  0.00    +0.000 OA
ENDROOT
BRANCH   1  11
ATOM     11  C   UNL     1      -4.516   1.435   0.467  0.00  0.00    +0.000 C 
BRANCH  11  12
ATOM     12  S   UNL     1      -3.949  -0.268   0.814  0.00  0.00    +0.000 S 
BRANCH  12  17
ATOM     13  C   UNL     1       2.137  -0.030   1.334  0.00  0.00    +0.000 C 
ATOM     14  C   UNL     1       0.642  -0.046   1.219  0.00  0.00    +0.000 A 
ATOM     15  C   UNL     1      -0.059   1.095   0.817  0.00  0.00    +0.000 A 
ATOM     16  C   UNL     1      -1.453   1.067   0.685  0.00  0.00    +0.000 A 
ATOM     17  C   UNL     1      -2.173  -0.102   0.948  0.00  0.00    +0.000 A 
ATOM     18  C   UNL     1      -1.463  -1.246   1.335  0.00  0.00    +0.000 A 
ATOM     19  C   UNL     1      -0.071  -1.221   1.467  0.00  0.00    +0.000 A 
ENDBRANCH  12  17
ENDBRANCH  11  12
ENDBRANCH   1  11
TORSDOF 3
