REMARK  Name = *****
REMARK  3 active torsions:
REMARK  status: ('A' for Active; 'I' for Inactive)
REMARK    1  A    between atoms: C_1  and  O_2
REMARK    2  A    between atoms: O_2  and  C_3
REMARK    3  A    between atoms: C_12  and  C_13
REMARK                            x       y       z     vdW  Elec       q    Type
REMARK                         _______ _______ _______ _____ _____    ______ ____
ROOT
ATOM      1  C   UNL     1       3.077   1.038  -0.462  0.00  0.00    +0.000 C 
ATOM      2  C   UNL     1       4.080   0.923   0.688  0.00  0.00    +0.000 C 
ATOM      3  C   UNL     1       4.922  -0.314   0.557  0.00  0.00    +0.000 A 
ATOM      4  C   UNL     1       5.663  -0.774   1.656  0.00  0.00    +0.000 A 
ATOM      5  C   UNL     1       6.443  -1.926   1.550  0.00  0.00    +0.000 A 
ATOM      6  C   UNL     1       6.490  -2.626   0.347  0.00  0.00    +0.000 A 
ATOM      7  C   UNL     1       5.764  -2.168  -0.752  0.00  0.00    +0.000 A 
ATOM      8  C   UNL     1       4.995  -1.007  -0.652  0.00  0.00    +0.000 A 
ATOM      9  O   UNL     1       4.339  -0.628  -1.792  0.00  0.00    +0.000 OA
ATOM     10  C   UNL     1       3.790   0.707  -1.800  0.00  0.00    +0.000 C 
ENDROOT
BRANCH  10  11
ATOM     11  C   UNL     1       4.804   1.750  -2.284  0.00  0.00    +0.000 A 
ATOM     12  C   UNL     1       6.031   1.366  -2.852  0.00  0.00    +0.000 A 
ATOM     13  C   UNL     1       6.943   2.316  -3.317  0.00  0.00    +0.000 A 
ATOM     14  C   UNL     1       6.640   3.672  -3.237  0.00  0.00    +0.000 A 
ATOM     15  C   UNL     1       5.421   4.075  -2.703  0.00  0.00    +0.000 A 
ATOM     16  C   UNL     1       4.506   3.124  -2.241  0.00  0.00    +0.000 A 
ENDBRANCH  10  11
BRANCH   1  18
ATOM     17  C   UNL     1       0.865   0.288  -1.037  0.00  0.00    +0.000 C 
ATOM     18  O   UNL     1       1.974   0.154  -0.161  0.00  0.00    +0.000 OA
ENDBRANCH   1  18
TORSDOF 2
