REMARK  Name = *****
REMARK  1 active torsions:
REMARK  status: ('A' for Active; 'I' for Inactive)
REMARK    1  A    between atoms: C_3  and  C_14
REMARK                            x       y       z     vdW  Elec       q    Type
REMARK                         _______ _______ _______ _____ _____    ______ ____
ROOT
ATOM      1  C   UNL     1       0.891   1.402   0.038  0.00  0.00    +0.000 C 
ATOM      2  C   UNL     1       2.094   0.688  -0.483  0.00  0.00    +0.000 C 
ATOM      3  C   UNL     1       2.119  -0.830  -0.414  0.00  0.00    +0.000 C 
ATOM      4  C   UNL     1       3.111   0.003   0.396  0.00  0.00    +0.000 C 
ATOM      5 CL   UNL     1       2.959   0.055   2.153  0.00  0.00    +0.000 Cl
ATOM      6 CL   UNL     1       4.800   0.167  -0.118  0.00  0.00    +0.000 Cl
ATOM      7  O   UNL     1       1.052  -1.460   0.354  0.00  0.00    +0.000 OA
ATOM      8  C   UNL     1      -0.176  -0.876   0.175  0.00  0.00    +0.000 A 
ATOM      9  C   UNL     1      -1.292  -1.709   0.222  0.00  0.00    +0.000 A 
ATOM     10  C   UNL     1      -2.566  -1.167   0.071  0.00  0.00    +0.000 A 
ATOM     11  C   UNL     1      -2.721   0.208  -0.108  0.00  0.00    +0.000 A 
ATOM     12  C   UNL     1      -1.601   1.042  -0.136  0.00  0.00    +0.000 A 
ATOM     13  C   UNL     1      -0.314   0.505  -0.001  0.00  0.00    +0.000 A 
ENDROOT
BRANCH   3  14
ATOM     14  C   UNL     1       2.564  -1.630  -1.626  0.00  0.00    +0.000 A 
ATOM     15  C   UNL     1       3.446  -2.718  -1.495  0.00  0.00    +0.000 A 
ATOM     16  C   UNL     1       3.847  -3.471  -2.602  0.00  0.00    +0.000 A 
ATOM     17  C   UNL     1       3.361  -3.160  -3.868  0.00  0.00    +0.000 A 
ATOM     18  C   UNL     1       2.470  -2.103  -4.025  0.00  0.00    +0.000 A 
ATOM     19  C   UNL     1       2.073  -1.353  -2.915  0.00  0.00    +0.000 A 
ENDBRANCH   3  14
TORSDOF 1
