REMARK  Name = *****
REMARK  5 active torsions:
REMARK  status: ('A' for Active; 'I' for Inactive)
REMARK    1  A    between atoms: C_1  and  C_2
REMARK    2  A    between atoms: C_3  and  C_23
REMARK    3  A    between atoms: C_11  and  O_13
REMARK    4  A    between atoms: O_13  and  C_14
REMARK    5  A    between atoms: C_14  and  C_15
REMARK                            x       y       z     vdW  Elec       q    Type
REMARK                         _______ _______ _______ _____ _____    ______ ____
ROOT
ATOM      1  C   UNL     1       0.857   0.090  -0.091  0.00  0.00    +0.000 C 
ATOM      2  C   UNL     1       2.359   0.215  -0.033  0.00  0.00    +0.000 A 
ATOM      3  C   UNL     1       3.029   1.379  -0.182  0.00  0.00    +0.000 A 
ATOM      4  C   UNL     1       4.514   1.449  -0.062  0.00  0.00    +0.000 A 
ATOM      5  O   UNL     1       5.122   2.510  -0.174  0.00  0.00    +0.000 OA
ATOM      6  O   UNL     1       5.191   0.270   0.189  0.00  0.00    +0.000 OA
ATOM      7  C   UNL     1       4.513  -0.951   0.321  0.00  0.00    +0.000 A 
ATOM      8  C   UNL     1       3.127  -1.022   0.216  0.00  0.00    +0.000 A 
ATOM      9  C   UNL     1       2.546  -2.289   0.351  0.00  0.00    +0.000 A 
ATOM     10  C   UNL     1       3.336  -3.423   0.588  0.00  0.00    +0.000 A 
ATOM     11  C   UNL     1       4.723  -3.321   0.696  0.00  0.00    +0.000 A 
ATOM     12  C   UNL     1       5.317  -2.072   0.558  0.00  0.00    +0.000 A 
ATOM     13  C   UNL     1       2.411   2.720  -0.483  0.00  0.00    +0.000 C 
ENDROOT
BRANCH  11  14
ATOM     14  O   UNL     1       5.367  -4.503   0.931  0.00  0.00    +0.000 OA
BRANCH  14  15
ATOM     15  C   UNL     1       6.783  -4.453   1.077  0.00  0.00    +0.000 C 
BRANCH  15  16
ATOM     16  C   UNL     1       7.264  -5.857   1.354  0.00  0.00    +0.000 A 
ATOM     17  C   UNL     1       7.396  -6.315   2.674  0.00  0.00    +0.000 A 
ATOM     18  C   UNL     1       7.816  -7.620   2.919  0.00  0.00    +0.000 A 
ATOM     19  C   UNL     1       8.100  -8.478   1.864  0.00  0.00    +0.000 A 
ATOM     20  C   UNL     1       7.962  -8.046   0.550  0.00  0.00    +0.000 A 
ATOM     21  C   UNL     1       7.540  -6.738   0.294  0.00  0.00    +0.000 A 
ATOM     22  F   UNL     1       8.504  -9.733   2.104  0.00  0.00    +0.000 F 
ATOM     23  F   UNL     1       7.943  -8.041   4.184  0.00  0.00    +0.000 F 
ENDBRANCH  15  16
ENDBRANCH  14  15
ENDBRANCH  11  14
TORSDOF 3
