REMARK  Name = *****
REMARK  3 active torsions:
REMARK  status: ('A' for Active; 'I' for Inactive)
REMARK    1  A    between atoms: C_10  and  C_11
REMARK    2  A    between atoms: C_11  and  C_12
REMARK    3  A    between atoms: C_11  and  O_23
REMARK                            x       y       z     vdW  Elec       q    Type
REMARK                         _______ _______ _______ _____ _____    ______ ____
ROOT
ATOM      1  C   UNL     1      -1.386   2.932   0.051  0.00  0.00    +0.000 C 
ENDROOT
BRANCH   1   2
ATOM      2  C   UNL     1      -1.374   3.536  -1.337  0.00  0.00    +0.000 A 
ATOM      3  C   UNL     1      -2.432   3.357  -2.236  0.00  0.00    +0.000 A 
ATOM      4  C   UNL     1      -2.396   3.894  -3.521  0.00  0.00    +0.000 A 
ATOM      5  C   UNL     1      -1.297   4.629  -3.935  0.00  0.00    +0.000 A 
ATOM      6  C   UNL     1      -0.242   4.835  -3.061  0.00  0.00    +0.000 A 
ATOM      7  C   UNL     1      -0.284   4.297  -1.776  0.00  0.00    +0.000 A 
ATOM      8  F   UNL     1       0.742   4.534  -0.946  0.00  0.00    +0.000 F 
ATOM      9  F   UNL     1       0.818   5.559  -3.447  0.00  0.00    +0.000 F 
ATOM     10  F   UNL     1      -1.262   5.151  -5.169  0.00  0.00    +0.000 F 
ATOM     11  F   UNL     1      -3.433   3.710  -4.350  0.00  0.00    +0.000 F 
ATOM     12  F   UNL     1      -3.529   2.695  -1.842  0.00  0.00    +0.000 F 
ENDBRANCH   1   2
BRANCH   1  22
ATOM     13  C   UNL     1       2.470  -0.671  -0.222  0.00  0.00    +0.000 A 
ATOM     14  C   UNL     1       2.470   0.713  -0.152  0.00  0.00    +0.000 A 
ATOM     15  C   UNL     1       1.261   1.408  -0.056  0.00  0.00    +0.000 A 
ATOM     16  C   UNL     1       0.009   0.746  -0.033  0.00  0.00    +0.000 A 
ATOM     17  C   UNL     1       0.038  -0.674  -0.093  0.00  0.00    +0.000 A 
ATOM     18  C   UNL     1       1.261  -1.359  -0.189  0.00  0.00    +0.000 A 
ATOM     19  C   UNL     1      -1.155  -1.407  -0.054  0.00  0.00    +0.000 A 
ATOM     20  C   UNL     1      -2.382  -0.764   0.046  0.00  0.00    +0.000 A 
ATOM     21  C   UNL     1      -2.432   0.624   0.096  0.00  0.00    +0.000 A 
ATOM     22  C   UNL     1      -1.258   1.406   0.053  0.00  0.00    +0.000 A 
ENDBRANCH   1  22
BRANCH   1  23
ATOM     23  O   UNL     1      -2.558   3.346   0.765  0.00  0.00    +0.000 OA
ATOM     24  H   UNL     1      -3.348   3.011   0.313  0.00  0.00    +0.000 HD
ENDBRANCH   1  23
TORSDOF 3
