REMARK  Name = *****
REMARK  6 active torsions:
REMARK  status: ('A' for Active; 'I' for Inactive)
REMARK    1  A    between atoms: C_1  and  C_2
REMARK    2  A    between atoms: C_2  and  O_3
REMARK    3  A    between atoms: O_3  and  C_4
REMARK    4  A    between atoms: C_4  and  C_5
REMARK    5  A    between atoms: C_4  and  O_11
REMARK    6  A    between atoms: O_11  and  C_12
REMARK                            x       y       z     vdW  Elec       q    Type
REMARK                         _______ _______ _______ _____ _____    ______ ____
ROOT
ATOM      1  C   UNL     1       4.324  -0.781   0.876  0.00  0.00    +0.000 C 
ENDROOT
BRANCH   1   2
ATOM      2  C   UNL     1       4.784   0.478   1.593  0.00  0.00    +0.000 A 
ATOM      3  C   UNL     1       4.363   0.747   2.906  0.00  0.00    +0.000 A 
ATOM      4  C   UNL     1       4.785   1.902   3.566  0.00  0.00    +0.000 A 
ATOM      5  C   UNL     1       5.636   2.799   2.924  0.00  0.00    +0.000 A 
ATOM      6  C   UNL     1       6.068   2.541   1.624  0.00  0.00    +0.000 A 
ATOM      7  C   UNL     1       5.648   1.386   0.962  0.00  0.00    +0.000 A 
ENDBRANCH   1   2
BRANCH   1   8
ATOM      8  O   UNL     1       2.897  -0.890   0.945  0.00  0.00    +0.000 OA
BRANCH   8  10
ATOM      9  C   UNL     1       0.740  -0.292   0.130  0.00  0.00    +0.000 C 
ATOM     10  C   UNL     1       2.232  -0.049   0.007  0.00  0.00    +0.000 C 
ENDBRANCH   8  10
ENDBRANCH   1   8
BRANCH   1  11
ATOM     11  O   UNL     1       4.963  -1.876   1.544  0.00  0.00    +0.000 OA
BRANCH  11  12
ATOM     12  C   UNL     1       4.935  -3.107   0.950  0.00  0.00    +0.000 A 
ATOM     13  C   UNL     1       4.206  -3.461  -0.183  0.00  0.00    +0.000 A 
ATOM     14  C   UNL     1       4.276  -4.768  -0.673  0.00  0.00    +0.000 A 
ATOM     15  C   UNL     1       5.066  -5.727  -0.042  0.00  0.00    +0.000 A 
ATOM     16  C   UNL     1       5.790  -5.378   1.095  0.00  0.00    +0.000 A 
ATOM     17  C   UNL     1       5.722  -4.073   1.587  0.00  0.00    +0.000 A 
ATOM     18 CL   UNL     1       3.375  -5.200  -2.076  0.00  0.00    +0.000 Cl
ENDBRANCH  11  12
ENDBRANCH   1  11
TORSDOF 5
