REMARK  Name = *****
REMARK  5 active torsions:
REMARK  status: ('A' for Active; 'I' for Inactive)
REMARK    1  A    between atoms: C_1  and  C_2
REMARK    2  A    between atoms: C_2  and  O_3
REMARK    3  A    between atoms: O_3  and  C_4
REMARK    4  A    between atoms: C_4  and  C_6
REMARK    5  A    between atoms: C_6  and  C_16
REMARK                            x       y       z     vdW  Elec       q    Type
REMARK                         _______ _______ _______ _____ _____    ______ ____
ROOT
ATOM      1  C   UNL     1       5.021  -2.384  -2.099  0.00  0.00    +0.000 C 
ATOM      2  C   UNL     1       6.486  -2.813  -1.975  0.00  0.00    +0.000 C 
ATOM      3  C   UNL     1       7.605  -2.100  -2.168  0.00  0.00    +0.000 C 
ATOM      4  C   UNL     1       6.435  -4.218  -1.626  0.00  0.00    +0.000 A 
ATOM      5  C   UNL     1       7.427  -5.138  -1.326  0.00  0.00    +0.000 A 
ATOM      6  C   UNL     1       7.051  -6.452  -1.025  0.00  0.00    +0.000 A 
ATOM      7  C   UNL     1       5.699  -6.825  -1.029  0.00  0.00    +0.000 A 
ATOM      8  C   UNL     1       4.709  -5.889  -1.332  0.00  0.00    +0.000 A 
ATOM      9  C   UNL     1       5.104  -4.597  -1.623  0.00  0.00    +0.000 A 
ATOM     10  O   UNL     1       4.218  -3.603  -1.946  0.00  0.00    +0.000 OA
ENDROOT
BRANCH   1  11
ATOM     11  C   UNL     1       4.709  -1.741  -3.461  0.00  0.00    +0.000 A 
ATOM     12  C   UNL     1       4.864  -0.357  -3.671  0.00  0.00    +0.000 A 
ATOM     13  C   UNL     1       4.603   0.215  -4.919  0.00  0.00    +0.000 A 
ATOM     14  C   UNL     1       4.191  -0.583  -5.982  0.00  0.00    +0.000 A 
ATOM     15  C   UNL     1       4.047  -1.956  -5.802  0.00  0.00    +0.000 A 
ATOM     16  C   UNL     1       4.308  -2.530  -4.555  0.00  0.00    +0.000 A 
ENDBRANCH   1  11
BRANCH   1  17
ATOM     17  C   UNL     1       4.619  -1.454  -0.911  0.00  0.00    +0.000 C 
ATOM     18  O   UNL     1       5.376  -0.686  -0.322  0.00  0.00    +0.000 OA
BRANCH  17  19
ATOM     19  O   UNL     1       3.276  -1.540  -0.648  0.00  0.00    +0.000 OA
BRANCH  19  21
ATOM     20  C   UNL     1       2.955  -1.400   1.747  0.00  0.00    +0.000 C 
ATOM     21  C   UNL     1       2.782  -0.706   0.408  0.00  0.00    +0.000 C 
ENDBRANCH  19  21
ENDBRANCH  17  19
ENDBRANCH   1  17
TORSDOF 4
