REMARK  Name = *****
REMARK  3 active torsions:
REMARK  status: ('A' for Active; 'I' for Inactive)
REMARK    1  A    between atoms: C_1  and  O_2
REMARK    2  A    between atoms: O_2  and  C_3
REMARK    3  A    between atoms: C_4  and  C_13
REMARK                            x       y       z     vdW  Elec       q    Type
REMARK                         _______ _______ _______ _____ _____    ______ ____
ROOT
ATOM      1  C   UNL     1       2.887   0.274  -1.339  0.00  0.00    +0.000 C 
ATOM      2  C   UNL     1       2.091  -0.046  -2.622  0.00  0.00    +0.000 C 
ATOM      3  C   UNL     1       1.851  -1.557  -2.712  0.00  0.00    +0.000 C 
ATOM      4  C   UNL     1       3.072  -2.344  -2.336  0.00  0.00    +0.000 A 
ATOM      5  C   UNL     1       3.169  -3.696  -2.697  0.00  0.00    +0.000 A 
ATOM      6  C   UNL     1       4.290  -4.446  -2.340  0.00  0.00    +0.000 A 
ATOM      7  C   UNL     1       5.320  -3.853  -1.614  0.00  0.00    +0.000 A 
ATOM      8  C   UNL     1       5.224  -2.513  -1.242  0.00  0.00    +0.000 A 
ATOM      9  C   UNL     1       4.098  -1.764  -1.591  0.00  0.00    +0.000 A 
ATOM     10  O   UNL     1       4.112  -0.456  -1.197  0.00  0.00    +0.000 OA
ENDROOT
BRANCH   2  11
ATOM     11  C   UNL     1       2.645   0.528  -3.924  0.00  0.00    +0.000 A 
ATOM     12  C   UNL     1       4.015   0.683  -4.178  0.00  0.00    +0.000 A 
ATOM     13  C   UNL     1       4.463   1.204  -5.395  0.00  0.00    +0.000 A 
ATOM     14  C   UNL     1       3.551   1.574  -6.380  0.00  0.00    +0.000 A 
ATOM     15  C   UNL     1       2.188   1.419  -6.150  0.00  0.00    +0.000 A 
ATOM     16  C   UNL     1       1.739   0.899  -4.935  0.00  0.00    +0.000 A 
ENDBRANCH   2  11
BRANCH   1  18
ATOM     17  C   UNL     1       2.600   0.523   1.003  0.00  0.00    +0.000 C 
ATOM     18  O   UNL     1       2.017   0.068  -0.210  0.00  0.00    +0.000 OA
ENDBRANCH   1  18
TORSDOF 2
