REMARK  Name = *****
REMARK  1 active torsions:
REMARK  status: ('A' for Active; 'I' for Inactive)
REMARK    1  A    between atoms: C_10  and  C_13
REMARK                            x       y       z     vdW  Elec       q    Type
REMARK                         _______ _______ _______ _____ _____    ______ ____
ROOT
ATOM      1  C   UNL     1      -2.702   0.521   0.746  0.00  0.00    +0.000 A 
ATOM      2  C   UNL     1      -2.722  -0.871   0.662  0.00  0.00    +0.000 A 
ATOM      3  C   UNL     1      -1.565  -1.566   0.305  0.00  0.00    +0.000 A 
ATOM      4  C   UNL     1      -0.383  -0.875   0.024  0.00  0.00    +0.000 A 
ATOM      5  C   UNL     1      -0.366   0.516   0.109  0.00  0.00    +0.000 A 
ATOM      6  C   UNL     1      -1.524   1.216   0.471  0.00  0.00    +0.000 A 
ATOM      7  C   UNL     1       0.869   1.261  -0.182  0.00  0.00    +0.000 C 
ATOM      8  O   UNL     1       0.937   2.478  -0.071  0.00  0.00    +0.000 OA
ATOM      9  C   UNL     1       2.013   0.490  -0.676  0.00  0.00    +0.000 C 
ATOM     10  C   UNL     1       1.901  -1.008  -0.748  0.00  0.00    +0.000 C 
ATOM     11  O   UNL     1       2.655  -0.350   0.292  0.00  0.00    +0.000 OA
ATOM     12  O   UNL     1       0.693  -1.658  -0.297  0.00  0.00    +0.000 OA
ENDROOT
BRANCH  10  13
ATOM     13  C   UNL     1       2.683  -1.752  -1.805  0.00  0.00    +0.000 A 
ATOM     14  C   UNL     1       2.280  -1.732  -3.153  0.00  0.00    +0.000 A 
ATOM     15  C   UNL     1       2.993  -2.424  -4.138  0.00  0.00    +0.000 A 
ATOM     16  C   UNL     1       4.125  -3.152  -3.787  0.00  0.00    +0.000 A 
ATOM     17  C   UNL     1       4.547  -3.196  -2.462  0.00  0.00    +0.000 A 
ATOM     18  C   UNL     1       3.828  -2.504  -1.483  0.00  0.00    +0.000 A 
ATOM     19 CL   UNL     1       5.004  -4.003  -4.996  0.00  0.00    +0.000 Cl
ENDBRANCH  10  13
TORSDOF 1
