REMARK  Name = *****
REMARK  5 active torsions:
REMARK  status: ('A' for Active; 'I' for Inactive)
REMARK    1  A    between atoms: C_2  and  C_3
REMARK    2  A    between atoms: C_3  and  C_4
REMARK    3  A    between atoms: C_3  and  C_10
REMARK    4  A    between atoms: C_10  and  C_11
REMARK    5  A    between atoms: C_10  and  O_17
REMARK                            x       y       z     vdW  Elec       q    Type
REMARK                         _______ _______ _______ _____ _____    ______ ____
ROOT
ATOM      1  C   UNL     1       2.969   0.925  -1.058  0.00  0.00    +0.000 C 
ENDROOT
BRANCH   1   2
ATOM      2  C   UNL     1       2.631   2.452  -1.017  0.00  0.00    +0.000 C 
ATOM      3  C   UNL     1       3.054   3.157   0.286  0.00  0.00    +0.000 C 
ATOM      4  C   UNL     1       2.726   4.650   0.253  0.00  0.00    +0.000 C 
ATOM      5  C   UNL     1       1.252   4.900  -0.048  0.00  0.00    +0.000 C 
ATOM      6  C   UNL     1       0.819   4.206  -1.335  0.00  0.00    +0.000 C 
ATOM      7  C   UNL     1       1.136   2.712  -1.300  0.00  0.00    +0.000 C 
ENDBRANCH   1   2
BRANCH   1   9
ATOM      8  C   UNL     1       1.290  -0.807  -0.303  0.00  0.00    +0.000 C 
ATOM      9  C   UNL     1       2.198   0.134  -0.013  0.00  0.00    +0.000 C 
ENDBRANCH   1   9
BRANCH   1  10
ATOM     10  C   UNL     1       4.500   0.646  -0.941  0.00  0.00    +0.000 C 
BRANCH  10  11
ATOM     11  C   UNL     1       4.887  -0.793  -1.242  0.00  0.00    +0.000 A 
ATOM     12  C   UNL     1       4.752  -1.322  -2.536  0.00  0.00    +0.000 A 
ATOM     13  C   UNL     1       5.114  -2.642  -2.806  0.00  0.00    +0.000 A 
ATOM     14  C   UNL     1       5.616  -3.449  -1.788  0.00  0.00    +0.000 A 
ATOM     15  C   UNL     1       5.757  -2.937  -0.499  0.00  0.00    +0.000 A 
ATOM     16  C   UNL     1       5.395  -1.617  -0.227  0.00  0.00    +0.000 A 
ENDBRANCH  10  11
BRANCH  10  17
ATOM     17  O   UNL     1       5.232   1.502  -1.827  0.00  0.00    +0.000 OA
ATOM     18  H   UNL     1       4.988   1.302  -2.744  0.00  0.00    +0.000 HD
ENDBRANCH  10  17
ENDBRANCH   1  10
TORSDOF 5
