REMARK  Name = *****
REMARK  5 active torsions:
REMARK  status: ('A' for Active; 'I' for Inactive)
REMARK    1  A    between atoms: C_1  and  C_2
REMARK    2  A    between atoms: C_11  and  O_14
REMARK    3  A    between atoms: C_12  and  C_13
REMARK    4  A    between atoms: O_14  and  C_15
REMARK    5  A    between atoms: C_15  and  C_16
REMARK                            x       y       z     vdW  Elec       q    Type
REMARK                         _______ _______ _______ _____ _____    ______ ____
ROOT
ATOM      1  C   UNL     1       0.942  -0.024   0.250  0.00  0.00    +0.000 C 
ATOM      2  C   UNL     1       2.428   0.037   0.049  0.00  0.00    +0.000 A 
ATOM      3  C   UNL     1       3.057   1.206  -0.138  0.00  0.00    +0.000 A 
ATOM      4  C   UNL     1       4.507   1.323  -0.339  0.00  0.00    +0.000 A 
ATOM      5  O   UNL     1       5.032   2.419  -0.497  0.00  0.00    +0.000 OA
ATOM      6  O   UNL     1       5.231   0.145  -0.338  0.00  0.00    +0.000 OA
ATOM      7  C   UNL     1       4.613  -1.113  -0.147  0.00  0.00    +0.000 A 
ATOM      8  C   UNL     1       3.228  -1.198   0.054  0.00  0.00    +0.000 A 
ATOM      9  C   UNL     1       2.671  -2.467   0.244  0.00  0.00    +0.000 A 
ATOM     10  C   UNL     1       3.482  -3.605   0.251  0.00  0.00    +0.000 A 
ATOM     11  C   UNL     1       4.861  -3.485   0.076  0.00  0.00    +0.000 A 
ATOM     12  C   UNL     1       5.451  -2.242  -0.168  0.00  0.00    +0.000 A 
ATOM     13  C   UNL     1       6.928  -2.098  -0.400  0.00  0.00    +0.000 C 
ENDROOT
BRANCH  11  14
ATOM     14  O   UNL     1       5.603  -4.637   0.079  0.00  0.00    +0.000 OA
BRANCH  14  15
ATOM     15  C   UNL     1       6.088  -4.917   1.400  0.00  0.00    +0.000 C 
BRANCH  15  16
ATOM     16  C   UNL     1       6.651  -6.321   1.458  0.00  0.00    +0.000 A 
ATOM     17  C   UNL     1       7.341  -6.875   0.366  0.00  0.00    +0.000 A 
ATOM     18  C   UNL     1       7.879  -8.160   0.446  0.00  0.00    +0.000 A 
ATOM     19  C   UNL     1       7.742  -8.889   1.621  0.00  0.00    +0.000 A 
ATOM     20  C   UNL     1       7.080  -8.355   2.719  0.00  0.00    +0.000 A 
ATOM     21  C   UNL     1       6.539  -7.071   2.641  0.00  0.00    +0.000 A 
ATOM     22  F   UNL     1       8.259 -10.122   1.698  0.00  0.00    +0.000 F 
ENDBRANCH  15  16
ENDBRANCH  14  15
ENDBRANCH  11  14
TORSDOF 3
