REMARK  Name = *****
REMARK  3 active torsions:
REMARK  status: ('A' for Active; 'I' for Inactive)
REMARK    1  A    between atoms: C_1  and  O_2
REMARK    2  A    between atoms: O_2  and  C_3
REMARK    3  A    between atoms: C_6  and  C_9
REMARK                            x       y       z     vdW  Elec       q    Type
REMARK                         _______ _______ _______ _____ _____    ______ ____
ROOT
ATOM      1  C   UNL     1       5.469  -4.401  -2.135  0.00  0.00    +0.000 C 
ATOM      2  C   UNL     1       4.492  -5.592  -2.193  0.00  0.00    +0.000 C 
ATOM      3  C   UNL     1       5.076  -6.385  -3.335  0.00  0.00    +0.000 C 
ATOM      4  C   UNL     1       4.216  -7.424  -4.029  0.00  0.00    +0.000 C 
ATOM      5  C   UNL     1       4.982  -7.979  -5.239  0.00  0.00    +0.000 C 
ATOM      6  C   UNL     1       5.511  -6.879  -6.174  0.00  0.00    +0.000 C 
ATOM      7  C   UNL     1       6.271  -5.772  -5.432  0.00  0.00    +0.000 C 
ATOM      8  C   UNL     1       5.420  -5.257  -4.286  0.00  0.00    +0.000 C 
ATOM      9  O   UNL     1       6.058  -4.282  -3.461  0.00  0.00    +0.000 OA
ENDROOT
BRANCH   1  13
ATOM     10  C   UNL     1       3.632  -0.733  -0.721  0.00  0.00    +0.000 A 
ATOM     11  C   UNL     1       3.648  -1.874   0.079  0.00  0.00    +0.000 A 
ATOM     12  C   UNL     1       4.240  -3.054  -0.390  0.00  0.00    +0.000 A 
ATOM     13  C   UNL     1       4.821  -3.117  -1.667  0.00  0.00    +0.000 A 
ATOM     14  C   UNL     1       4.800  -1.963  -2.459  0.00  0.00    +0.000 A 
ATOM     15  C   UNL     1       4.208  -0.786  -1.990  0.00  0.00    +0.000 A 
BRANCH  10  17
ATOM     16  C   UNL     1       2.560   0.603   0.927  0.00  0.00    +0.000 C 
ATOM     17  O   UNL     1       3.094   0.479  -0.385  0.00  0.00    +0.000 OA
ENDBRANCH  10  17
ENDBRANCH   1  13
TORSDOF 2
