REMARK  Name = *****
REMARK  5 active torsions:
REMARK  status: ('A' for Active; 'I' for Inactive)
REMARK    1  A    between atoms: C_1  and  N_2
REMARK    2  A    between atoms: N_2  and  C_3
REMARK    3  A    between atoms: N_2  and  S_11
REMARK    4  A    between atoms: C_3  and  C_4
REMARK    5  A    between atoms: S_11  and  C_14
REMARK                            x       y       z     vdW  Elec       q    Type
REMARK                         _______ _______ _______ _____ _____    ______ ____
ROOT
ATOM      1  C   UNL     1       0.849  -0.114   0.342  0.00  0.00    +0.000 C 
ATOM      2  N   UNL     1       2.328  -0.027   0.301  0.00  0.00    +0.000 NA
ENDROOT
BRANCH   2   3
ATOM      3  S   UNL     1       3.118  -0.996   1.463  0.00  0.00    +0.000 S 
ATOM      4  O   UNL     1       4.548  -0.868   1.281  0.00  0.00    +0.000 OA
ATOM      5  O   UNL     1       2.498  -0.728   2.744  0.00  0.00    +0.000 OA
BRANCH   3   6
ATOM      6  C   UNL     1       2.755  -2.703   1.124  0.00  0.00    +0.000 A 
ATOM      7  C   UNL     1       2.257  -3.720   1.916  0.00  0.00    +0.000 A 
ATOM      8  C   UNL     1       2.126  -4.947   1.203  0.00  0.00    +0.000 A 
ATOM      9  C   UNL     1       2.530  -4.825  -0.108  0.00  0.00    +0.000 A 
ATOM     10  S   UNL     1       3.063  -3.240  -0.472  0.00  0.00    +0.000 S 
ENDBRANCH   3   6
ENDBRANCH   2   3
BRANCH   2  11
ATOM     11  C   UNL     1       2.813   1.379   0.319  0.00  0.00    +0.000 C 
BRANCH  11  12
ATOM     12  C   UNL     1       2.451   2.146  -0.936  0.00  0.00    +0.000 A 
ATOM     13  C   UNL     1       1.716   3.340  -0.861  0.00  0.00    +0.000 A 
ATOM     14  C   UNL     1       1.393   4.042  -2.024  0.00  0.00    +0.000 A 
ATOM     15  C   UNL     1       1.806   3.554  -3.258  0.00  0.00    +0.000 A 
ATOM     16  C   UNL     1       2.539   2.378  -3.354  0.00  0.00    +0.000 A 
ATOM     17  C   UNL     1       2.863   1.674  -2.194  0.00  0.00    +0.000 A 
ATOM     18  F   UNL     1       1.493   4.230  -4.371  0.00  0.00    +0.000 F 
ENDBRANCH  11  12
ENDBRANCH   2  11
TORSDOF 4
