REMARK  Name = *****
REMARK  2 active torsions:
REMARK  status: ('A' for Active; 'I' for Inactive)
REMARK    1  A    between atoms: C_1  and  C_2
REMARK    2  A    between atoms: C_11  and  C_13
REMARK                            x       y       z     vdW  Elec       q    Type
REMARK                         _______ _______ _______ _____ _____    ______ ____
ROOT
ATOM      1  C   UNL     1       1.136   0.174   0.084  0.00  0.00    +0.000 C 
ATOM      2  C   UNL     1       2.634   0.094   0.040  0.00  0.00    +0.000 A 
ATOM      3  C   UNL     1       3.401   1.253  -0.142  0.00  0.00    +0.000 A 
ATOM      4  C   UNL     1       4.792   1.174  -0.207  0.00  0.00    +0.000 A 
ATOM      5  C   UNL     1       5.420  -0.069  -0.133  0.00  0.00    +0.000 A 
ATOM      6  C   UNL     1       4.668  -1.233   0.037  0.00  0.00    +0.000 A 
ATOM      7  C   UNL     1       3.277  -1.149   0.122  0.00  0.00    +0.000 A 
ATOM      8  C   UNL     1       6.887  -0.135  -0.286  0.00  0.00    +0.000 C 
ATOM      9  O   UNL     1       7.483  -1.204  -0.211  0.00  0.00    +0.000 OA
ATOM     10  C   UNL     1       7.581   1.157  -0.611  0.00  0.00    +0.000 C 
ATOM     11  C   UNL     1       6.830   2.286   0.082  0.00  0.00    +0.000 C 
ATOM     12  O   UNL     1       5.468   2.354  -0.372  0.00  0.00    +0.000 OA
ENDROOT
BRANCH  11  13
ATOM     13  C   UNL     1       7.508   3.617  -0.188  0.00  0.00    +0.000 A 
ATOM     14  C   UNL     1       7.264   4.337  -1.368  0.00  0.00    +0.000 A 
ATOM     15  C   UNL     1       7.918   5.546  -1.613  0.00  0.00    +0.000 A 
ATOM     16  C   UNL     1       8.827   6.048  -0.685  0.00  0.00    +0.000 A 
ATOM     17  C   UNL     1       9.085   5.342   0.488  0.00  0.00    +0.000 A 
ATOM     18  C   UNL     1       8.432   4.133   0.735  0.00  0.00    +0.000 A 
ENDBRANCH  11  13
TORSDOF 1
