REMARK  Name = *****
REMARK  5 active torsions:
REMARK  status: ('A' for Active; 'I' for Inactive)
REMARK    1  A    between atoms: C_1  and  O_2
REMARK    2  A    between atoms: O_2  and  C_3
REMARK    3  A    between atoms: C_4  and  C_15
REMARK    4  A    between atoms: C_5  and  O_13
REMARK    5  A    between atoms: O_13  and  C_14
REMARK                            x       y       z     vdW  Elec       q    Type
REMARK                         _______ _______ _______ _____ _____    ______ ____
ROOT
ATOM      1  C   UNL     1       2.816  -1.355   0.449  0.00  0.00    +0.000 C 
ATOM      2  C   UNL     1       3.826  -1.771  -0.644  0.00  0.00    +0.000 C 
ATOM      3  C   UNL     1       4.284  -3.208  -0.325  0.00  0.00    +0.000 C 
ATOM      4  O   UNL     1       3.211  -4.156  -0.293  0.00  0.00    +0.000 OA
ATOM      5  C   UNL     1       2.067  -3.759   0.339  0.00  0.00    +0.000 A 
ATOM      6  C   UNL     1       1.129  -4.766   0.575  0.00  0.00    +0.000 A 
ATOM      7  C   UNL     1      -0.078  -4.470   1.207  0.00  0.00    +0.000 A 
ATOM      8  C   UNL     1      -0.349  -3.163   1.603  0.00  0.00    +0.000 A 
ATOM      9  C   UNL     1       0.584  -2.154   1.358  0.00  0.00    +0.000 A 
ATOM     10  C   UNL     1       1.796  -2.439   0.708  0.00  0.00    +0.000 A 
ENDROOT
BRANCH   2  11
ATOM     11  C   UNL     1       3.430  -1.627  -2.114  0.00  0.00    +0.000 A 
ATOM     12  C   UNL     1       2.101  -1.609  -2.559  0.00  0.00    +0.000 A 
ATOM     13  C   UNL     1       1.801  -1.490  -3.919  0.00  0.00    +0.000 A 
ATOM     14  C   UNL     1       2.824  -1.389  -4.858  0.00  0.00    +0.000 A 
ATOM     15  C   UNL     1       4.150  -1.405  -4.438  0.00  0.00    +0.000 A 
ATOM     16  C   UNL     1       4.450  -1.522  -3.079  0.00  0.00    +0.000 A 
ENDBRANCH   2  11
BRANCH   1  18
ATOM     17  C   UNL     1       2.993   1.024   0.331  0.00  0.00    +0.000 C 
ATOM     18  O   UNL     1       2.156  -0.111   0.163  0.00  0.00    +0.000 OA
ENDBRANCH   1  18
BRANCH   3  19
ATOM     19  O   UNL     1       5.030  -3.189   0.907  0.00  0.00    +0.000 OA
ATOM     20  C   UNL     1       5.633  -4.445   1.185  0.00  0.00    +0.000 C 
ENDBRANCH   3  19
TORSDOF 3
