REMARK  Name = *****
REMARK  6 active torsions:
REMARK  status: ('A' for Active; 'I' for Inactive)
REMARK    1  A    between atoms: C_1  and  C_2
REMARK    2  A    between atoms: C_2  and  C_3
REMARK    3  A    between atoms: C_3  and  N_4
REMARK    4  A    between atoms: C_6  and  C_9
REMARK    5  A    between atoms: C_9  and  O_10
REMARK    6  A    between atoms: O_10  and  C_11
REMARK                            x       y       z     vdW  Elec       q    Type
REMARK                         _______ _______ _______ _____ _____    ______ ____
ROOT
ATOM      1  O   UNL     1       7.615   1.670   0.707  0.00  0.00    +0.000 OA
ENDROOT
BRANCH   1   2
ATOM      2  C   UNL     1       8.681   2.524   0.658  0.00  0.00    +0.000 A 
ATOM      3  C   UNL     1       8.343   3.877   0.756  0.00  0.00    +0.000 A 
ATOM      4  C   UNL     1       9.325   4.880   0.711  0.00  0.00    +0.000 A 
ATOM      5  C   UNL     1       8.988   6.240   0.807  0.00  0.00    +0.000 A 
ATOM      6  C   UNL     1       9.976   7.224   0.756  0.00  0.00    +0.000 A 
ATOM      7  C   UNL     1      11.312   6.861   0.608  0.00  0.00    +0.000 A 
ATOM      8  C   UNL     1      11.662   5.513   0.512  0.00  0.00    +0.000 A 
ATOM      9  C   UNL     1      10.679   4.511   0.563  0.00  0.00    +0.000 A 
ATOM     10  C   UNL     1      11.010   3.150   0.472  0.00  0.00    +0.000 A 
ATOM     11  C   UNL     1      10.019   2.163   0.521  0.00  0.00    +0.000 A 
ENDBRANCH   1   2
BRANCH   1  12
ATOM     12  C   UNL     1       7.883   0.271   0.565  0.00  0.00    +0.000 C 
BRANCH  12  15
ATOM     13  N   UNL     1       4.610  -1.266   0.284  0.00  0.00    +0.000 N 
ATOM     14  C   UNL     1       5.351  -0.135   0.135  0.00  0.00    +0.000 A 
ATOM     15  C   UNL     1       6.621  -0.515   0.517  0.00  0.00    +0.000 A 
ATOM     16  N   UNL     1       6.603  -1.845   0.856  0.00  0.00    +0.000 NA
ATOM     17  N   UNL     1       5.364  -2.296   0.702  0.00  0.00    +0.000 NA
BRANCH  13  18
ATOM     18  C   UNL     1       3.201  -1.445   0.016  0.00  0.00    +0.000 C 
BRANCH  18  20
ATOM     19  C   UNL     1       2.354  -0.534   2.236  0.00  0.00    +0.000 C 
ATOM     20  C   UNL     1       2.360  -1.706   1.265  0.00  0.00    +0.000 C 
ENDBRANCH  18  20
ENDBRANCH  13  18
ENDBRANCH  12  15
ENDBRANCH   1  12
TORSDOF 5
