REMARK  Name = *****
REMARK  4 active torsions:
REMARK  status: ('A' for Active; 'I' for Inactive)
REMARK    1  A    between atoms: C_1  and  C_2
REMARK    2  A    between atoms: C_3  and  S_13
REMARK    3  A    between atoms: C_10  and  C_12
REMARK    4  A    between atoms: S_13  and  C_14
REMARK                            x       y       z     vdW  Elec       q    Type
REMARK                         _______ _______ _______ _____ _____    ______ ____
ROOT
ATOM      1  C   UNL     1       0.859   0.084  -0.228  0.00  0.00    +0.000 C 
ATOM      2  C   UNL     1       2.380   0.202  -0.160  0.00  0.00    +0.000 C 
ATOM      3  C   UNL     1       3.076  -0.936  -0.953  0.00  0.00    +0.000 C 
ATOM      4  O   UNL     1       3.533  -0.384  -2.222  0.00  0.00    +0.000 OA
ATOM      5  C   UNL     1       3.487   0.988  -2.025  0.00  0.00    +0.000 C 
ATOM      6  C   UNL     1       2.876   1.373  -0.912  0.00  0.00    +0.000 C 
ATOM      7  C   UNL     1       2.763   2.791  -0.554  0.00  0.00    +0.000 C 
ATOM      8  O   UNL     1       2.190   3.126   0.478  0.00  0.00    +0.000 OA
ATOM      9  C   UNL     1       3.305   3.804  -1.549  0.00  0.00    +0.000 C 
ATOM     10  C   UNL     1       4.477   3.259  -2.387  0.00  0.00    +0.000 C 
ATOM     11  C   UNL     1       4.140   1.891  -3.013  0.00  0.00    +0.000 C 
ATOM     12  C   UNL     1       5.761   3.187  -1.549  0.00  0.00    +0.000 C 
ENDROOT
BRANCH   3  13
ATOM     13  S   UNL     1       4.485  -1.639   0.003  0.00  0.00    +0.000 S 
BRANCH  13  14
ATOM     14  C   UNL     1       4.723  -3.170  -0.879  0.00  0.00    +0.000 A 
ATOM     15  C   UNL     1       5.119  -3.187  -2.219  0.00  0.00    +0.000 A 
ATOM     16  C   UNL     1       5.307  -4.402  -2.884  0.00  0.00    +0.000 A 
ATOM     17  C   UNL     1       5.108  -5.605  -2.209  0.00  0.00    +0.000 A 
ATOM     18  C   UNL     1       4.727  -5.595  -0.868  0.00  0.00    +0.000 A 
ATOM     19  C   UNL     1       4.540  -4.381  -0.204  0.00  0.00    +0.000 A 
ENDBRANCH  13  14
ENDBRANCH   3  13
TORSDOF 2
