REMARK  Name = *****
REMARK  6 active torsions:
REMARK  status: ('A' for Active; 'I' for Inactive)
REMARK    1  A    between atoms: C_1  and  C_2
REMARK    2  A    between atoms: C_6  and  C_7
REMARK    3  A    between atoms: C_6  and  C_8
REMARK    4  A    between atoms: C_12  and  C_14
REMARK    5  A    between atoms: C_14  and  C_15
REMARK    6  A    between atoms: C_14  and  O_21
REMARK                            x       y       z     vdW  Elec       q    Type
REMARK                         _______ _______ _______ _____ _____    ______ ____
ROOT
ATOM      1  C   UNL     1       1.867   1.203   0.629  0.00  0.00    +0.000 C 
ATOM      2  C   UNL     1       2.515  -0.064   0.108  0.00  0.00    +0.000 C 
ATOM      3  C   UNL     1       1.668  -0.795  -0.977  0.00  0.00    +0.000 C 
ATOM      4  C   UNL     1       2.696  -1.740  -1.636  0.00  0.00    +0.000 C 
ATOM      5  C   UNL     1       3.996  -1.439  -0.842  0.00  0.00    +0.000 C 
ATOM      6  C   UNL     1       3.889   0.101  -0.612  0.00  0.00    +0.000 C 
ATOM      7  C   UNL     1       5.014   0.754   0.206  0.00  0.00    +0.000 C 
ATOM      8  C   UNL     1       3.854   0.919  -1.929  0.00  0.00    +0.000 C 
ATOM      9  C   UNL     1       3.769  -2.099   0.545  0.00  0.00    +0.000 C 
ATOM     10  C   UNL     1       2.775  -1.144   1.206  0.00  0.00    +0.000 C 
ATOM     11  O   UNL     1       3.357  -0.667   2.416  0.00  0.00    +0.000 OA
ATOM     12  C   UNL     1       4.443  -1.553   2.792  0.00  0.00    +0.000 C 
ATOM     13  C   UNL     1       4.942  -2.185   1.494  0.00  0.00    +0.000 C 
ENDROOT
BRANCH  12  14
ATOM     14  C   UNL     1       3.954  -2.549   3.875  0.00  0.00    +0.000 C 
BRANCH  14  15
ATOM     15  C   UNL     1       5.088  -3.336   4.503  0.00  0.00    +0.000 A 
ATOM     16  C   UNL     1       5.945  -2.707   5.422  0.00  0.00    +0.000 A 
ATOM     17  C   UNL     1       7.007  -3.404   6.003  0.00  0.00    +0.000 A 
ATOM     18  C   UNL     1       7.227  -4.739   5.674  0.00  0.00    +0.000 A 
ATOM     19  C   UNL     1       6.386  -5.379   4.767  0.00  0.00    +0.000 A 
ATOM     20  C   UNL     1       5.324  -4.682   4.186  0.00  0.00    +0.000 A 
ENDBRANCH  14  15
BRANCH  14  21
ATOM     21  O   UNL     1       2.955  -3.431   3.351  0.00  0.00    +0.000 OA
ATOM     22  H   UNL     1       3.340  -3.972   2.643  0.00  0.00    +0.000 HD
ENDBRANCH  14  21
ENDBRANCH  12  14
TORSDOF 3
