REMARK  Name = *****
REMARK  2 active torsions:
REMARK  status: ('A' for Active; 'I' for Inactive)
REMARK    1  A    between atoms: C_1  and  C_2
REMARK    2  A    between atoms: C_11  and  C_13
REMARK                            x       y       z     vdW  Elec       q    Type
REMARK                         _______ _______ _______ _____ _____    ______ ____
ROOT
ATOM      1  C   UNL     1       0.965  -0.289  -0.433  0.00  0.00    +0.000 C 
ATOM      2  C   UNL     1       2.452  -0.241  -0.234  0.00  0.00    +0.000 C 
ATOM      3  C   UNL     1       3.126  -1.259   0.320  0.00  0.00    +0.000 C 
ATOM      4  C   UNL     1       4.585  -1.296   0.490  0.00  0.00    +0.000 A 
ATOM      5  C   UNL     1       5.168  -2.578   0.407  0.00  0.00    +0.000 A 
ATOM      6  C   UNL     1       6.538  -2.775   0.591  0.00  0.00    +0.000 A 
ATOM      7  C   UNL     1       7.354  -1.690   0.875  0.00  0.00    +0.000 A 
ATOM      8  C   UNL     1       6.792  -0.419   0.971  0.00  0.00    +0.000 A 
ATOM      9  C   UNL     1       5.416  -0.204   0.772  0.00  0.00    +0.000 A 
ATOM     10  O   UNL     1       5.083   1.102   0.960  0.00  0.00    +0.000 OA
ATOM     11  C   UNL     1       3.922   1.736   0.418  0.00  0.00    +0.000 C 
ATOM     12  C   UNL     1       3.160   0.998  -0.694  0.00  0.00    +0.000 C 
ENDROOT
BRANCH  11  13
ATOM     13  C   UNL     1       3.028   2.288   1.563  0.00  0.00    +0.000 C 
ATOM     14  C   UNL     1       2.825   1.309   2.732  0.00  0.00    +0.000 C 
ATOM     15  C   UNL     1       2.026   1.925   3.878  0.00  0.00    +0.000 C 
ATOM     16  C   UNL     1       2.732   3.161   4.415  0.00  0.00    +0.000 C 
ATOM     17  C   UNL     1       2.915   4.199   3.322  0.00  0.00    +0.000 C 
ATOM     18  C   UNL     1       3.592   3.610   2.101  0.00  0.00    +0.000 C 
ATOM     19  O   UNL     1       4.437   4.274   1.499  0.00  0.00    +0.000 OA
ENDBRANCH  11  13
TORSDOF 1
