REMARK  Name = *****
REMARK  5 active torsions:
REMARK  status: ('A' for Active; 'I' for Inactive)
REMARK    1  A    between atoms: C_1  and  C_2
REMARK    2  A    between atoms: C_3  and  C_4
REMARK    3  A    between atoms: C_3  and  C_10
REMARK    4  A    between atoms: C_10  and  C_11
REMARK    5  A    between atoms: C_10  and  O_17
REMARK                            x       y       z     vdW  Elec       q    Type
REMARK                         _______ _______ _______ _____ _____    ______ ____
ROOT
ATOM      1  C   UNL     1       1.247  -0.065  -2.493  0.00  0.00    +0.000 C 
ATOM      2  C   UNL     1       2.664  -0.113  -2.011  0.00  0.00    +0.000 C 
ATOM      3  C   UNL     1       3.156   0.335  -0.836  0.00  0.00    +0.000 C 
ENDROOT
BRANCH   3   4
ATOM      4  C   UNL     1       2.282   0.928   0.195  0.00  0.00    +0.000 A 
ATOM      5  C   UNL     1       1.359   0.135   0.890  0.00  0.00    +0.000 A 
ATOM      6  C   UNL     1       0.545   0.698   1.874  0.00  0.00    +0.000 A 
ATOM      7  C   UNL     1       0.649   2.055   2.173  0.00  0.00    +0.000 A 
ATOM      8  C   UNL     1       1.567   2.851   1.490  0.00  0.00    +0.000 A 
ATOM      9  C   UNL     1       2.383   2.290   0.505  0.00  0.00    +0.000 A 
ENDBRANCH   3   4
BRANCH   3  10
ATOM     10  C   UNL     1       4.634   0.287  -0.466  0.00  0.00    +0.000 C 
BRANCH  10  11
ATOM     11  C   UNL     1       5.339  -1.078  -0.688  0.00  0.00    +0.000 C 
ATOM     12  C   UNL     1       4.658  -2.207   0.108  0.00  0.00    +0.000 C 
ATOM     13  C   UNL     1       5.384  -3.541  -0.051  0.00  0.00    +0.000 C 
ATOM     14  C   UNL     1       6.857  -3.430   0.323  0.00  0.00    +0.000 C 
ATOM     15  C   UNL     1       7.548  -2.326  -0.468  0.00  0.00    +0.000 C 
ATOM     16  C   UNL     1       6.832  -0.987  -0.309  0.00  0.00    +0.000 C 
ENDBRANCH  10  11
BRANCH  10  17
ATOM     17  O   UNL     1       5.311   1.300  -1.219  0.00  0.00    +0.000 OA
ATOM     18  H   UNL     1       5.234   1.104  -2.166  0.00  0.00    +0.000 HD
ENDBRANCH  10  17
ENDBRANCH   3  10
TORSDOF 4
