REMARK  Name = *****
REMARK  2 active torsions:
REMARK  status: ('A' for Active; 'I' for Inactive)
REMARK    1  A    between atoms: C_1  and  C_2
REMARK    2  A    between atoms: C_2  and  C_13
REMARK                            x       y       z     vdW  Elec       q    Type
REMARK                         _______ _______ _______ _____ _____    ______ ____
ROOT
ATOM      1  C   UNL     1       1.135   0.183   0.161  0.00  0.00    +0.000 C 
ATOM      2  C   UNL     1       2.662  -0.011   0.065  0.00  0.00    +0.000 C 
ATOM      3  C   UNL     1       3.040  -1.181   0.984  0.00  0.00    +0.000 C 
ATOM      4  C   UNL     1       4.535  -1.303   1.060  0.00  0.00    +0.000 C 
ATOM      5  O   UNL     1       5.101  -2.380   1.216  0.00  0.00    +0.000 OA
ATOM      6  C   UNL     1       5.287  -0.037   1.032  0.00  0.00    +0.000 A 
ATOM      7  C   UNL     1       6.668  -0.021   1.248  0.00  0.00    +0.000 A 
ATOM      8  C   UNL     1       7.345   1.199   1.280  0.00  0.00    +0.000 A 
ATOM      9  C   UNL     1       6.642   2.392   1.105  0.00  0.00    +0.000 A 
ATOM     10  C   UNL     1       5.263   2.369   0.886  0.00  0.00    +0.000 A 
ATOM     11  C   UNL     1       4.586   1.152   0.833  0.00  0.00    +0.000 A 
ATOM     12  O   UNL     1       3.238   1.210   0.596  0.00  0.00    +0.000 OA
ENDROOT
BRANCH   2  13
ATOM     13  C   UNL     1       3.011  -0.166  -1.426  0.00  0.00    +0.000 A 
ATOM     14  C   UNL     1       3.055   0.974  -2.254  0.00  0.00    +0.000 A 
ATOM     15  C   UNL     1       3.358   0.873  -3.613  0.00  0.00    +0.000 A 
ATOM     16  C   UNL     1       3.618  -0.371  -4.177  0.00  0.00    +0.000 A 
ATOM     17  C   UNL     1       3.571  -1.513  -3.382  0.00  0.00    +0.000 A 
ATOM     18  C   UNL     1       3.267  -1.413  -2.020  0.00  0.00    +0.000 A 
ENDBRANCH   2  13
TORSDOF 1
