REMARK  Name = *****
REMARK  5 active torsions:
REMARK  status: ('A' for Active; 'I' for Inactive)
REMARK    1  A    between atoms: C_1  and  C_2
REMARK    2  A    between atoms: C_2  and  C_3
REMARK    3  A    between atoms: C_2  and  N_9
REMARK    4  A    between atoms: N_9  and  S_10
REMARK    5  A    between atoms: S_10  and  C_13
REMARK                            x       y       z     vdW  Elec       q    Type
REMARK                         _______ _______ _______ _____ _____    ______ ____
ROOT
ATOM      1  N   UNL     1       3.680  -0.675  -0.938  0.00  0.00    +0.000 NA
ATOM      2 CL   UNL     1       2.920  -2.077  -1.587  0.00  0.00    +0.000 Cl
ENDROOT
BRANCH   1   3
ATOM      3  S   UNL     1       5.278  -0.405  -1.459  0.00  0.00    +0.000 S 
ATOM      4  O   UNL     1       6.193  -0.866  -0.435  0.00  0.00    +0.000 OA
ATOM      5  O   UNL     1       5.429  -0.822  -2.839  0.00  0.00    +0.000 OA
BRANCH   3   6
ATOM      6  C   UNL     1       5.351   1.376  -1.476  0.00  0.00    +0.000 A 
ATOM      7  C   UNL     1       6.176   2.055  -0.575  0.00  0.00    +0.000 A 
ATOM      8  C   UNL     1       6.214   3.449  -0.601  0.00  0.00    +0.000 A 
ATOM      9  C   UNL     1       5.438   4.153  -1.525  0.00  0.00    +0.000 A 
ATOM     10  C   UNL     1       4.626   3.468  -2.431  0.00  0.00    +0.000 A 
ATOM     11  C   UNL     1       4.582   2.075  -2.413  0.00  0.00    +0.000 A 
ENDBRANCH   3   6
ENDBRANCH   1   3
BRANCH   1  13
ATOM     12  C   UNL     1       2.033   0.584   0.357  0.00  0.00    +0.000 C 
ATOM     13  C   UNL     1       3.317  -0.254   0.444  0.00  0.00    +0.000 C 
BRANCH  13  14
ATOM     14  C   UNL     1       3.244  -1.381   1.470  0.00  0.00    +0.000 A 
ATOM     15  C   UNL     1       2.060  -2.088   1.738  0.00  0.00    +0.000 A 
ATOM     16  C   UNL     1       2.036  -3.117   2.684  0.00  0.00    +0.000 A 
ATOM     17  C   UNL     1       3.196  -3.460   3.374  0.00  0.00    +0.000 A 
ATOM     18  C   UNL     1       4.381  -2.777   3.116  0.00  0.00    +0.000 A 
ATOM     19  C   UNL     1       4.405  -1.749   2.172  0.00  0.00    +0.000 A 
ENDBRANCH  13  14
ENDBRANCH   1  13
TORSDOF 4
