REMARK  Name = *****
REMARK  2 active torsions:
REMARK  status: ('A' for Active; 'I' for Inactive)
REMARK    1  A    between atoms: C_1  and  C_2
REMARK    2  A    between atoms: P_4  and  C_13
REMARK                            x       y       z     vdW  Elec       q    Type
REMARK                         _______ _______ _______ _____ _____    ______ ____
ROOT
ATOM      1  C   UNL     1       1.090   0.084   0.540  0.00  0.00    +0.000 C 
ATOM      2  C   UNL     1       2.458   0.156  -0.088  0.00  0.00    +0.000 C 
ATOM      3  C   UNL     1       2.924  -0.897  -0.787  0.00  0.00    +0.000 C 
ATOM      4  P   UNL     1       4.487  -0.941  -1.582  0.00  0.00    +0.000 P 
ATOM      5  O   UNL     1       4.617  -0.517  -3.027  0.00  0.00    +0.000 OA
ATOM      6  C   UNL     1       5.415   0.193  -0.514  0.00  0.00    +0.000 C 
ATOM      7  C   UNL     1       4.655   1.442  -0.142  0.00  0.00    +0.000 A 
ATOM      8  C   UNL     1       5.378   2.633   0.052  0.00  0.00    +0.000 A 
ATOM      9  C   UNL     1       4.728   3.803   0.431  0.00  0.00    +0.000 A 
ATOM     10  C   UNL     1       3.354   3.790   0.630  0.00  0.00    +0.000 A 
ATOM     11  C   UNL     1       2.630   2.607   0.454  0.00  0.00    +0.000 A 
ATOM     12  C   UNL     1       3.258   1.408   0.069  0.00  0.00    +0.000 A 
ENDROOT
BRANCH   4  13
ATOM     13  C   UNL     1       5.043  -2.601  -1.244  0.00  0.00    +0.000 A 
ATOM     14  C   UNL     1       5.469  -3.411  -2.307  0.00  0.00    +0.000 A 
ATOM     15  C   UNL     1       5.913  -4.714  -2.080  0.00  0.00    +0.000 A 
ATOM     16  C   UNL     1       5.938  -5.225  -0.784  0.00  0.00    +0.000 A 
ATOM     17  C   UNL     1       5.518  -4.434   0.283  0.00  0.00    +0.000 A 
ATOM     18  C   UNL     1       5.073  -3.131   0.055  0.00  0.00    +0.000 A 
ENDBRANCH   4  13
TORSDOF 1
