REMARK  Name = *****
REMARK  1 active torsions:
REMARK  status: ('A' for Active; 'I' for Inactive)
REMARK    1  A    between atoms: C_2  and  C_13
REMARK                            x       y       z     vdW  Elec       q    Type
REMARK                         _______ _______ _______ _____ _____    ______ ____
ROOT
ATOM      1  C   UNL     1      -2.474   0.804  -0.452  0.00  0.00    +0.000 C 
ATOM      2  C   UNL     1      -2.403  -0.555   0.232  0.00  0.00    +0.000 C 
ATOM      3  O   UNL     1      -1.268  -1.307  -0.231  0.00  0.00    +0.000 OA
ATOM      4  C   UNL     1      -0.081  -0.640  -0.079  0.00  0.00    +0.000 A 
ATOM      5  C   UNL     1       0.014   0.751   0.003  0.00  0.00    +0.000 A 
ATOM      6  C   UNL     1      -1.215   1.557  -0.127  0.00  0.00    +0.000 C 
ATOM      7  O   UNL     1      -1.181   2.779  -0.034  0.00  0.00    +0.000 OA
ATOM      8  C   UNL     1       1.258   1.368   0.164  0.00  0.00    +0.000 A 
ATOM      9  C   UNL     1       2.413   0.585   0.225  0.00  0.00    +0.000 A 
ATOM     10  C   UNL     1       2.315  -0.804   0.119  0.00  0.00    +0.000 A 
ATOM     11  C   UNL     1       1.073  -1.420  -0.037  0.00  0.00    +0.000 A 
ATOM     12 CL   UNL     1       3.741  -1.765   0.182  0.00  0.00    +0.000 Cl
ENDROOT
BRANCH   2  13
ATOM     13  C   UNL     1      -3.669  -1.350  -0.039  0.00  0.00    +0.000 A 
ATOM     14  C   UNL     1      -3.804  -2.147  -1.188  0.00  0.00    +0.000 A 
ATOM     15  C   UNL     1      -4.986  -2.851  -1.432  0.00  0.00    +0.000 A 
ATOM     16  C   UNL     1      -6.045  -2.758  -0.534  0.00  0.00    +0.000 A 
ATOM     17  C   UNL     1      -5.934  -1.966   0.606  0.00  0.00    +0.000 A 
ATOM     18  C   UNL     1      -4.752  -1.263   0.852  0.00  0.00    +0.000 A 
ATOM     19 CL   UNL     1      -7.501  -3.623  -0.836  0.00  0.00    +0.000 Cl
ENDBRANCH   2  13
TORSDOF 1
