REMARK  Name = *****
REMARK  1 active torsions:
REMARK  status: ('A' for Active; 'I' for Inactive)
REMARK    1  A    between atoms: C_3  and  C_11
REMARK                            x       y       z     vdW  Elec       q    Type
REMARK                         _______ _______ _______ _____ _____    ______ ____
ROOT
ATOM      1  C   UNL     1       1.691  -0.038  -0.978  0.00  0.00    +0.000 C 
ATOM      2  C   UNL     1       1.461  -1.390  -1.634  0.00  0.00    +0.000 C 
ATOM      3  C   UNL     1       1.212  -2.468  -0.575  0.00  0.00    +0.000 C 
ATOM      4  N   UNL     1       2.102  -2.387   0.596  0.00  0.00    +0.000 NA
ATOM      5  C   UNL     1       2.809  -1.334   0.831  0.00  0.00    +0.000 C 
ATOM      6  C   UNL     1       2.947  -0.147  -0.128  0.00  0.00    +0.000 C 
ATOM      7  C   UNL     1       3.270   1.130   0.601  0.00  0.00    +0.000 C 
ATOM      8  C   UNL     1       3.779   1.130   1.841  0.00  0.00    +0.000 C 
ATOM      9  C   UNL     1       4.032  -0.106   2.540  0.00  0.00    +0.000 C 
ATOM     10  C   UNL     1       3.584  -1.288   2.100  0.00  0.00    +0.000 C 
ENDROOT
BRANCH   3  11
ATOM     11  C   UNL     1       1.238  -3.844  -1.219  0.00  0.00    +0.000 A 
ATOM     12  C   UNL     1       2.416  -4.604  -1.271  0.00  0.00    +0.000 A 
ATOM     13  C   UNL     1       2.432  -5.854  -1.894  0.00  0.00    +0.000 A 
ATOM     14  C   UNL     1       1.272  -6.357  -2.479  0.00  0.00    +0.000 A 
ATOM     15  C   UNL     1       0.095  -5.612  -2.442  0.00  0.00    +0.000 A 
ATOM     16  C   UNL     1       0.078  -4.363  -1.817  0.00  0.00    +0.000 A 
ENDBRANCH   3  11
TORSDOF 1
