REMARK  Name = *****
REMARK  3 active torsions:
REMARK  status: ('A' for Active; 'I' for Inactive)
REMARK    1  A    between atoms: C_1  and  C_2
REMARK    2  A    between atoms: C_9  and  C_12
REMARK    3  A    between atoms: C_9  and  C_13
REMARK                            x       y       z     vdW  Elec       q    Type
REMARK                         _______ _______ _______ _____ _____    ______ ____
ROOT
ATOM      1  C   UNL     1       0.994  -0.242   0.308  0.00  0.00    +0.000 C 
ATOM      2  C   UNL     1       2.481  -0.121   0.150  0.00  0.00    +0.000 A 
ATOM      3  C   UNL     1       3.101   1.134   0.110  0.00  0.00    +0.000 A 
ATOM      4  C   UNL     1       4.494   1.245  -0.019  0.00  0.00    +0.000 A 
ATOM      5  C   UNL     1       5.264   0.086  -0.130  0.00  0.00    +0.000 A 
ATOM      6  C   UNL     1       4.655  -1.167  -0.073  0.00  0.00    +0.000 A 
ATOM      7  C   UNL     1       3.270  -1.272   0.067  0.00  0.00    +0.000 A 
ATOM      8  O   UNL     1       6.622   0.079  -0.278  0.00  0.00    +0.000 OA
ATOM      9  C   UNL     1       7.275   1.336  -0.566  0.00  0.00    +0.000 C 
ATOM     10  C   UNL     1       6.623   2.490   0.222  0.00  0.00    +0.000 C 
ATOM     11  C   UNL     1       5.136   2.597  -0.073  0.00  0.00    +0.000 C 
ATOM     12  C   UNL     1       7.207   1.540  -2.094  0.00  0.00    +0.000 C 
ENDROOT
BRANCH   9  13
ATOM     13  C   UNL     1       8.752   1.230  -0.133  0.00  0.00    +0.000 A 
ATOM     14  C   UNL     1       9.224   0.128   0.602  0.00  0.00    +0.000 A 
ATOM     15  C   UNL     1      10.562   0.044   1.000  0.00  0.00    +0.000 A 
ATOM     16  C   UNL     1      11.453   1.062   0.676  0.00  0.00    +0.000 A 
ATOM     17  C   UNL     1      11.008   2.166  -0.044  0.00  0.00    +0.000 A 
ATOM     18  C   UNL     1       9.671   2.251  -0.442  0.00  0.00    +0.000 A 
ENDBRANCH   9  13
TORSDOF 1
