REMARK  Name = *****
REMARK  4 active torsions:
REMARK  status: ('A' for Active; 'I' for Inactive)
REMARK    1  A    between atoms: C_1  and  C_2
REMARK    2  A    between atoms: C_2  and  C_13
REMARK    3  A    between atoms: N_9  and  C_12
REMARK    4  A    between atoms: C_13  and  C_14
REMARK                            x       y       z     vdW  Elec       q    Type
REMARK                         _______ _______ _______ _____ _____    ______ ____
ROOT
ATOM      1  C   UNL     1       0.960  -0.009   0.341  0.00  0.00    +0.000 C 
ATOM      2  C   UNL     1       2.492  -0.060   0.263  0.00  0.00    +0.000 C 
ATOM      3  C   UNL     1       3.097   1.132   0.971  0.00  0.00    +0.000 A 
ATOM      4  C   UNL     1       2.985   2.484   0.691  0.00  0.00    +0.000 A 
ATOM      5  C   UNL     1       3.664   3.389   1.509  0.00  0.00    +0.000 A 
ATOM      6  C   UNL     1       4.431   2.938   2.597  0.00  0.00    +0.000 A 
ATOM      7  C   UNL     1       4.523   1.575   2.887  0.00  0.00    +0.000 A 
ATOM      8  C   UNL     1       3.845   0.693   2.066  0.00  0.00    +0.000 A 
ATOM      9  N   UNL     1       3.762  -0.699   2.165  0.00  0.00    +0.000 N 
ATOM     10  C   UNL     1       2.976  -1.236   1.145  0.00  0.00    +0.000 C 
ATOM     11  O   UNL     1       2.714  -2.417   0.969  0.00  0.00    +0.000 OA
ATOM     12  C   UNL     1       4.420  -1.476   3.180  0.00  0.00    +0.000 C 
ENDROOT
BRANCH   2  13
ATOM     13  C   UNL     1       2.947  -0.253  -1.205  0.00  0.00    +0.000 C 
BRANCH  13  14
ATOM     14  C   UNL     1       4.442  -0.203  -1.475  0.00  0.00    +0.000 A 
ATOM     15  C   UNL     1       5.227  -1.323  -1.144  0.00  0.00    +0.000 A 
ATOM     16  C   UNL     1       6.610  -1.323  -1.340  0.00  0.00    +0.000 A 
ATOM     17  C   UNL     1       7.236  -0.207  -1.884  0.00  0.00    +0.000 A 
ATOM     18  C   UNL     1       6.475   0.903  -2.243  0.00  0.00    +0.000 A 
ATOM     19  C   UNL     1       5.088   0.907  -2.047  0.00  0.00    +0.000 A 
ATOM     20 CL   UNL     1       4.232   2.313  -2.577  0.00  0.00    +0.000 Cl
ENDBRANCH  13  14
ENDBRANCH   2  13
TORSDOF 2
