REMARK  Name = *****
REMARK  0 active torsions:
REMARK  status: ('A' for Active; 'I' for Inactive)
REMARK                            x       y       z     vdW  Elec       q    Type
REMARK                         _______ _______ _______ _____ _____    ______ ____
ROOT
ATOM      1  C   UNL     1       1.843   0.800  -0.154  0.00  0.00    +0.000 A 
ATOM      2  C   UNL     1       1.860  -0.524   0.318  0.00  0.00    +0.000 A 
ATOM      3  C   UNL     1       0.668  -1.188   0.610  0.00  0.00    +0.000 A 
ATOM      4  C   UNL     1      -0.514  -0.507   0.411  0.00  0.00    +0.000 A 
ATOM      5  C   UNL     1      -0.542   0.803  -0.047  0.00  0.00    +0.000 A 
ATOM      6  C   UNL     1       0.634   1.477  -0.336  0.00  0.00    +0.000 A 
ATOM      7  C   UNL     1      -1.953   1.271  -0.097  0.00  0.00    +0.000 C 
ATOM      8  C   UNL     1      -2.647  -0.092   0.001  0.00  0.00    +0.000 C 
ATOM      9  O   UNL     1      -1.757  -1.030   0.654  0.00  0.00    +0.000 OA
ATOM     10  C   UNL     1      -4.038  -0.138   0.622  0.00  0.00    +0.000 C 
ATOM     11  O   UNL     1      -4.622  -1.204   0.825  0.00  0.00    +0.000 OA
ATOM     12  C   UNL     1      -4.761   1.124   0.915  0.00  0.00    +0.000 A 
ATOM     13  C   UNL     1      -6.165   1.094   0.936  0.00  0.00    +0.000 A 
ATOM     14  C   UNL     1      -6.890   2.248   1.234  0.00  0.00    +0.000 A 
ATOM     15  C   UNL     1      -6.217   3.431   1.526  0.00  0.00    +0.000 A 
ATOM     16  C   UNL     1      -4.821   3.460   1.522  0.00  0.00    +0.000 A 
ATOM     17  C   UNL     1      -4.084   2.310   1.210  0.00  0.00    +0.000 A 
ATOM     18  S   UNL     1      -2.314   2.410   1.266  0.00  0.00    +0.000 S 
ENDROOT
TORSDOF 0
