REMARK  Name = *****
REMARK  5 active torsions:
REMARK  status: ('A' for Active; 'I' for Inactive)
REMARK    1  A    between atoms: C_1  and  O_2
REMARK    2  A    between atoms: O_2  and  C_3
REMARK    3  A    between atoms: C_3  and  C_4
REMARK    4  A    between atoms: C_3  and  O_10
REMARK    5  A    between atoms: O_10  and  C_11
REMARK                            x       y       z     vdW  Elec       q    Type
REMARK                         _______ _______ _______ _____ _____    ______ ____
ROOT
ATOM      1  C   UNL     1       2.892   1.379   0.381  0.00  0.00    +0.000 C 
ENDROOT
BRANCH   1   2
ATOM      2  C   UNL     1       2.367   1.851   1.735  0.00  0.00    +0.000 A 
ATOM      3  C   UNL     1       3.204   2.005   2.852  0.00  0.00    +0.000 A 
ATOM      4  C   UNL     1       2.693   2.456   4.071  0.00  0.00    +0.000 A 
ATOM      5  C   UNL     1       1.339   2.765   4.191  0.00  0.00    +0.000 A 
ATOM      6  C   UNL     1       0.495   2.626   3.092  0.00  0.00    +0.000 A 
ATOM      7  C   UNL     1       1.005   2.176   1.873  0.00  0.00    +0.000 A 
ENDBRANCH   1   2
BRANCH   1   9
ATOM      8  C   UNL     1       2.220  -0.910   0.525  0.00  0.00    +0.000 C 
ATOM      9  O   UNL     1       2.065   0.332  -0.151  0.00  0.00    +0.000 OA
ENDBRANCH   1   9
BRANCH   1  10
ATOM     10  O   UNL     1       4.280   1.026   0.450  0.00  0.00    +0.000 OA
BRANCH  10  11
ATOM     11  C   UNL     1       4.994   0.985  -0.714  0.00  0.00    +0.000 A 
ATOM     12  C   UNL     1       4.466   1.025  -2.006  0.00  0.00    +0.000 A 
ATOM     13  C   UNL     1       5.316   0.963  -3.116  0.00  0.00    +0.000 A 
ATOM     14  C   UNL     1       6.693   0.856  -2.933  0.00  0.00    +0.000 A 
ATOM     15  C   UNL     1       7.229   0.806  -1.649  0.00  0.00    +0.000 A 
ATOM     16  C   UNL     1       6.377   0.868  -0.544  0.00  0.00    +0.000 A 
ATOM     17 BR   UNL     1       7.837   0.770  -4.434  0.00  0.00    +0.000 Br
ENDBRANCH  10  11
ENDBRANCH   1  10
TORSDOF 4
