REMARK  Name = *****
REMARK  4 active torsions:
REMARK  status: ('A' for Active; 'I' for Inactive)
REMARK    1  A    between atoms: C_1  and  C_2
REMARK    2  A    between atoms: C_2  and  O_3
REMARK    3  A    between atoms: O_3  and  C_4
REMARK    4  A    between atoms: C_4  and  C_14
REMARK                            x       y       z     vdW  Elec       q    Type
REMARK                         _______ _______ _______ _____ _____    ______ ____
ROOT
ATOM      1  C   UNL     1       4.214   0.595   0.763  0.00  0.00    +0.000 C 
ATOM      2  C   UNL     1       5.052   1.143  -0.407  0.00  0.00    +0.000 C 
ATOM      3  C   UNL     1       4.756   0.350  -1.671  0.00  0.00    +0.000 C 
ATOM      4  C   UNL     1       4.812  -1.120  -1.384  0.00  0.00    +0.000 A 
ATOM      5  C   UNL     1       4.957  -2.037  -2.434  0.00  0.00    +0.000 A 
ATOM      6  C   UNL     1       5.007  -3.407  -2.173  0.00  0.00    +0.000 A 
ATOM      7  C   UNL     1       4.909  -3.871  -0.863  0.00  0.00    +0.000 A 
ATOM      8  C   UNL     1       4.752  -2.964   0.184  0.00  0.00    +0.000 A 
ATOM      9  C   UNL     1       4.691  -1.594  -0.076  0.00  0.00    +0.000 A 
ATOM     10  O   UNL     1       4.534  -0.786   1.016  0.00  0.00    +0.000 OA
ENDROOT
BRANCH   1  11
ATOM     11  C   UNL     1       4.564   1.435   2.004  0.00  0.00    +0.000 A 
ATOM     12  C   UNL     1       5.495   0.982   2.955  0.00  0.00    +0.000 A 
ATOM     13  C   UNL     1       5.824   1.764   4.066  0.00  0.00    +0.000 A 
ATOM     14  C   UNL     1       5.233   3.013   4.241  0.00  0.00    +0.000 A 
ATOM     15  C   UNL     1       4.316   3.485   3.305  0.00  0.00    +0.000 A 
ATOM     16  C   UNL     1       3.988   2.705   2.195  0.00  0.00    +0.000 A 
ENDBRANCH   1  11
BRANCH   1  17
ATOM     17  O   UNL     1       2.823   0.780   0.424  0.00  0.00    +0.000 OA
BRANCH  17  19
ATOM     18  C   UNL     1       0.510   0.516   0.921  0.00  0.00    +0.000 C 
ATOM     19  C   UNL     1       1.919   0.089   1.285  0.00  0.00    +0.000 C 
ENDBRANCH  17  19
ENDBRANCH   1  17
TORSDOF 3
