REMARK  Name = *****
REMARK  3 active torsions:
REMARK  status: ('A' for Active; 'I' for Inactive)
REMARK    1  A    between atoms: C_1  and  C_2
REMARK    2  A    between atoms: C_4  and  C_19
REMARK    3  A    between atoms: C_11  and  C_13
REMARK                            x       y       z     vdW  Elec       q    Type
REMARK                         _______ _______ _______ _____ _____    ______ ____
ROOT
ATOM      1  C   UNL     1       0.947   0.066   0.203  0.00  0.00    +0.000 C 
ATOM      2  C   UNL     1       2.445   0.004   0.139  0.00  0.00    +0.000 A 
ATOM      3  C   UNL     1       3.204   1.182   0.085  0.00  0.00    +0.000 A 
ATOM      4  C   UNL     1       4.605   1.140  -0.009  0.00  0.00    +0.000 A 
ATOM      5  C   UNL     1       5.247  -0.105  -0.046  0.00  0.00    +0.000 A 
ATOM      6  C   UNL     1       4.491  -1.280  -0.031  0.00  0.00    +0.000 A 
ATOM      7  C   UNL     1       3.097  -1.231   0.063  0.00  0.00    +0.000 A 
ATOM      8  C   UNL     1       5.183  -2.579  -0.159  0.00  0.00    +0.000 C 
ATOM      9  O   UNL     1       4.558  -3.634  -0.142  0.00  0.00    +0.000 OA
ATOM     10  C   UNL     1       6.667  -2.526  -0.382  0.00  0.00    +0.000 C 
ATOM     11  C   UNL     1       7.211  -1.317   0.363  0.00  0.00    +0.000 C 
ATOM     12  O   UNL     1       6.616  -0.106  -0.131  0.00  0.00    +0.000 OA
ATOM     13  C   UNL     1       5.397   2.416  -0.053  0.00  0.00    +0.000 C 
ENDROOT
BRANCH  11  14
ATOM     14  C   UNL     1       8.718  -1.226   0.201  0.00  0.00    +0.000 A 
ATOM     15  C   UNL     1       9.298  -0.650  -0.940  0.00  0.00    +0.000 A 
ATOM     16  C   UNL     1      10.686  -0.599  -1.084  0.00  0.00    +0.000 A 
ATOM     17  C   UNL     1      11.510  -1.129  -0.094  0.00  0.00    +0.000 A 
ATOM     18  C   UNL     1      10.949  -1.711   1.040  0.00  0.00    +0.000 A 
ATOM     19  C   UNL     1       9.561  -1.762   1.187  0.00  0.00    +0.000 A 
ENDBRANCH  11  14
TORSDOF 1
