REMARK  Name = *****
REMARK  5 active torsions:
REMARK  status: ('A' for Active; 'I' for Inactive)
REMARK    1  A    between atoms: C_1  and  C_2
REMARK    2  A    between atoms: C_4  and  C_20
REMARK    3  A    between atoms: C_7  and  C_11
REMARK    4  A    between atoms: C_7  and  O_19
REMARK    5  A    between atoms: C_14  and  C_17
REMARK                            x       y       z     vdW  Elec       q    Type
REMARK                         _______ _______ _______ _____ _____    ______ ____
ROOT
ATOM      1  C   UNL     1       0.946  -0.108   0.685  0.00  0.00    +0.000 C 
ATOM      2  C   UNL     1       2.414   0.014   0.393  0.00  0.00    +0.000 A 
ATOM      3  C   UNL     1       3.226  -1.139   0.357  0.00  0.00    +0.000 A 
ATOM      4  C   UNL     1       4.592  -1.065   0.046  0.00  0.00    +0.000 A 
ATOM      5  C   UNL     1       5.127   0.193  -0.214  0.00  0.00    +0.000 A 
ATOM      6  C   UNL     1       6.543   0.538  -0.587  0.00  0.00    +0.000 C 
ATOM      7  C   UNL     1       6.569   2.080  -0.384  0.00  0.00    +0.000 C 
ATOM      8  C   UNL     1       5.104   2.569  -0.557  0.00  0.00    +0.000 C 
ATOM      9  C   UNL     1       4.323   1.338  -0.195  0.00  0.00    +0.000 A 
ATOM     10  C   UNL     1       2.969   1.263   0.093  0.00  0.00    +0.000 A 
ATOM     11  C   UNL     1       5.442  -2.299   0.021  0.00  0.00    +0.000 C 
ENDROOT
BRANCH   7  12
ATOM     12  C   UNL     1       7.542   2.784  -1.325  0.00  0.00    +0.000 A 
ATOM     13  C   UNL     1       7.386   2.692  -2.721  0.00  0.00    +0.000 A 
ATOM     14  C   UNL     1       8.272   3.333  -3.593  0.00  0.00    +0.000 A 
ATOM     15  C   UNL     1       9.336   4.082  -3.087  0.00  0.00    +0.000 A 
ATOM     16  C   UNL     1       9.508   4.185  -1.706  0.00  0.00    +0.000 A 
ATOM     17  C   UNL     1       8.620   3.543  -0.837  0.00  0.00    +0.000 A 
BRANCH  15  18
ATOM     18  C   UNL     1      10.245   4.739  -3.980  0.00  0.00    +0.000 C 
ATOM     19  N   UNL     1      10.979   5.270  -4.706  0.00  0.00    +0.000 NA
ENDBRANCH  15  18
ENDBRANCH   7  12
BRANCH   7  20
ATOM     20  O   UNL     1       6.961   2.337   0.983  0.00  0.00    +0.000 OA
ATOM     21  H   UNL     1       6.344   1.891   1.585  0.00  0.00    +0.000 HD
ENDBRANCH   7  20
TORSDOF 3
