REMARK  Name = *****
REMARK  3 active torsions:
REMARK  status: ('A' for Active; 'I' for Inactive)
REMARK    1  A    between atoms: C_4  and  C_7
REMARK    2  A    between atoms: C_7  and  O_8
REMARK    3  A    between atoms: O_8  and  C_9
REMARK                            x       y       z     vdW  Elec       q    Type
REMARK                         _______ _______ _______ _____ _____    ______ ____
ROOT
ATOM      1  C   UNL     1      -4.791  -0.534  -1.374  0.00  0.00    +0.000 A 
ATOM      2  C   UNL     1      -5.264  -1.661  -2.054  0.00  0.00    +0.000 A 
ATOM      3  C   UNL     1      -6.595  -1.703  -2.437  0.00  0.00    +0.000 A 
ATOM      4  C   UNL     1      -7.459  -0.654  -2.157  0.00  0.00    +0.000 A 
ATOM      5  C   UNL     1      -7.009   0.469  -1.483  0.00  0.00    +0.000 A 
ATOM      6  C   UNL     1      -5.666   0.527  -1.089  0.00  0.00    +0.000 A 
ATOM      7  S   UNL     1      -9.065  -0.994  -2.761  0.00  0.00    +0.000 S 
ATOM      8  C   UNL     1      -8.459  -2.546  -3.359  0.00  0.00    +0.000 A 
ATOM      9  O   UNL     1      -9.185  -3.337  -3.946  0.00  0.00    +0.000 OA
ATOM     10  O   UNL     1      -7.111  -2.803  -3.118  0.00  0.00    +0.000 OA
ENDROOT
BRANCH   1  11
ATOM     11  O   UNL     1      -3.466  -0.591  -1.043  0.00  0.00    +0.000 OA
BRANCH  11  12
ATOM     12  C   UNL     1      -2.911   0.530  -0.359  0.00  0.00    +0.000 C 
BRANCH  12  16
ATOM     13  C   UNL     1       1.263  -0.300   0.340  0.00  0.00    +0.000 A 
ATOM     14  C   UNL     1       0.878   0.440  -0.776  0.00  0.00    +0.000 A 
ATOM     15  C   UNL     1      -0.472   0.711  -1.004  0.00  0.00    +0.000 A 
ATOM     16  C   UNL     1      -1.450   0.252  -0.110  0.00  0.00    +0.000 A 
ATOM     17  C   UNL     1      -1.052  -0.505   1.002  0.00  0.00    +0.000 A 
ATOM     18  C   UNL     1       0.299  -0.775   1.227  0.00  0.00    +0.000 A 
ENDBRANCH  12  16
ENDBRANCH  11  12
ENDBRANCH   1  11
TORSDOF 3
