REMARK  Name = *****
REMARK  5 active torsions:
REMARK  status: ('A' for Active; 'I' for Inactive)
REMARK    1  A    between atoms: C_1  and  O_2
REMARK    2  A    between atoms: O_2  and  C_3
REMARK    3  A    between atoms: C_5  and  C_13
REMARK    4  A    between atoms: C_5  and  O_18
REMARK    5  A    between atoms: O_18  and  C_19
REMARK                            x       y       z     vdW  Elec       q    Type
REMARK                         _______ _______ _______ _____ _____    ______ ____
ROOT
ATOM      1  C   UNL     1       3.010  -1.286  -0.354  0.00  0.00    +0.000 C 
ATOM      2  C   UNL     1       2.175  -2.100  -1.335  0.00  0.00    +0.000 C 
ATOM      3  C   UNL     1       2.798  -3.493  -1.475  0.00  0.00    +0.000 C 
ATOM      4  O   UNL     1       2.798  -4.192  -0.221  0.00  0.00    +0.000 OA
ATOM      5  C   UNL     1       3.173  -3.472   0.880  0.00  0.00    +0.000 A 
ATOM      6  C   UNL     1       3.426  -4.217   2.033  0.00  0.00    +0.000 A 
ATOM      7  C   UNL     1       3.841  -3.581   3.203  0.00  0.00    +0.000 A 
ATOM      8  C   UNL     1       4.005  -2.198   3.219  0.00  0.00    +0.000 A 
ATOM      9  C   UNL     1       3.740  -1.452   2.071  0.00  0.00    +0.000 A 
ATOM     10  C   UNL     1       3.297  -2.080   0.896  0.00  0.00    +0.000 A 
ENDROOT
BRANCH   3  11
ATOM     11  C   UNL     1       1.961  -4.297  -2.472  0.00  0.00    +0.000 A 
ATOM     12  C   UNL     1       2.072  -4.323  -3.855  0.00  0.00    +0.000 A 
ATOM     13  C   UNL     1       1.107  -5.166  -4.476  0.00  0.00    +0.000 A 
ATOM     14  C   UNL     1       0.270  -5.751  -3.555  0.00  0.00    +0.000 A 
ATOM     15  S   UNL     1       0.644  -5.281  -1.957  0.00  0.00    +0.000 S 
ENDBRANCH   3  11
BRANCH   1  17
ATOM     16  C   UNL     1       1.114   0.038   0.376  0.00  0.00    +0.000 C 
ATOM     17  O   UNL     1       2.458   0.013  -0.085  0.00  0.00    +0.000 OA
ENDBRANCH   1  17
BRANCH   3  18
ATOM     18  O   UNL     1       4.114  -3.342  -2.043  0.00  0.00    +0.000 OA
ATOM     19  C   UNL     1       4.937  -4.498  -1.924  0.00  0.00    +0.000 C 
ENDBRANCH   3  18
TORSDOF 3
