REMARK  Name = *****
REMARK  3 active torsions:
REMARK  status: ('A' for Active; 'I' for Inactive)
REMARK    1  A    between atoms: C_1  and  O_2
REMARK    2  A    between atoms: O_2  and  C_3
REMARK    3  A    between atoms: C_3  and  C_13
REMARK                            x       y       z     vdW  Elec       q    Type
REMARK                         _______ _______ _______ _____ _____    ______ ____
ROOT
ATOM      1  C   UNL     1       2.590   0.577  -0.788  0.00  0.00    +0.000 C 
ATOM      2  C   UNL     1       1.848   1.773  -1.346  0.00  0.00    +0.000 C 
ATOM      3  C   UNL     1       0.977   1.695  -2.357  0.00  0.00    +0.000 C 
ATOM      4  C   UNL     1       0.736   0.385  -2.938  0.00  0.00    +0.000 A 
ATOM      5  C   UNL     1      -0.171   0.229  -3.992  0.00  0.00    +0.000 A 
ATOM      6  C   UNL     1      -0.398  -1.032  -4.547  0.00  0.00    +0.000 A 
ATOM      7  C   UNL     1       0.281  -2.144  -4.052  0.00  0.00    +0.000 A 
ATOM      8  C   UNL     1       1.187  -1.994  -3.002  0.00  0.00    +0.000 A 
ATOM      9  C   UNL     1       1.414  -0.734  -2.445  0.00  0.00    +0.000 A 
ATOM     10  O   UNL     1       2.321  -0.691  -1.422  0.00  0.00    +0.000 OA
ENDROOT
BRANCH   1  11
ATOM     11  C   UNL     1       4.106   0.822  -0.929  0.00  0.00    +0.000 A 
ATOM     12  C   UNL     1       4.741   0.653  -2.176  0.00  0.00    +0.000 A 
ATOM     13  C   UNL     1       6.108   0.897  -2.329  0.00  0.00    +0.000 A 
ATOM     14  C   UNL     1       6.867   1.321  -1.242  0.00  0.00    +0.000 A 
ATOM     15  C   UNL     1       6.260   1.504  -0.003  0.00  0.00    +0.000 A 
ATOM     16  C   UNL     1       4.893   1.260   0.152  0.00  0.00    +0.000 A 
ENDBRANCH   1  11
BRANCH   1  18
ATOM     17  C   UNL     1       1.031  -0.086   0.920  0.00  0.00    +0.000 C 
ATOM     18  O   UNL     1       2.285   0.510   0.621  0.00  0.00    +0.000 OA
ENDBRANCH   1  18
TORSDOF 2
