REMARK  Name = *****
REMARK  3 active torsions:
REMARK  status: ('A' for Active; 'I' for Inactive)
REMARK    1  A    between atoms: C_4  and  S_7
REMARK    2  A    between atoms: S_7  and  C_8
REMARK    3  A    between atoms: C_8  and  C_9
REMARK                            x       y       z     vdW  Elec       q    Type
REMARK                         _______ _______ _______ _____ _____    ______ ____
ROOT
ATOM      1  C   UNL     1      -5.757  -1.231  -1.079  0.00  0.00    +0.000 A 
ATOM      2  N   UNL     1      -6.609  -1.587  -0.139  0.00  0.00    +0.000 NA
ATOM      3  C   UNL     1      -7.908  -1.461  -0.603  0.00  0.00    +0.000 A 
ATOM      4  C   UNL     1      -9.078  -1.733   0.134  0.00  0.00    +0.000 A 
ATOM      5  C   UNL     1     -10.332  -1.569  -0.465  0.00  0.00    +0.000 A 
ATOM      6  C   UNL     1     -10.432  -1.141  -1.785  0.00  0.00    +0.000 A 
ATOM      7  C   UNL     1      -9.286  -0.863  -2.537  0.00  0.00    +0.000 A 
ATOM      8  C   UNL     1      -8.032  -1.029  -1.925  0.00  0.00    +0.000 A 
ATOM      9  S   UNL     1      -6.461  -0.770  -2.579  0.00  0.00    +0.000 S 
ENDROOT
BRANCH   1  10
ATOM     10  C   UNL     1      -4.267  -1.251  -0.916  0.00  0.00    +0.000 C 
BRANCH  10  11
ATOM     11  S   UNL     1      -3.644   0.382  -0.385  0.00  0.00    +0.000 S 
BRANCH  11  15
ATOM     12  C   UNL     1       0.942   0.045  -0.468  0.00  0.00    +0.000 A 
ATOM     13  C   UNL     1       0.186  -1.124  -0.442  0.00  0.00    +0.000 A 
ATOM     14  C   UNL     1      -1.211  -1.061  -0.418  0.00  0.00    +0.000 A 
ATOM     15  C   UNL     1      -1.869   0.174  -0.430  0.00  0.00    +0.000 A 
ATOM     16  C   UNL     1      -1.095   1.343  -0.449  0.00  0.00    +0.000 A 
ATOM     17  C   UNL     1       0.301   1.281  -0.469  0.00  0.00    +0.000 A 
ENDBRANCH  11  15
ENDBRANCH  10  11
ENDBRANCH   1  10
TORSDOF 3
