REMARK  Name = *****
REMARK  5 active torsions:
REMARK  status: ('A' for Active; 'I' for Inactive)
REMARK    1  A    between atoms: C_4  and  C_7
REMARK    2  A    between atoms: C_7  and  C_8
REMARK    3  A    between atoms: C_8  and  C_9
REMARK    4  A    between atoms: C_9  and  C_10
REMARK    5  A    between atoms: C_9  and  O_17
REMARK                            x       y       z     vdW  Elec       q    Type
REMARK                         _______ _______ _______ _____ _____    ______ ____
ROOT
ATOM      1  C   UNL     1      -4.982  -0.657  -0.662  0.00  0.00    +0.000 C 
ENDROOT
BRANCH   1   2
ATOM      2  C   UNL     1      -5.314   0.284  -1.802  0.00  0.00    +0.000 A 
ATOM      3  C   UNL     1      -4.976  -0.040  -3.127  0.00  0.00    +0.000 A 
ATOM      4  C   UNL     1      -5.282   0.833  -4.174  0.00  0.00    +0.000 A 
ATOM      5  C   UNL     1      -5.929   2.035  -3.904  0.00  0.00    +0.000 A 
ATOM      6  C   UNL     1      -6.275   2.372  -2.597  0.00  0.00    +0.000 A 
ATOM      7  C   UNL     1      -5.970   1.499  -1.550  0.00  0.00    +0.000 A 
ATOM      8 CL   UNL     1      -6.307   3.111  -5.192  0.00  0.00    +0.000 Cl
ENDBRANCH   1   2
BRANCH   1   9
ATOM      9  O   UNL     1      -5.580  -1.929  -0.919  0.00  0.00    +0.000 OA
ATOM     10  H   UNL     1      -5.204  -2.306  -1.729  0.00  0.00    +0.000 HD
ENDBRANCH   1   9
BRANCH   1  11
ATOM     11  C   UNL     1      -3.479  -0.867  -0.442  0.00  0.00    +0.000 C 
BRANCH  11  12
ATOM     12  C   UNL     1      -2.765   0.410   0.008  0.00  0.00    +0.000 C 
BRANCH  12  16
ATOM     13  C   UNL     1       1.428  -0.318   0.701  0.00  0.00    +0.000 A 
ATOM     14  C   UNL     1       0.995   0.134  -0.544  0.00  0.00    +0.000 A 
ATOM     15  C   UNL     1      -0.362   0.374  -0.768  0.00  0.00    +0.000 A 
ATOM     16  C   UNL     1      -1.297   0.168   0.256  0.00  0.00    +0.000 A 
ATOM     17  C   UNL     1      -0.852  -0.293   1.502  0.00  0.00    +0.000 A 
ATOM     18  C   UNL     1       0.506  -0.532   1.723  0.00  0.00    +0.000 A 
ENDBRANCH  12  16
ENDBRANCH  11  12
ENDBRANCH   1  11
TORSDOF 5
