REMARK  Name = *****
REMARK  6 active torsions:
REMARK  status: ('A' for Active; 'I' for Inactive)
REMARK    1  A    between atoms: C_1  and  C_2
REMARK    2  A    between atoms: C_2  and  C_22
REMARK    3  A    between atoms: C_12  and  C_13
REMARK    4  A    between atoms: C_12  and  O_21
REMARK    5  A    between atoms: C_16  and  S_19
REMARK    6  A    between atoms: S_19  and  C_20
REMARK                            x       y       z     vdW  Elec       q    Type
REMARK                         _______ _______ _______ _____ _____    ______ ____
ROOT
ATOM      1  C   UNL     1       1.040   0.083   0.149  0.00  0.00    +0.000 C 
ATOM      2  C   UNL     1       2.569   0.023  -0.036  0.00  0.00    +0.000 C 
ATOM      3  C   UNL     1       3.200   1.398   0.105  0.00  0.00    +0.000 C 
ATOM      4  O   UNL     1       2.583   2.443  -0.079  0.00  0.00    +0.000 OA
ATOM      5  C   UNL     1       4.642   1.436   0.425  0.00  0.00    +0.000 A 
ATOM      6  C   UNL     1       5.340   2.647   0.416  0.00  0.00    +0.000 A 
ATOM      7  C   UNL     1       6.709   2.657   0.682  0.00  0.00    +0.000 A 
ATOM      8  C   UNL     1       7.377   1.461   0.949  0.00  0.00    +0.000 A 
ATOM      9  C   UNL     1       6.675   0.254   0.960  0.00  0.00    +0.000 A 
ATOM     10  C   UNL     1       5.303   0.243   0.713  0.00  0.00    +0.000 A 
ATOM     11  O   UNL     1       4.686  -0.979   0.749  0.00  0.00    +0.000 OA
ATOM     12  C   UNL     1       3.264  -0.928   0.982  0.00  0.00    +0.000 C 
ATOM     13  C   UNL     1       2.821  -0.417  -1.502  0.00  0.00    +0.000 C 
ENDROOT
BRANCH  12  14
ATOM     14  C   UNL     1       3.056  -0.750   2.497  0.00  0.00    +0.000 A 
ATOM     15  C   UNL     1       2.590   0.428   3.102  0.00  0.00    +0.000 A 
ATOM     16  C   UNL     1       2.468   0.532   4.495  0.00  0.00    +0.000 A 
ATOM     17  C   UNL     1       2.808  -0.536   5.326  0.00  0.00    +0.000 A 
ATOM     18  C   UNL     1       3.301  -1.704   4.749  0.00  0.00    +0.000 A 
ATOM     19  C   UNL     1       3.422  -1.807   3.359  0.00  0.00    +0.000 A 
BRANCH  17  20
ATOM     20  S   UNL     1       2.652  -0.346   7.091  0.00  0.00    +0.000 S 
ATOM     21  C   UNL     1       1.636  -1.796   7.479  0.00  0.00    +0.000 C 
ENDBRANCH  17  20
ENDBRANCH  12  14
BRANCH  12  22
ATOM     22  O   UNL     1       2.790  -2.256   0.698  0.00  0.00    +0.000 OA
ATOM     23  H   UNL     1       2.892  -2.440  -0.249  0.00  0.00    +0.000 HD
ENDBRANCH  12  22
TORSDOF 3
