REMARK  Name = *****
REMARK  2 active torsions:
REMARK  status: ('A' for Active; 'I' for Inactive)
REMARK    1  A    between atoms: C_1  and  C_2
REMARK    2  A    between atoms: C_5  and  C_8
REMARK                            x       y       z     vdW  Elec       q    Type
REMARK                         _______ _______ _______ _____ _____    ______ ____
ROOT
ATOM      1  C   UNL     1      -3.695  -0.089   0.457  0.00  0.00    +0.000 C 
ATOM      2  C   UNL     1      -4.407  -0.221   1.803  0.00  0.00    +0.000 C 
ATOM      3  C   UNL     1      -5.910  -0.162   1.569  0.00  0.00    +0.000 C 
ATOM      4  C   UNL     1      -6.257   0.952   0.624  0.00  0.00    +0.000 A 
ATOM      5  C   UNL     1      -7.584   1.389   0.513  0.00  0.00    +0.000 A 
ATOM      6  C   UNL     1      -7.917   2.423  -0.364  0.00  0.00    +0.000 A 
ATOM      7  C   UNL     1      -6.928   3.027  -1.137  0.00  0.00    +0.000 A 
ATOM      8  C   UNL     1      -5.607   2.591  -1.041  0.00  0.00    +0.000 A 
ATOM      9  C   UNL     1      -5.275   1.547  -0.176  0.00  0.00    +0.000 A 
ATOM     10  O   UNL     1      -3.954   1.188  -0.147  0.00  0.00    +0.000 OA
ENDROOT
BRANCH   1  15
ATOM     11  C   UNL     1       2.063  -0.772   1.160  0.00  0.00    +0.000 C 
ATOM     12  C   UNL     1       0.589  -0.586   0.952  0.00  0.00    +0.000 A 
ATOM     13  C   UNL     1      -0.191  -1.614   0.413  0.00  0.00    +0.000 A 
ATOM     14  C   UNL     1      -1.569  -1.447   0.247  0.00  0.00    +0.000 A 
ATOM     15  C   UNL     1      -2.195  -0.250   0.622  0.00  0.00    +0.000 A 
ATOM     16  C   UNL     1      -1.411   0.771   1.178  0.00  0.00    +0.000 A 
ATOM     17  C   UNL     1      -0.034   0.603   1.344  0.00  0.00    +0.000 A 
ENDBRANCH   1  15
TORSDOF 1
