REMARK  Name = *****
REMARK  4 active torsions:
REMARK  status: ('A' for Active; 'I' for Inactive)
REMARK    1  A    between atoms: C_1  and  C_2
REMARK    2  A    between atoms: C_4  and  C_8
REMARK    3  A    between atoms: C_8  and  O_9
REMARK    4  A    between atoms: O_9  and  C_10
REMARK                            x       y       z     vdW  Elec       q    Type
REMARK                         _______ _______ _______ _____ _____    ______ ____
ROOT
ATOM      1  C   UNL     1      -1.427   4.674   0.988  0.00  0.00    +0.000 A 
ATOM      2  C   UNL     1      -0.520   5.641   1.427  0.00  0.00    +0.000 A 
ATOM      3  C   UNL     1      -0.976   6.915   1.755  0.00  0.00    +0.000 A 
ATOM      4  C   UNL     1      -2.322   7.256   1.656  0.00  0.00    +0.000 A 
ATOM      5  C   UNL     1      -3.228   6.291   1.216  0.00  0.00    +0.000 A 
ATOM      6  C   UNL     1      -2.781   5.003   0.882  0.00  0.00    +0.000 A 
ATOM      7  C   UNL     1      -2.737   8.602   2.014  0.00  0.00    +0.000 A 
ATOM      8  C   UNL     1      -1.822   9.482   2.430  0.00  0.00    +0.000 A 
ATOM      9  C   UNL     1      -0.392   9.143   2.544  0.00  0.00    +0.000 A 
ATOM     10  O   UNL     1       0.418   9.978   2.932  0.00  0.00    +0.000 OA
ATOM     11  O   UNL     1      -0.021   7.852   2.195  0.00  0.00    +0.000 OA
ENDROOT
BRANCH   1  12
ATOM     12  O   UNL     1      -0.868   3.461   0.696  0.00  0.00    +0.000 OA
BRANCH  12  13
ATOM     13  C   UNL     1      -1.749   2.415   0.285  0.00  0.00    +0.000 C 
BRANCH  13  17
ATOM     14  C   UNL     1      -0.837  -1.764  -2.393  0.00  0.00    +0.000 C 
ATOM     15  C   UNL     1      -0.526  -0.881  -1.221  0.00  0.00    +0.000 A 
ATOM     16  C   UNL     1      -1.226   0.319  -1.030  0.00  0.00    +0.000 A 
ATOM     17  C   UNL     1      -0.962   1.142   0.076  0.00  0.00    +0.000 A 
ATOM     18  C   UNL     1      -0.004   0.728   1.011  0.00  0.00    +0.000 A 
ATOM     19  C   UNL     1       0.687  -0.470   0.836  0.00  0.00    +0.000 A 
ATOM     20  C   UNL     1       0.424  -1.274  -0.272  0.00  0.00    +0.000 A 
ENDBRANCH  13  17
ENDBRANCH  12  13
ENDBRANCH   1  12
TORSDOF 3
