REMARK  Name = *****
REMARK  1 active torsions:
REMARK  status: ('A' for Active; 'I' for Inactive)
REMARK    1  A    between atoms: C_2  and  C_13
REMARK                            x       y       z     vdW  Elec       q    Type
REMARK                         _______ _______ _______ _____ _____    ______ ____
ROOT
ATOM      1  C   UNL     1      -2.477   0.808  -0.432  0.00  0.00    +0.000 C 
ATOM      2  C   UNL     1      -2.402  -0.554   0.245  0.00  0.00    +0.000 C 
ATOM      3  O   UNL     1      -1.270  -1.305  -0.229  0.00  0.00    +0.000 OA
ATOM      4  C   UNL     1      -0.083  -0.638  -0.086  0.00  0.00    +0.000 A 
ATOM      5  C   UNL     1       0.014   0.753   0.002  0.00  0.00    +0.000 A 
ATOM      6  C   UNL     1      -1.217   1.559  -0.113  0.00  0.00    +0.000 C 
ATOM      7  O   UNL     1      -1.182   2.781  -0.012  0.00  0.00    +0.000 OA
ATOM      8  C   UNL     1       1.260   1.372   0.153  0.00  0.00    +0.000 A 
ATOM      9  C   UNL     1       2.414   0.588   0.199  0.00  0.00    +0.000 A 
ATOM     10  C   UNL     1       2.309  -0.796   0.087  0.00  0.00    +0.000 A 
ATOM     11  C   UNL     1       1.073  -1.416  -0.059  0.00  0.00    +0.000 A 
ATOM     12  F   UNL     1       3.420  -1.543   0.121  0.00  0.00    +0.000 F 
ENDROOT
BRANCH   2  13
ATOM     13  C   UNL     1      -3.671  -1.347  -0.020  0.00  0.00    +0.000 A 
ATOM     14  C   UNL     1      -3.807  -2.157  -1.161  0.00  0.00    +0.000 A 
ATOM     15  C   UNL     1      -4.991  -2.857  -1.398  0.00  0.00    +0.000 A 
ATOM     16  C   UNL     1      -6.046  -2.744  -0.502  0.00  0.00    +0.000 A 
ATOM     17  C   UNL     1      -5.940  -1.942   0.628  0.00  0.00    +0.000 A 
ATOM     18  C   UNL     1      -4.756  -1.243   0.869  0.00  0.00    +0.000 A 
ATOM     19  F   UNL     1      -7.183  -3.413  -0.732  0.00  0.00    +0.000 F 
ENDBRANCH   2  13
TORSDOF 1
