REMARK  Name = *****
REMARK  7 active torsions:
REMARK  status: ('A' for Active; 'I' for Inactive)
REMARK    1  A    between atoms: C_1  and  C_2
REMARK    2  A    between atoms: C_6  and  C_7
REMARK    3  A    between atoms: C_6  and  C_8
REMARK    4  A    between atoms: C_12  and  C_14
REMARK    5  A    between atoms: C_14  and  C_15
REMARK    6  A    between atoms: C_14  and  C_16
REMARK    7  A    between atoms: C_14  and  O_22
REMARK                            x       y       z     vdW  Elec       q    Type
REMARK                         _______ _______ _______ _____ _____    ______ ____
ROOT
ATOM      1  C   UNL     1       1.554   1.059   0.749  0.00  0.00    +0.000 C 
ATOM      2  C   UNL     1       2.222  -0.194   0.218  0.00  0.00    +0.000 C 
ATOM      3  C   UNL     1       1.319  -1.018  -0.749  0.00  0.00    +0.000 C 
ATOM      4  C   UNL     1       2.333  -1.936  -1.466  0.00  0.00    +0.000 C 
ATOM      5  C   UNL     1       3.683  -1.528  -0.814  0.00  0.00    +0.000 C 
ATOM      6  C   UNL     1       3.508   0.012  -0.638  0.00  0.00    +0.000 C 
ATOM      7  C   UNL     1       4.668   0.761   0.036  0.00  0.00    +0.000 C 
ATOM      8  C   UNL     1       3.300   0.766  -1.978  0.00  0.00    +0.000 C 
ATOM      9  C   UNL     1       3.627  -2.135   0.614  0.00  0.00    +0.000 C 
ATOM     10  C   UNL     1       2.646  -1.208   1.329  0.00  0.00    +0.000 C 
ATOM     11  O   UNL     1       3.309  -0.646   2.454  0.00  0.00    +0.000 OA
ATOM     12  C   UNL     1       4.496  -1.424   2.755  0.00  0.00    +0.000 C 
ATOM     13  C   UNL     1       4.887  -2.118   1.448  0.00  0.00    +0.000 C 
ENDROOT
BRANCH  12  14
ATOM     14  C   UNL     1       4.302  -2.363   3.999  0.00  0.00    +0.000 C 
ATOM     15  C   UNL     1       3.050  -3.244   3.880  0.00  0.00    +0.000 C 
BRANCH  14  16
ATOM     16  C   UNL     1       5.591  -3.138   4.308  0.00  0.00    +0.000 A 
ATOM     17  C   UNL     1       5.697  -4.532   4.172  0.00  0.00    +0.000 A 
ATOM     18  C   UNL     1       6.895  -5.194   4.456  0.00  0.00    +0.000 A 
ATOM     19  C   UNL     1       8.011  -4.477   4.880  0.00  0.00    +0.000 A 
ATOM     20  C   UNL     1       7.930  -3.096   5.022  0.00  0.00    +0.000 A 
ATOM     21  C   UNL     1       6.734  -2.434   4.740  0.00  0.00    +0.000 A 
ENDBRANCH  14  16
BRANCH  14  22
ATOM     22  O   UNL     1       4.049  -1.525   5.150  0.00  0.00    +0.000 OA
ATOM     23  H   UNL     1       3.239  -1.011   5.004  0.00  0.00    +0.000 HD
ENDBRANCH  14  22
ENDBRANCH  12  14
TORSDOF 3
