REMARK  Name = *****
REMARK  4 active torsions:
REMARK  status: ('A' for Active; 'I' for Inactive)
REMARK    1  A    between atoms: C_5  and  C_7
REMARK    2  A    between atoms: C_7  and  C_8
REMARK    3  A    between atoms: C_7  and  C_10
REMARK    4  A    between atoms: C_8  and  O_9
REMARK                            x       y       z     vdW  Elec       q    Type
REMARK                         _______ _______ _______ _____ _____    ______ ____
ROOT
ATOM      1  C   UNL     1      -0.466  -2.411   0.026  0.00  0.00    +0.000 C 
ENDROOT
BRANCH   1   6
ATOM      2  C   UNL     1       0.532   1.095   1.245  0.00  0.00    +0.000 A 
ATOM      3  C   UNL     1       1.655   1.370   0.473  0.00  0.00    +0.000 A 
ATOM      4  C   UNL     1       2.108   0.427  -0.446  0.00  0.00    +0.000 A 
ATOM      5  C   UNL     1       1.437  -0.792  -0.602  0.00  0.00    +0.000 A 
ATOM      6  C   UNL     1       0.287  -1.084   0.158  0.00  0.00    +0.000 A 
ATOM      7  C   UNL     1      -0.142  -0.120   1.094  0.00  0.00    +0.000 A 
ATOM      8 CL   UNL     1       2.101  -1.904  -1.749  0.00  0.00    +0.000 Cl
ENDBRANCH   1   6
BRANCH   1   9
ATOM      9  C   UNL     1      -1.989  -2.232  -0.069  0.00  0.00    +0.000 A 
ATOM     10  C   UNL     1      -2.824  -2.463   1.043  0.00  0.00    +0.000 A 
ATOM     11  C   UNL     1      -4.208  -2.288   0.962  0.00  0.00    +0.000 A 
ATOM     12  C   UNL     1      -4.792  -1.874  -0.230  0.00  0.00    +0.000 A 
ATOM     13  C   UNL     1      -3.990  -1.631  -1.341  0.00  0.00    +0.000 A 
ATOM     14  C   UNL     1      -2.602  -1.805  -1.265  0.00  0.00    +0.000 A 
ATOM     15 CL   UNL     1      -1.699  -1.473  -2.703  0.00  0.00    +0.000 Cl
ENDBRANCH   1   9
BRANCH   1  16
ATOM     16  C   UNL     1      -0.003  -3.395   1.132  0.00  0.00    +0.000 C 
BRANCH  16  17
ATOM     17  O   UNL     1       1.368  -3.773   1.003  0.00  0.00    +0.000 OA
ATOM     18  H   UNL     1       1.499  -4.231   0.158  0.00  0.00    +0.000 HD
ENDBRANCH  16  17
ENDBRANCH   1  16
TORSDOF 4
