REMARK  Name = *****
REMARK  4 active torsions:
REMARK  status: ('A' for Active; 'I' for Inactive)
REMARK    1  A    between atoms: C_1  and  C_2
REMARK    2  A    between atoms: C_2  and  C_13
REMARK    3  A    between atoms: C_9  and  O_11
REMARK    4  A    between atoms: O_11  and  C_12
REMARK                            x       y       z     vdW  Elec       q    Type
REMARK                         _______ _______ _______ _____ _____    ______ ____
ROOT
ATOM      1  C   UNL     1       1.365   0.073   0.485  0.00  0.00    +0.000 C 
ATOM      2  C   UNL     1       2.839  -0.208   0.133  0.00  0.00    +0.000 C 
ATOM      3  C   UNL     1       3.277  -1.622   0.606  0.00  0.00    +0.000 C 
ATOM      4  C   UNL     1       3.958  -1.279   1.875  0.00  0.00    +0.000 A 
ATOM      5  C   UNL     1       4.147   0.087   1.942  0.00  0.00    +0.000 A 
ATOM      6  O   UNL     1       3.630   0.773   0.878  0.00  0.00    +0.000 OA
ATOM      7  C   UNL     1       4.812   0.677   2.997  0.00  0.00    +0.000 A 
ATOM      8  C   UNL     1       5.293  -0.149   4.020  0.00  0.00    +0.000 A 
ATOM      9  C   UNL     1       5.108  -1.541   3.962  0.00  0.00    +0.000 A 
ATOM     10  C   UNL     1       4.436  -2.111   2.873  0.00  0.00    +0.000 A 
ENDROOT
BRANCH   2  11
ATOM     11  C   UNL     1       3.045  -0.039  -1.374  0.00  0.00    +0.000 A 
ATOM     12  C   UNL     1       3.835   0.999  -1.896  0.00  0.00    +0.000 A 
ATOM     13  C   UNL     1       4.016   1.141  -3.274  0.00  0.00    +0.000 A 
ATOM     14  C   UNL     1       3.408   0.251  -4.155  0.00  0.00    +0.000 A 
ATOM     15  C   UNL     1       2.619  -0.783  -3.660  0.00  0.00    +0.000 A 
ATOM     16  C   UNL     1       2.438  -0.927  -2.282  0.00  0.00    +0.000 A 
ENDBRANCH   2  11
BRANCH   9  17
ATOM     17  O   UNL     1       5.538  -2.444   4.897  0.00  0.00    +0.000 OA
ATOM     18  C   UNL     1       6.253  -1.926   6.011  0.00  0.00    +0.000 C 
ENDBRANCH   9  17
TORSDOF 2
