REMARK  Name = *****
REMARK  1 active torsions:
REMARK  status: ('A' for Active; 'I' for Inactive)
REMARK    1  A    between atoms: C_4  and  C_7
REMARK                            x       y       z     vdW  Elec       q    Type
REMARK                         _______ _______ _______ _____ _____    ______ ____
ROOT
ATOM      1  C   UNL     1       2.649  -0.809  -0.419  0.00  0.00    +0.000 C 
ATOM      2  C   UNL     1       3.158  -2.168   0.101  0.00  0.00    +0.000 C 
ATOM      3  C   UNL     1       3.009  -2.989  -1.120  0.00  0.00    +0.000 A 
ATOM      4  C   UNL     1       3.168  -4.354  -1.287  0.00  0.00    +0.000 A 
ATOM      5  C   UNL     1       3.001  -4.885  -2.569  0.00  0.00    +0.000 A 
ATOM      6  C   UNL     1       2.691  -4.049  -3.655  0.00  0.00    +0.000 A 
ATOM      7  C   UNL     1       2.543  -2.673  -3.469  0.00  0.00    +0.000 A 
ATOM      8  C   UNL     1       2.703  -2.172  -2.194  0.00  0.00    +0.000 A 
ATOM      9  O   UNL     1       2.569  -0.850  -1.869  0.00  0.00    +0.000 OA
ENDROOT
BRANCH   1  13
ATOM     10  C   UNL     1      -1.522   0.587   0.012  0.00  0.00    +0.000 C 
ATOM     11  C   UNL     1      -1.194  -0.838   0.443  0.00  0.00    +0.000 C 
ATOM     12  C   UNL     1       0.125  -1.318  -0.160  0.00  0.00    +0.000 C 
ATOM     13  C   UNL     1       1.289  -0.370   0.184  0.00  0.00    +0.000 C 
ATOM     14  C   UNL     1       0.941   1.062  -0.267  0.00  0.00    +0.000 C 
ATOM     15  C   UNL     1      -0.379   1.543   0.332  0.00  0.00    +0.000 C 
ENDBRANCH   1  13
TORSDOF 1
