REMARK  Name = *****
REMARK  3 active torsions:
REMARK  status: ('A' for Active; 'I' for Inactive)
REMARK    1  A    between atoms: C_1  and  C_2
REMARK    2  A    between atoms: C_5  and  N_8
REMARK    3  A    between atoms: N_8  and  C_9
REMARK                            x       y       z     vdW  Elec       q    Type
REMARK                         _______ _______ _______ _____ _____    ______ ____
ROOT
ATOM      1  C   UNL     1      -4.082  -1.176  -0.148  0.00  0.00    +0.000 C 
ATOM      2  C   UNL     1      -5.072  -0.748   0.871  0.00  0.00    +0.000 A 
ATOM      3  C   UNL     1      -4.902  -0.225   2.142  0.00  0.00    +0.000 A 
ATOM      4  C   UNL     1      -6.045   0.078   2.887  0.00  0.00    +0.000 A 
ATOM      5  C   UNL     1      -7.327  -0.144   2.356  0.00  0.00    +0.000 A 
ATOM      6  C   UNL     1      -7.481  -0.669   1.072  0.00  0.00    +0.000 A 
ATOM      7  C   UNL     1      -6.339  -0.961   0.351  0.00  0.00    +0.000 A 
ATOM      8  O   UNL     1      -6.367  -1.476  -0.934  0.00  0.00    +0.000 OA
ATOM      9  C   UNL     1      -5.033  -1.615  -1.265  0.00  0.00    +0.000 C 
ATOM     10  N   UNL     1      -4.702  -2.127  -2.405  0.00  0.00    +0.000 NA
ATOM     11  H   UNL     1      -3.751  -2.227  -2.643  0.00  0.00    +0.000 HD
ENDROOT
BRANCH   1  12
ATOM     12  N   UNL     1      -3.175  -0.101  -0.574  0.00  0.00    +0.000 N 
ATOM     13 BR   UNL     1      -3.891   1.427  -1.371  0.00  0.00    +0.000 Br
BRANCH  12  18
ATOM     14  C   UNL     1       2.470  -0.449   0.533  0.00  0.00    +0.000 C 
ATOM     15  C   UNL     1       1.000  -0.331   0.269  0.00  0.00    +0.000 A 
ATOM     16  C   UNL     1       0.528   0.391  -0.826  0.00  0.00    +0.000 A 
ATOM     17  C   UNL     1      -0.846   0.467  -1.091  0.00  0.00    +0.000 A 
ATOM     18  C   UNL     1      -1.799  -0.183  -0.288  0.00  0.00    +0.000 A 
ATOM     19  C   UNL     1      -1.298  -0.913   0.804  0.00  0.00    +0.000 A 
ATOM     20  C   UNL     1       0.075  -0.992   1.078  0.00  0.00    +0.000 A 
ENDBRANCH  12  18
ENDBRANCH   1  12
TORSDOF 2
