REMARK  Name = *****
REMARK  2 active torsions:
REMARK  status: ('A' for Active; 'I' for Inactive)
REMARK    1  A    between atoms: C_1  and  C_2
REMARK    2  A    between atoms: C_2  and  C_11
REMARK                            x       y       z     vdW  Elec       q    Type
REMARK                         _______ _______ _______ _____ _____    ______ ____
ROOT
ATOM      1  C   UNL     1       0.922   0.031   0.309  0.00  0.00    +0.000 C 
ATOM      2  C   UNL     1       2.457   0.009   0.198  0.00  0.00    +0.000 C 
ATOM      3  C   UNL     1       3.034   1.214   0.998  0.00  0.00    +0.000 C 
ATOM      4  C   UNL     1       3.840   0.509   2.019  0.00  0.00    +0.000 A 
ATOM      5  C   UNL     1       4.631   1.037   3.025  0.00  0.00    +0.000 A 
ATOM      6  C   UNL     1       5.289   0.151   3.882  0.00  0.00    +0.000 A 
ATOM      7  C   UNL     1       5.145  -1.237   3.723  0.00  0.00    +0.000 A 
ATOM      8  C   UNL     1       4.341  -1.751   2.704  0.00  0.00    +0.000 A 
ATOM      9  C   UNL     1       3.702  -0.857   1.869  0.00  0.00    +0.000 A 
ATOM     10  O   UNL     1       2.893  -1.232   0.832  0.00  0.00    +0.000 OA
ENDROOT
BRANCH   2  11
ATOM     11  C   UNL     1       2.934   0.004  -1.296  0.00  0.00    +0.000 C 
ATOM     12  C   UNL     1       2.279  -1.123  -2.127  0.00  0.00    +0.000 C 
ATOM     13  C   UNL     1       2.750  -1.125  -3.581  0.00  0.00    +0.000 C 
ATOM     14  C   UNL     1       4.266  -1.204  -3.688  0.00  0.00    +0.000 C 
ATOM     15  C   UNL     1       4.930  -0.095  -2.884  0.00  0.00    +0.000 C 
ATOM     16  C   UNL     1       4.472  -0.109  -1.427  0.00  0.00    +0.000 C 
ENDBRANCH   2  11
TORSDOF 1
