REMARK  Name = *****
REMARK  9 active torsions:
REMARK  status: ('A' for Active; 'I' for Inactive)
REMARK    1  A    between atoms: C_1  and  O_2
REMARK    2  A    between atoms: O_2  and  C_3
REMARK    3  A    between atoms: C_4  and  O_23
REMARK    4  A    between atoms: C_5  and  O_21
REMARK    5  A    between atoms: C_9  and  C_13
REMARK    6  A    between atoms: C_9  and  O_19
REMARK    7  A    between atoms: O_19  and  C_20
REMARK    8  A    between atoms: O_21  and  C_22
REMARK    9  A    between atoms: O_23  and  C_24
REMARK                            x       y       z     vdW  Elec       q    Type
REMARK                         _______ _______ _______ _____ _____    ______ ____
ROOT
ATOM      1  C   UNL     1       2.772  -1.278   0.729  0.00  0.00    +0.000 A 
ATOM      2  C   UNL     1       4.008  -1.216   1.393  0.00  0.00    +0.000 A 
ATOM      3  C   UNL     1       4.779  -2.375   1.581  0.00  0.00    +0.000 A 
ATOM      4  C   UNL     1       4.364  -3.596   1.031  0.00  0.00    +0.000 A 
ATOM      5  C   UNL     1       5.199  -4.835   1.180  0.00  0.00    +0.000 C 
ATOM      6  C   UNL     1       4.757  -5.903   0.190  0.00  0.00    +0.000 C 
ATOM      7  C   UNL     1       3.226  -6.041   0.217  0.00  0.00    +0.000 C 
ATOM      8  O   UNL     1       2.606  -4.797  -0.162  0.00  0.00    +0.000 OA
ATOM      9  C   UNL     1       3.129  -3.654   0.380  0.00  0.00    +0.000 A 
ATOM     10  C   UNL     1       2.344  -2.506   0.222  0.00  0.00    +0.000 A 
ENDROOT
BRANCH   7  11
ATOM     11  C   UNL     1       2.849  -7.132  -0.800  0.00  0.00    +0.000 A 
ATOM     12  C   UNL     1       2.991  -8.494  -0.472  0.00  0.00    +0.000 A 
ATOM     13  C   UNL     1       2.673  -9.494  -1.394  0.00  0.00    +0.000 A 
ATOM     14  C   UNL     1       2.216  -9.150  -2.663  0.00  0.00    +0.000 A 
ATOM     15  C   UNL     1       2.078  -7.809  -3.012  0.00  0.00    +0.000 A 
ATOM     16  C   UNL     1       2.395  -6.808  -2.091  0.00  0.00    +0.000 A 
ENDBRANCH   7  11
BRANCH   1  18
ATOM     17  C   UNL     1       0.791  -0.151   0.024  0.00  0.00    +0.000 C 
ATOM     18  O   UNL     1       2.080  -0.100   0.621  0.00  0.00    +0.000 OA
ENDBRANCH   1  18
BRANCH   7  19
ATOM     19  O   UNL     1       2.845  -6.454   1.546  0.00  0.00    +0.000 OA
ATOM     20  C   UNL     1       1.446  -6.392   1.792  0.00  0.00    +0.000 C 
ENDBRANCH   7  19
BRANCH   3  21
ATOM     21  O   UNL     1       5.989  -2.358   2.232  0.00  0.00    +0.000 OA
ATOM     22  C   UNL     1       5.866  -1.929   3.588  0.00  0.00    +0.000 C 
ENDBRANCH   3  21
BRANCH   2  23
ATOM     23  O   UNL     1       4.441  -0.012   1.898  0.00  0.00    +0.000 OA
ATOM     24  C   UNL     1       5.217   0.670   0.913  0.00  0.00    +0.000 C 
ENDBRANCH   2  23
TORSDOF 5
