REMARK  Name = *****
REMARK  1 active torsions:
REMARK  status: ('A' for Active; 'I' for Inactive)
REMARK    1  A    between atoms: C_10  and  C_11
REMARK                            x       y       z     vdW  Elec       q    Type
REMARK                         _______ _______ _______ _____ _____    ______ ____
ROOT
ATOM      1  C   UNL     1      -2.457   0.790  -0.370  0.00  0.00    +0.000 C 
ATOM      2  C   UNL     1      -1.234   1.603   0.028  0.00  0.00    +0.000 C 
ATOM      3  C   UNL     1      -0.006   0.747   0.025  0.00  0.00    +0.000 A 
ATOM      4  C   UNL     1      -0.089  -0.643   0.021  0.00  0.00    +0.000 A 
ATOM      5  N   UNL     1       0.990  -1.451   0.013  0.00  0.00    +0.000 NA
ATOM      6  C   UNL     1       2.203  -0.860   0.032  0.00  0.00    +0.000 A 
ATOM      7  C   UNL     1       2.391   0.511   0.059  0.00  0.00    +0.000 A 
ATOM      8  C   UNL     1       1.266   1.326   0.058  0.00  0.00    +0.000 A 
ATOM      9  O   UNL     1      -1.278  -1.319  -0.015  0.00  0.00    +0.000 OA
ATOM     10  C   UNL     1      -2.418  -0.546   0.371  0.00  0.00    +0.000 C 
ENDROOT
BRANCH  10  11
ATOM     11  C   UNL     1      -3.681  -1.344   0.080  0.00  0.00    +0.000 A 
ATOM     12  C   UNL     1      -3.768  -2.198  -1.033  0.00  0.00    +0.000 A 
ATOM     13  C   UNL     1      -4.944  -2.908  -1.302  0.00  0.00    +0.000 A 
ATOM     14  C   UNL     1      -6.052  -2.764  -0.462  0.00  0.00    +0.000 A 
ATOM     15  C   UNL     1      -5.978  -1.912   0.643  0.00  0.00    +0.000 A 
ATOM     16  C   UNL     1      -4.802  -1.206   0.912  0.00  0.00    +0.000 A 
ATOM     17 CL   UNL     1      -7.539  -3.601  -0.733  0.00  0.00    +0.000 Cl
ATOM     18 CL   UNL     1      -4.963  -3.936  -2.691  0.00  0.00    +0.000 Cl
ENDBRANCH  10  11
TORSDOF 1
