REMARK  Name = *****
REMARK  5 active torsions:
REMARK  status: ('A' for Active; 'I' for Inactive)
REMARK    1  A    between atoms: C_1  and  O_2
REMARK    2  A    between atoms: O_2  and  C_3
REMARK    3  A    between atoms: C_3  and  O_19
REMARK    4  A    between atoms: C_4  and  C_13
REMARK    5  A    between atoms: O_19  and  C_20
REMARK                            x       y       z     vdW  Elec       q    Type
REMARK                         _______ _______ _______ _____ _____    ______ ____
ROOT
ATOM      1  C   UNL     1       2.840  -0.888   0.451  0.00  0.00    +0.000 C 
ATOM      2  C   UNL     1       3.941  -0.391   1.448  0.00  0.00    +0.000 C 
ATOM      3  C   UNL     1       4.031   1.139   1.337  0.00  0.00    +0.000 C 
ATOM      4  C   UNL     1       4.043   1.591  -0.094  0.00  0.00    +0.000 A 
ATOM      5  C   UNL     1       4.467   2.888  -0.417  0.00  0.00    +0.000 A 
ATOM      6  C   UNL     1       4.477   3.319  -1.744  0.00  0.00    +0.000 A 
ATOM      7  C   UNL     1       4.059   2.460  -2.758  0.00  0.00    +0.000 A 
ATOM      8  C   UNL     1       3.626   1.173  -2.442  0.00  0.00    +0.000 A 
ATOM      9  C   UNL     1       3.603   0.746  -1.114  0.00  0.00    +0.000 A 
ATOM     10  O   UNL     1       3.179  -0.537  -0.906  0.00  0.00    +0.000 OA
ENDROOT
BRANCH   2  11
ATOM     11  C   UNL     1       5.338  -1.027   1.382  0.00  0.00    +0.000 A 
ATOM     12  C   UNL     1       5.849  -1.674   0.250  0.00  0.00    +0.000 A 
ATOM     13  C   UNL     1       7.135  -2.222   0.255  0.00  0.00    +0.000 A 
ATOM     14  C   UNL     1       7.934  -2.133   1.392  0.00  0.00    +0.000 A 
ATOM     15  C   UNL     1       7.446  -1.495   2.527  0.00  0.00    +0.000 A 
ATOM     16  C   UNL     1       6.162  -0.948   2.523  0.00  0.00    +0.000 A 
ENDBRANCH   2  11
BRANCH   1  18
ATOM     17  C   UNL     1       1.005  -0.634   2.014  0.00  0.00    +0.000 C 
ATOM     18  O   UNL     1       1.550  -0.310   0.746  0.00  0.00    +0.000 OA
ENDBRANCH   1  18
BRANCH   1  19
ATOM     19  O   UNL     1       2.759  -2.323   0.577  0.00  0.00    +0.000 OA
ATOM     20  C   UNL     1       1.941  -2.924  -0.416  0.00  0.00    +0.000 C 
ENDBRANCH   1  19
TORSDOF 3
