REMARK  Name = *****
REMARK  2 active torsions:
REMARK  status: ('A' for Active; 'I' for Inactive)
REMARK    1  A    between atoms: C_1  and  C_2
REMARK    2  A    between atoms: C_9  and  C_14
REMARK                            x       y       z     vdW  Elec       q    Type
REMARK                         _______ _______ _______ _____ _____    ______ ____
ROOT
ATOM      1  C   UNL     1       0.940   0.052   0.387  0.00  0.00    +0.000 C 
ATOM      2  C   UNL     1       2.433   0.067   0.241  0.00  0.00    +0.000 A 
ATOM      3  C   UNL     1       3.147   1.265   0.366  0.00  0.00    +0.000 A 
ATOM      4  C   UNL     1       4.542   1.263   0.260  0.00  0.00    +0.000 A 
ATOM      5  C   UNL     1       5.232   0.077   0.024  0.00  0.00    +0.000 A 
ATOM      6  C   UNL     1       4.530  -1.123  -0.067  0.00  0.00    +0.000 A 
ATOM      7  C   UNL     1       3.137  -1.128   0.042  0.00  0.00    +0.000 A 
ATOM      8  O   UNL     1       6.591  -0.000  -0.108  0.00  0.00    +0.000 OA
ATOM      9  C   UNL     1       7.240   1.240  -0.476  0.00  0.00    +0.000 C 
ATOM     10  C   UNL     1       6.809   2.356   0.480  0.00  0.00    +0.000 C 
ATOM     11  C   UNL     1       5.312   2.508   0.432  0.00  0.00    +0.000 C 
ATOM     12  O   UNL     1       4.731   3.579   0.582  0.00  0.00    +0.000 OA
ATOM     13  F   UNL     1       7.467   3.520   0.201  0.00  0.00    +0.000 F 
ATOM     14  F   UNL     1       8.567   1.006  -0.203  0.00  0.00    +0.000 F 
ENDROOT
BRANCH   9  15
ATOM     15  C   UNL     1       7.077   1.470  -1.983  0.00  0.00    +0.000 A 
ATOM     16  C   UNL     1       6.671   2.691  -2.544  0.00  0.00    +0.000 A 
ATOM     17  C   UNL     1       6.542   2.835  -3.929  0.00  0.00    +0.000 A 
ATOM     18  C   UNL     1       6.826   1.768  -4.776  0.00  0.00    +0.000 A 
ATOM     19  C   UNL     1       7.249   0.555  -4.243  0.00  0.00    +0.000 A 
ATOM     20  C   UNL     1       7.379   0.409  -2.861  0.00  0.00    +0.000 A 
ENDBRANCH   9  15
TORSDOF 1
