REMARK  Name = *****
REMARK  2 active torsions:
REMARK  status: ('A' for Active; 'I' for Inactive)
REMARK    1  A    between atoms: C_8  and  C_11
REMARK    2  A    between atoms: C_8  and  C_17
REMARK                            x       y       z     vdW  Elec       q    Type
REMARK                         _______ _______ _______ _____ _____    ______ ____
ROOT
ATOM      1  C   UNL     1       1.162   0.608  -0.627  0.00  0.00    +0.000 C 
ATOM      2  C   UNL     1       2.282   0.100  -0.092  0.00  0.00    +0.000 C 
ATOM      3  C   UNL     1       3.400   0.948   0.457  0.00  0.00    +0.000 C 
ATOM      4  C   UNL     1       4.414  -0.065   0.982  0.00  0.00    +0.000 C 
ATOM      5  C   UNL     1       4.184  -1.302   0.122  0.00  0.00    +0.000 C 
ATOM      6  C   UNL     1       2.665  -1.355  -0.017  0.00  0.00    +0.000 C 
ATOM      7  O   UNL     1       2.085  -1.920   1.147  0.00  0.00    +0.000 OA
ATOM      8  C   UNL     1       1.550  -3.187   0.715  0.00  0.00    +0.000 C 
ATOM      9  O   UNL     1       2.006  -3.422  -0.631  0.00  0.00    +0.000 OA
ATOM     10  O   UNL     1       2.272  -2.089  -1.158  0.00  0.00    +0.000 OA
ENDROOT
BRANCH   8  11
ATOM     11  C   UNL     1       2.118  -4.276   1.629  0.00  0.00    +0.000 A 
ATOM     12  C   UNL     1       2.339  -4.022   2.995  0.00  0.00    +0.000 A 
ATOM     13  C   UNL     1       2.838  -5.017   3.838  0.00  0.00    +0.000 A 
ATOM     14  C   UNL     1       3.119  -6.284   3.333  0.00  0.00    +0.000 A 
ATOM     15  C   UNL     1       2.898  -6.558   1.986  0.00  0.00    +0.000 A 
ATOM     16  C   UNL     1       2.399  -5.565   1.141  0.00  0.00    +0.000 A 
ENDBRANCH   8  11
BRANCH   8  17
ATOM     17  C   UNL     1      -0.005  -3.189   0.743  0.00  0.00    +0.000 C 
ATOM     18  F   UNL     1      -0.496  -2.955   1.987  0.00  0.00    +0.000 F 
ATOM     19  F   UNL     1      -0.526  -2.231  -0.066  0.00  0.00    +0.000 F 
ATOM     20  F   UNL     1      -0.523  -4.373   0.328  0.00  0.00    +0.000 F 
ENDBRANCH   8  17
TORSDOF 2
