REMARK  Name = *****
REMARK  3 active torsions:
REMARK  status: ('A' for Active; 'I' for Inactive)
REMARK    1  A    between atoms: C_1  and  C_2
REMARK    2  A    between atoms: C_2  and  S_6
REMARK    3  A    between atoms: S_6  and  C_7
REMARK                            x       y       z     vdW  Elec       q    Type
REMARK                         _______ _______ _______ _____ _____    ______ ____
ROOT
ATOM      1  C   UNL     1      -2.460  -1.396   2.117  0.00  0.00    +0.000 A 
ATOM      2  N   UNL     1      -2.227  -2.403   1.309  0.00  0.00    +0.000 NA
ATOM      3  C   UNL     1      -3.098  -3.441   1.590  0.00  0.00    +0.000 A 
ATOM      4  C   UNL     1      -3.145  -4.683   0.925  0.00  0.00    +0.000 A 
ATOM      5  C   UNL     1      -4.083  -5.645   1.313  0.00  0.00    +0.000 A 
ATOM      6  C   UNL     1      -4.971  -5.384   2.353  0.00  0.00    +0.000 A 
ATOM      7  C   UNL     1      -4.943  -4.161   3.030  0.00  0.00    +0.000 A 
ATOM      8  C   UNL     1      -3.997  -3.203   2.632  0.00  0.00    +0.000 A 
ATOM      9  S   UNL     1      -3.714  -1.626   3.261  0.00  0.00    +0.000 S 
ENDROOT
BRANCH   1  10
ATOM     10  S   UNL     1      -1.539   0.092   2.053  0.00  0.00    +0.000 S 
BRANCH  10  12
ATOM     11  C   UNL     1      -1.756   0.118  -0.744  0.00  0.00    +0.000 C 
ATOM     12  C   UNL     1      -0.749  -0.008   0.392  0.00  0.00    +0.000 C 
ATOM     13  C   UNL     1       0.321  -1.134   0.297  0.00  0.00    +0.000 C 
ATOM     14  C   UNL     1       1.260  -0.110  -0.372  0.00  0.00    +0.000 C 
ATOM     15  C   UNL     1       0.438   1.001   0.311  0.00  0.00    +0.000 C 
ENDBRANCH  10  12
ENDBRANCH   1  10
TORSDOF 2
