REMARK  Name = *****
REMARK  4 active torsions:
REMARK  status: ('A' for Active; 'I' for Inactive)
REMARK    1  A    between atoms: C_1  and  C_2
REMARK    2  A    between atoms: C_2  and  O_4
REMARK    3  A    between atoms: O_4  and  C_5
REMARK    4  A    between atoms: C_5  and  C_15
REMARK                            x       y       z     vdW  Elec       q    Type
REMARK                         _______ _______ _______ _____ _____    ______ ____
ROOT
ATOM      1  C   UNL     1       4.398   0.141   1.074  0.00  0.00    +0.000 C 
ATOM      2  C   UNL     1       5.149   0.672  -0.165  0.00  0.00    +0.000 C 
ATOM      3  C   UNL     1       4.760  -0.130  -1.400  0.00  0.00    +0.000 C 
ATOM      4  C   UNL     1       4.759  -1.598  -1.101  0.00  0.00    +0.000 A 
ATOM      5  C   UNL     1       4.731  -2.530  -2.147  0.00  0.00    +0.000 A 
ATOM      6  C   UNL     1       4.726  -3.899  -1.873  0.00  0.00    +0.000 A 
ATOM      7  C   UNL     1       4.744  -4.346  -0.554  0.00  0.00    +0.000 A 
ATOM      8  C   UNL     1       4.762  -3.424   0.491  0.00  0.00    +0.000 A 
ATOM      9  C   UNL     1       4.755  -2.056   0.219  0.00  0.00    +0.000 A 
ATOM     10  O   UNL     1       4.779  -1.228   1.306  0.00  0.00    +0.000 OA
ENDROOT
BRANCH   1  11
ATOM     11  C   UNL     1       4.805   1.026   2.265  0.00  0.00    +0.000 A 
ATOM     12  C   UNL     1       5.698   0.566   3.248  0.00  0.00    +0.000 A 
ATOM     13  C   UNL     1       6.077   1.387   4.313  0.00  0.00    +0.000 A 
ATOM     14  C   UNL     1       5.573   2.681   4.413  0.00  0.00    +0.000 A 
ATOM     15  C   UNL     1       4.689   3.158   3.449  0.00  0.00    +0.000 A 
ATOM     16  C   UNL     1       4.308   2.339   2.384  0.00  0.00    +0.000 A 
ENDBRANCH   1  11
BRANCH   1  17
ATOM     17  O   UNL     1       2.981   0.289   0.814  0.00  0.00    +0.000 OA
BRANCH  17  19
ATOM     18  C   UNL     1       0.714  -0.059   1.229  0.00  0.00    +0.000 C 
ATOM     19  C   UNL     1       2.121  -0.277   1.700  0.00  0.00    +0.000 C 
ATOM     20  O   UNL     1       2.405  -0.871   2.729  0.00  0.00    +0.000 OA
ENDBRANCH  17  19
ENDBRANCH   1  17
TORSDOF 3
