REMARK  Name = *****
REMARK  3 active torsions:
REMARK  status: ('A' for Active; 'I' for Inactive)
REMARK    1  A    between atoms: C_9  and  C_11
REMARK    2  A    between atoms: C_11  and  O_13
REMARK    3  A    between atoms: O_13  and  C_14
REMARK                            x       y       z     vdW  Elec       q    Type
REMARK                         _______ _______ _______ _____ _____    ______ ____
ROOT
ATOM      1  C   UNL     1       2.541  -0.787   0.491  0.00  0.00    +0.000 A 
ATOM      2  C   UNL     1       2.556   0.539   0.074  0.00  0.00    +0.000 A 
ATOM      3  C   UNL     1       1.356   1.186  -0.235  0.00  0.00    +0.000 A 
ATOM      4  C   UNL     1       0.132   0.539  -0.136  0.00  0.00    +0.000 A 
ATOM      5  C   UNL     1       0.121  -0.805   0.295  0.00  0.00    +0.000 A 
ATOM      6  C   UNL     1       1.326  -1.460   0.603  0.00  0.00    +0.000 A 
ATOM      7  C   UNL     1      -1.116  -1.453   0.403  0.00  0.00    +0.000 A 
ATOM      8  C   UNL     1      -2.284  -0.768   0.086  0.00  0.00    +0.000 A 
ATOM      9  C   UNL     1      -2.176   0.549  -0.339  0.00  0.00    +0.000 A 
ATOM     10  N   UNL     1      -0.991   1.205  -0.451  0.00  0.00    +0.000 NA
ENDROOT
BRANCH   9  11
ATOM     11  C   UNL     1      -3.421   1.286  -0.707  0.00  0.00    +0.000 C 
ATOM     12  O   UNL     1      -4.547   0.854  -0.508  0.00  0.00    +0.000 OA
BRANCH  11  13
ATOM     13  O   UNL     1      -3.074   2.488  -1.308  0.00  0.00    +0.000 OA
BRANCH  13  14
ATOM     14  C   UNL     1      -4.036   3.369  -1.843  0.00  0.00    +0.000 A 
ATOM     15  C   UNL     1      -5.220   2.944  -2.444  0.00  0.00    +0.000 A 
ATOM     16  C   UNL     1      -6.084   3.891  -3.001  0.00  0.00    +0.000 A 
ATOM     17  C   UNL     1      -5.748   5.245  -2.968  0.00  0.00    +0.000 A 
ATOM     18  C   UNL     1      -4.553   5.664  -2.383  0.00  0.00    +0.000 A 
ATOM     19  C   UNL     1      -3.691   4.722  -1.822  0.00  0.00    +0.000 A 
ATOM     20 CL   UNL     1      -6.810   6.405  -3.666  0.00  0.00    +0.000 Cl
ENDBRANCH  13  14
ENDBRANCH  11  13
ENDBRANCH   9  11
TORSDOF 3
