REMARK  Name = *****
REMARK  2 active torsions:
REMARK  status: ('A' for Active; 'I' for Inactive)
REMARK    1  A    between atoms: C_11  and  C_12
REMARK    2  A    between atoms: C_11  and  C_14
REMARK                            x       y       z     vdW  Elec       q    Type
REMARK                         _______ _______ _______ _____ _____    ______ ____
ROOT
ATOM      1  C   UNL     1      -2.517   0.726  -0.385  0.00  0.00    +0.000 C 
ATOM      2  C   UNL     1      -1.244   1.504  -0.211  0.00  0.00    +0.000 C 
ATOM      3  O   UNL     1      -1.216   2.729  -0.262  0.00  0.00    +0.000 OA
ATOM      4  C   UNL     1      -0.006   0.721  -0.071  0.00  0.00    +0.000 A 
ATOM      5  C   UNL     1       1.240   1.355  -0.043  0.00  0.00    +0.000 A 
ATOM      6  C   UNL     1       2.401   0.586   0.035  0.00  0.00    +0.000 A 
ATOM      7  C   UNL     1       2.314  -0.807   0.078  0.00  0.00    +0.000 A 
ATOM      8  C   UNL     1       1.066  -1.433   0.053  0.00  0.00    +0.000 A 
ATOM      9  C   UNL     1      -0.097  -0.667  -0.007  0.00  0.00    +0.000 A 
ATOM     10  O   UNL     1      -1.280  -1.353  -0.015  0.00  0.00    +0.000 OA
ATOM     11  C   UNL     1      -2.449  -0.596   0.387  0.00  0.00    +0.000 C 
ENDROOT
BRANCH  11  12
ATOM     12  C   UNL     1      -3.702  -1.423   0.018  0.00  0.00    +0.000 A 
ATOM     13  C   UNL     1      -3.612  -2.603  -0.745  0.00  0.00    +0.000 A 
ATOM     14  C   UNL     1      -4.757  -3.329  -1.085  0.00  0.00    +0.000 A 
ATOM     15  C   UNL     1      -6.012  -2.891  -0.676  0.00  0.00    +0.000 A 
ATOM     16  C   UNL     1      -6.128  -1.726   0.075  0.00  0.00    +0.000 A 
ATOM     17  C   UNL     1      -4.986  -0.997   0.418  0.00  0.00    +0.000 A 
ENDBRANCH  11  12
BRANCH  11  18
ATOM     18  C   UNL     1      -2.417  -0.364   1.861  0.00  0.00    +0.000 C 
ATOM     19  N   UNL     1      -2.388  -0.154   3.004  0.00  0.00    +0.000 NA
ENDBRANCH  11  18
TORSDOF 2
