REMARK  Name = *****
REMARK  3 active torsions:
REMARK  status: ('A' for Active; 'I' for Inactive)
REMARK    1  A    between atoms: C_1  and  O_2
REMARK    2  A    between atoms: O_2  and  C_3
REMARK    3  A    between atoms: C_6  and  C_9
REMARK                            x       y       z     vdW  Elec       q    Type
REMARK                         _______ _______ _______ _____ _____    ______ ____
ROOT
ATOM      1  C   UNL     1       6.303   4.877  -1.188  0.00  0.00    +0.000 C 
ATOM      2  C   UNL     1       6.472   5.616  -2.519  0.00  0.00    +0.000 C 
ATOM      3  C   UNL     1       5.404   6.685  -2.677  0.00  0.00    +0.000 C 
ATOM      4  C   UNL     1       5.341   7.519  -1.434  0.00  0.00    +0.000 A 
ATOM      5  C   UNL     1       4.799   8.811  -1.478  0.00  0.00    +0.000 A 
ATOM      6  C   UNL     1       4.730   9.589  -0.321  0.00  0.00    +0.000 A 
ATOM      7  C   UNL     1       5.193   9.079   0.889  0.00  0.00    +0.000 A 
ATOM      8  C   UNL     1       5.719   7.789   0.943  0.00  0.00    +0.000 A 
ATOM      9  C   UNL     1       5.787   7.008  -0.212  0.00  0.00    +0.000 A 
ATOM     10  O   UNL     1       6.298   5.750  -0.047  0.00  0.00    +0.000 OA
ENDROOT
BRANCH   1  14
ATOM     11  C   UNL     1       3.018   2.022  -1.257  0.00  0.00    +0.000 A 
ATOM     12  C   UNL     1       4.208   1.758  -1.931  0.00  0.00    +0.000 A 
ATOM     13  C   UNL     1       5.257   2.685  -1.897  0.00  0.00    +0.000 A 
ATOM     14  C   UNL     1       5.138   3.893  -1.188  0.00  0.00    +0.000 A 
ATOM     15  C   UNL     1       3.936   4.145  -0.515  0.00  0.00    +0.000 A 
ATOM     16  C   UNL     1       2.889   3.220  -0.553  0.00  0.00    +0.000 A 
BRANCH  11  18
ATOM     17  C   UNL     1       2.024  -0.050  -1.865  0.00  0.00    +0.000 C 
ATOM     18  O   UNL     1       1.920   1.207  -1.210  0.00  0.00    +0.000 OA
ENDBRANCH  11  18
ENDBRANCH   1  14
TORSDOF 2
