REMARK  Name = *****
REMARK  3 active torsions:
REMARK  status: ('A' for Active; 'I' for Inactive)
REMARK    1  A    between atoms: C_1  and  C_2
REMARK    2  A    between atoms: C_5  and  C_8
REMARK    3  A    between atoms: C_8  and  C_9
REMARK                            x       y       z     vdW  Elec       q    Type
REMARK                         _______ _______ _______ _____ _____    ______ ____
ROOT
ATOM      1  C   UNL     1      -3.992   1.633   0.088  0.00  0.00    +0.000 C 
ATOM      2  C   UNL     1      -3.642   2.793  -0.862  0.00  0.00    +0.000 C 
ATOM      3  C   UNL     1      -4.919   3.539  -0.803  0.00  0.00    +0.000 A 
ATOM      4  C   UNL     1      -5.221   4.809  -1.260  0.00  0.00    +0.000 A 
ATOM      5  C   UNL     1      -6.541   5.255  -1.140  0.00  0.00    +0.000 A 
ATOM      6  C   UNL     1      -7.530   4.426  -0.583  0.00  0.00    +0.000 A 
ATOM      7  C   UNL     1      -7.209   3.142  -0.138  0.00  0.00    +0.000 A 
ATOM      8  C   UNL     1      -5.899   2.728  -0.253  0.00  0.00    +0.000 A 
ATOM      9  O   UNL     1      -5.441   1.495   0.132  0.00  0.00    +0.000 OA
ENDROOT
BRANCH   1  10
ATOM     10  C   UNL     1      -3.386   0.293  -0.338  0.00  0.00    +0.000 C 
BRANCH  10  15
ATOM     11  C   UNL     1       2.435   0.256  -0.134  0.00  0.00    +0.000 C 
ATOM     12  C   UNL     1       0.937   0.290  -0.186  0.00  0.00    +0.000 A 
ATOM     13  C   UNL     1       0.185   0.228   0.992  0.00  0.00    +0.000 A 
ATOM     14  C   UNL     1      -1.211   0.226   0.943  0.00  0.00    +0.000 A 
ATOM     15  C   UNL     1      -1.879   0.276  -0.287  0.00  0.00    +0.000 A 
ATOM     16  C   UNL     1      -1.126   0.320  -1.466  0.00  0.00    +0.000 A 
ATOM     17  C   UNL     1       0.270   0.322  -1.416  0.00  0.00    +0.000 A 
ENDBRANCH  10  15
ENDBRANCH   1  10
TORSDOF 2
