REMARK  Name = *****
REMARK  3 active torsions:
REMARK  status: ('A' for Active; 'I' for Inactive)
REMARK    1  A    between atoms: C_1  and  O_2
REMARK    2  A    between atoms: O_2  and  N_3
REMARK    3  A    between atoms: C_6  and  C_14
REMARK                            x       y       z     vdW  Elec       q    Type
REMARK                         _______ _______ _______ _____ _____    ______ ____
ROOT
ATOM      1  N   UNL     1       3.104   0.721  -0.984  0.00  0.00    +0.000 NA
ATOM      2  C   UNL     1       4.399   0.701  -0.870  0.00  0.00    +0.000 C 
ATOM      3  C   UNL     1       5.175   1.618  -1.780  0.00  0.00    +0.000 C 
ATOM      4  C   UNL     1       6.185   0.724  -2.487  0.00  0.00    +0.000 C 
ATOM      5  O   UNL     1       7.132   0.171  -1.556  0.00  0.00    +0.000 OA
ATOM      6  C   UNL     1       6.583  -0.342  -0.409  0.00  0.00    +0.000 A 
ATOM      7  C   UNL     1       7.461  -1.075   0.393  0.00  0.00    +0.000 A 
ATOM      8  C   UNL     1       7.027  -1.602   1.609  0.00  0.00    +0.000 A 
ATOM      9  C   UNL     1       5.719  -1.378   2.035  0.00  0.00    +0.000 A 
ATOM     10  C   UNL     1       4.840  -0.636   1.241  0.00  0.00    +0.000 A 
ATOM     11  C   UNL     1       5.260  -0.134   0.004  0.00  0.00    +0.000 A 
ENDROOT
BRANCH   4  12
ATOM     12  C   UNL     1       6.940   1.509  -3.544  0.00  0.00    +0.000 A 
ATOM     13  C   UNL     1       8.035   2.321  -3.210  0.00  0.00    +0.000 A 
ATOM     14  C   UNL     1       8.701   3.057  -4.192  0.00  0.00    +0.000 A 
ATOM     15  C   UNL     1       8.278   2.996  -5.517  0.00  0.00    +0.000 A 
ATOM     16  C   UNL     1       7.188   2.200  -5.863  0.00  0.00    +0.000 A 
ATOM     17  C   UNL     1       6.521   1.462  -4.883  0.00  0.00    +0.000 A 
ENDBRANCH   4  12
BRANCH   1  19
ATOM     18  C   UNL     1       1.059  -0.157  -0.460  0.00  0.00    +0.000 C 
ATOM     19  O   UNL     1       2.458  -0.257  -0.225  0.00  0.00    +0.000 OA
ENDBRANCH   1  19
TORSDOF 2
