REMARK  Name = *****
REMARK  4 active torsions:
REMARK  status: ('A' for Active; 'I' for Inactive)
REMARK    1  A    between atoms: C_1  and  N_2
REMARK    2  A    between atoms: N_2  and  C_3
REMARK    3  A    between atoms: N_2  and  S_9
REMARK    4  A    between atoms: S_9  and  C_12
REMARK                            x       y       z     vdW  Elec       q    Type
REMARK                         _______ _______ _______ _____ _____    ______ ____
ROOT
ATOM      1  S   UNL     1       3.494   1.596  -0.428  0.00  0.00    +0.000 S 
ATOM      2  O   UNL     1       4.928   1.447  -0.541  0.00  0.00    +0.000 OA
ATOM      3  O   UNL     1       2.714   2.240  -1.464  0.00  0.00    +0.000 OA
ENDROOT
BRANCH   1   4
ATOM      4  C   UNL     1       3.234   2.479   1.098  0.00  0.00    +0.000 A 
ATOM      5  C   UNL     1       3.760   1.949   2.282  0.00  0.00    +0.000 A 
ATOM      6  C   UNL     1       3.565   2.631   3.484  0.00  0.00    +0.000 A 
ATOM      7  C   UNL     1       2.852   3.831   3.492  0.00  0.00    +0.000 A 
ATOM      8  C   UNL     1       2.334   4.361   2.308  0.00  0.00    +0.000 A 
ATOM      9  C   UNL     1       2.527   3.685   1.102  0.00  0.00    +0.000 A 
ATOM     10 CL   UNL     1       2.610   4.667   4.977  0.00  0.00    +0.000 Cl
ENDBRANCH   1   4
BRANCH   1  12
ATOM     11  C   UNL     1       1.303   0.183   0.210  0.00  0.00    +0.000 C 
ATOM     12  N   UNL     1       2.759   0.064  -0.125  0.00  0.00    +0.000 NA
BRANCH  12  13
ATOM     13  C   UNL     1       2.972  -1.023  -1.174  0.00  0.00    +0.000 C 
ATOM     14  C   UNL     1       2.565  -2.384  -0.561  0.00  0.00    +0.000 C 
ATOM     15  C   UNL     1       2.802  -3.560  -1.504  0.00  0.00    +0.000 C 
ATOM     16  C   UNL     1       4.245  -3.615  -1.979  0.00  0.00    +0.000 C 
ATOM     17  C   UNL     1       4.648  -2.299  -2.624  0.00  0.00    +0.000 C 
ATOM     18  C   UNL     1       4.417  -1.111  -1.690  0.00  0.00    +0.000 C 
ENDBRANCH  12  13
ENDBRANCH   1  12
TORSDOF 3
