REMARK  Name = *****
REMARK  3 active torsions:
REMARK  status: ('A' for Active; 'I' for Inactive)
REMARK    1  A    between atoms: C_1  and  C_2
REMARK    2  A    between atoms: C_5  and  C_8
REMARK    3  A    between atoms: C_8  and  C_17
REMARK                            x       y       z     vdW  Elec       q    Type
REMARK                         _______ _______ _______ _____ _____    ______ ____
ROOT
ATOM      1  C   UNL     1      -3.763  -0.020  -0.481  0.00  0.00    +0.000 C 
ATOM      2  C   UNL     1      -4.134   0.759  -1.709  0.00  0.00    +0.000 C 
ATOM      3  C   UNL     1      -4.498   1.996  -1.374  0.00  0.00    +0.000 C 
ATOM      4  C   UNL     1      -5.025   3.099  -2.220  0.00  0.00    +0.000 C 
ATOM      5  C   UNL     1      -5.464   4.284  -1.351  0.00  0.00    +0.000 C 
ATOM      6  C   UNL     1      -6.318   3.846  -0.156  0.00  0.00    +0.000 C 
ATOM      7  C   UNL     1      -5.692   2.719   0.681  0.00  0.00    +0.000 C 
ATOM      8  C   UNL     1      -4.394   2.171   0.096  0.00  0.00    +0.000 C 
ATOM      9  O   UNL     1      -4.112   0.864   0.623  0.00  0.00    +0.000 OA
ATOM     10  C   UNL     1      -2.246  -0.236  -0.397  0.00  0.00    +0.000 C 
ENDROOT
BRANCH   1  15
ATOM     11  C   UNL     1      -6.833  -5.007  -0.159  0.00  0.00    +0.000 C 
ATOM     12  C   UNL     1      -6.059  -3.728  -0.262  0.00  0.00    +0.000 A 
ATOM     13  C   UNL     1      -6.423  -2.620   0.508  0.00  0.00    +0.000 A 
ATOM     14  C   UNL     1      -5.684  -1.434   0.441  0.00  0.00    +0.000 A 
ATOM     15  C   UNL     1      -4.554  -1.324  -0.386  0.00  0.00    +0.000 A 
ATOM     16  C   UNL     1      -4.200  -2.447  -1.155  0.00  0.00    +0.000 A 
ATOM     17  C   UNL     1      -4.934  -3.636  -1.086  0.00  0.00    +0.000 A 
ENDBRANCH   1  15
TORSDOF 1
