REMARK  Name = *****
REMARK  3 active torsions:
REMARK  status: ('A' for Active; 'I' for Inactive)
REMARK    1  A    between atoms: C_6  and  C_7
REMARK    2  A    between atoms: C_7  and  C_8
REMARK    3  A    between atoms: C_7  and  O_18
REMARK                            x       y       z     vdW  Elec       q    Type
REMARK                         _______ _______ _______ _____ _____    ______ ____
ROOT
ATOM      1  C   UNL     1       2.471   0.706  -2.743  0.00  0.00    +0.000 A 
ATOM      2  C   UNL     1       3.704   0.778  -2.061  0.00  0.00    +0.000 A 
ATOM      3  C   UNL     1       4.594   1.821  -2.292  0.00  0.00    +0.000 A 
ATOM      4  C   UNL     1       4.264   2.821  -3.200  0.00  0.00    +0.000 A 
ATOM      5  C   UNL     1       3.035   2.804  -3.875  0.00  0.00    +0.000 A 
ATOM      6  C   UNL     1       2.720   3.841  -4.769  0.00  0.00    +0.000 A 
ATOM      7  C   UNL     1       1.500   3.865  -5.441  0.00  0.00    +0.000 A 
ATOM      8  C   UNL     1       0.577   2.853  -5.222  0.00  0.00    +0.000 A 
ATOM      9  C   UNL     1       0.877   1.813  -4.339  0.00  0.00    +0.000 A 
ATOM     10  C   UNL     1       2.112   1.750  -3.648  0.00  0.00    +0.000 A 
ENDROOT
BRANCH   1  11
ATOM     11  C   UNL     1       1.542  -0.464  -2.449  0.00  0.00    +0.000 C 
BRANCH  11  17
ATOM     12  C   UNL     1      -1.079   1.101   0.030  0.00  0.00    +0.000 C 
ATOM     13  C   UNL     1      -1.480  -0.369   0.043  0.00  0.00    +0.000 C 
ATOM     14  C   UNL     1      -0.192  -0.989  -0.419  0.00  0.00    +0.000 C 
ATOM     15  C   UNL     1       1.084  -0.274   0.047  0.00  0.00    +0.000 C 
ATOM     16  C   UNL     1       0.343   0.975  -0.435  0.00  0.00    +0.000 C 
ATOM     17  C   UNL     1       0.570  -0.153  -1.370  0.00  0.00    +0.000 C 
ENDBRANCH  11  17
BRANCH  11  18
ATOM     18  O   UNL     1       2.270  -1.659  -2.144  0.00  0.00    +0.000 OA
ATOM     19  H   UNL     1       2.784  -1.526  -1.332  0.00  0.00    +0.000 HD
ENDBRANCH  11  18
ENDBRANCH   1  11
TORSDOF 3
