REMARK  Name = *****
REMARK  2 active torsions:
REMARK  status: ('A' for Active; 'I' for Inactive)
REMARK    1  A    between atoms: C_8  and  C_15
REMARK    2  A    between atoms: C_8  and  O_21
REMARK                            x       y       z     vdW  Elec       q    Type
REMARK                         _______ _______ _______ _____ _____    ______ ____
ROOT
ATOM      1  C   UNL     1       1.059  -0.281   0.057  0.00  0.00    +0.000 C 
ATOM      2  C   UNL     1       0.329   0.817  -0.706  0.00  0.00    +0.000 C 
ATOM      3  C   UNL     1       0.737   2.208  -0.230  0.00  0.00    +0.000 C 
ATOM      4  C   UNL     1       2.264   2.414  -0.284  0.00  0.00    +0.000 C 
ATOM      5  C   UNL     1       3.036   1.296   0.446  0.00  0.00    +0.000 C 
ATOM      6  C   UNL     1       2.571  -0.096  -0.011  0.00  0.00    +0.000 C 
ATOM      7  C   UNL     1       2.909   1.471   1.967  0.00  0.00    +0.000 C 
ATOM      8  C   UNL     1       3.526   2.807   2.441  0.00  0.00    +0.000 C 
ATOM      9  C   UNL     1       3.193   3.984   1.517  0.00  0.00    +0.000 A 
ATOM     10  C   UNL     1       3.536   5.294   1.914  0.00  0.00    +0.000 A 
ATOM     11  C   UNL     1       3.292   6.389   1.086  0.00  0.00    +0.000 A 
ATOM     12  C   UNL     1       2.716   6.195  -0.163  0.00  0.00    +0.000 A 
ATOM     13  C   UNL     1       2.391   4.908  -0.585  0.00  0.00    +0.000 A 
ATOM     14  C   UNL     1       2.629   3.792   0.239  0.00  0.00    +0.000 A 
ENDROOT
BRANCH   8  15
ATOM     15  C   UNL     1       3.106   3.021   3.903  0.00  0.00    +0.000 A 
ATOM     16  C   UNL     1       3.981   2.743   4.967  0.00  0.00    +0.000 A 
ATOM     17  C   UNL     1       3.581   2.921   6.293  0.00  0.00    +0.000 A 
ATOM     18  C   UNL     1       2.297   3.377   6.581  0.00  0.00    +0.000 A 
ATOM     19  C   UNL     1       1.410   3.650   5.544  0.00  0.00    +0.000 A 
ATOM     20  C   UNL     1       1.808   3.470   4.217  0.00  0.00    +0.000 A 
ENDBRANCH   8  15
BRANCH   8  21
ATOM     21  O   UNL     1       4.955   2.635   2.376  0.00  0.00    +0.000 OA
ATOM     22  H   UNL     1       5.223   2.499   1.454  0.00  0.00    +0.000 HD
ENDBRANCH   8  21
TORSDOF 2
