REMARK  Name = *****
REMARK  2 active torsions:
REMARK  status: ('A' for Active; 'I' for Inactive)
REMARK    1  A    between atoms: C_4  and  C_9
REMARK    2  A    between atoms: C_12  and  C_14
REMARK                            x       y       z     vdW  Elec       q    Type
REMARK                         _______ _______ _______ _____ _____    ______ ____
ROOT
ATOM      1  C   UNL     1      -1.328  -1.454  -0.071  0.00  0.00    +0.000 C 
ATOM      2  C   UNL     1      -0.040  -0.691  -0.007  0.00  0.00    +0.000 A 
ATOM      3  C   UNL     1      -0.059   0.708  -0.050  0.00  0.00    +0.000 A 
ATOM      4  C   UNL     1       1.133   1.447   0.011  0.00  0.00    +0.000 A 
ATOM      5  C   UNL     1       2.354   0.755   0.078  0.00  0.00    +0.000 A 
ATOM      6  C   UNL     1       2.374  -0.638   0.101  0.00  0.00    +0.000 A 
ATOM      7  C   UNL     1       1.186  -1.364   0.058  0.00  0.00    +0.000 A 
ATOM      8 CL   UNL     1       3.878  -1.470   0.182  0.00  0.00    +0.000 Cl
ATOM      9  O   UNL     1      -1.234   1.407  -0.127  0.00  0.00    +0.000 OA
ATOM     10  C   UNL     1      -2.371   0.593  -0.437  0.00  0.00    +0.000 C 
ATOM     11  O   UNL     1      -2.414  -0.621   0.309  0.00  0.00    +0.000 OA
ENDROOT
BRANCH  10  12
ATOM     12  C   UNL     1      -3.609   1.403  -0.110  0.00  0.00    +0.000 A 
ATOM     13  C   UNL     1      -4.415   1.924  -1.134  0.00  0.00    +0.000 A 
ATOM     14  C   UNL     1      -5.547   2.683  -0.831  0.00  0.00    +0.000 A 
ATOM     15  C   UNL     1      -5.884   2.935   0.498  0.00  0.00    +0.000 A 
ATOM     16  C   UNL     1      -5.090   2.431   1.525  0.00  0.00    +0.000 A 
ATOM     17  C   UNL     1      -3.959   1.671   1.224  0.00  0.00    +0.000 A 
ENDBRANCH  10  12
BRANCH   4  18
ATOM     18  C   UNL     1       1.129   2.950  -0.040  0.00  0.00    +0.000 C 
ATOM     19 CL   UNL     1       1.336   3.510  -1.714  0.00  0.00    +0.000 Cl
ENDBRANCH   4  18
TORSDOF 2
