REMARK  Name = *****
REMARK  1 active torsions:
REMARK  status: ('A' for Active; 'I' for Inactive)
REMARK    1  A    between atoms: C_4  and  C_7
REMARK                            x       y       z     vdW  Elec       q    Type
REMARK                         _______ _______ _______ _____ _____    ______ ____
ROOT
ATOM      1  C   UNL     1      -1.740   1.245  -0.533  0.00  0.00    +0.000 C 
ATOM      2  C   UNL     1      -0.225   1.464  -0.687  0.00  0.00    +0.000 C 
ATOM      3  C   UNL     1      -0.014   2.266  -1.950  0.00  0.00    +0.000 C 
ATOM      4  O   UNL     1       0.950   2.139  -2.702  0.00  0.00    +0.000 OA
ATOM      5  C   UNL     1      -1.010   3.320  -2.218  0.00  0.00    +0.000 A 
ATOM      6  C   UNL     1      -2.163   3.381  -1.435  0.00  0.00    +0.000 A 
ATOM      7  O   UNL     1      -2.462   2.491  -0.443  0.00  0.00    +0.000 OA
ATOM      8  C   UNL     1      -3.083   4.411  -1.635  0.00  0.00    +0.000 A 
ATOM      9  C   UNL     1      -2.862   5.360  -2.636  0.00  0.00    +0.000 A 
ATOM     10  C   UNL     1      -1.718   5.279  -3.431  0.00  0.00    +0.000 A 
ATOM     11  C   UNL     1      -0.787   4.264  -3.228  0.00  0.00    +0.000 A 
ATOM     12 CL   UNL     1      -1.453   6.449  -4.663  0.00  0.00    +0.000 Cl
ATOM     13  F   UNL     1       0.431   0.267  -0.727  0.00  0.00    +0.000 F 
ATOM     14  F   UNL     1       0.280   2.133   0.394  0.00  0.00    +0.000 F 
ATOM     15  F   UNL     1      -2.215   0.622  -1.661  0.00  0.00    +0.000 F 
ENDROOT
BRANCH   1  19
ATOM     16  C   UNL     1      -2.683  -1.081   3.002  0.00  0.00    +0.000 A 
ATOM     17  C   UNL     1      -2.310   0.255   3.133  0.00  0.00    +0.000 A 
ATOM     18  C   UNL     1      -2.008   1.011   1.999  0.00  0.00    +0.000 A 
ATOM     19  C   UNL     1      -2.078   0.439   0.716  0.00  0.00    +0.000 A 
ATOM     20  C   UNL     1      -2.455  -0.909   0.603  0.00  0.00    +0.000 A 
ATOM     21  C   UNL     1      -2.755  -1.663   1.739  0.00  0.00    +0.000 A 
ENDBRANCH   1  19
TORSDOF 1
