REMARK  Name = *****
REMARK  5 active torsions:
REMARK  status: ('A' for Active; 'I' for Inactive)
REMARK    1  A    between atoms: C_1  and  C_2
REMARK    2  A    between atoms: C_3  and  C_19
REMARK    3  A    between atoms: C_4  and  O_8
REMARK    4  A    between atoms: O_8  and  C_9
REMARK    5  A    between atoms: C_9  and  C_10
REMARK                            x       y       z     vdW  Elec       q    Type
REMARK                         _______ _______ _______ _____ _____    ______ ____
ROOT
ATOM      1  C   UNL     1      -1.936  -3.471   0.021  0.00  0.00    +0.000 C 
ENDROOT
BRANCH   1   2
ATOM      2  C   UNL     1      -1.628  -4.940   0.047  0.00  0.00    +0.000 A 
ATOM      3  N   UNL     1      -2.033  -5.767   0.989  0.00  0.00    +0.000 NA
ATOM      4  C   UNL     1      -1.593  -7.051   0.714  0.00  0.00    +0.000 A 
ATOM      5  C   UNL     1      -1.825  -8.192   1.509  0.00  0.00    +0.000 A 
ATOM      6  C   UNL     1      -1.323  -9.435   1.108  0.00  0.00    +0.000 A 
ATOM      7  C   UNL     1      -0.597  -9.553  -0.073  0.00  0.00    +0.000 A 
ATOM      8  C   UNL     1      -0.354  -8.437  -0.880  0.00  0.00    +0.000 A 
ATOM      9  C   UNL     1      -0.862  -7.194  -0.467  0.00  0.00    +0.000 A 
ATOM     10  S   UNL     1      -0.735  -5.659  -1.235  0.00  0.00    +0.000 S 
ENDBRANCH   1   2
BRANCH   1  11
ATOM     11  O   UNL     1      -0.701  -2.773   0.177  0.00  0.00    +0.000 OA
BRANCH  11  15
ATOM     12  C   UNL     1       1.911   1.375  -0.106  0.00  0.00    +0.000 C 
ATOM     13  C   UNL     1       0.598   0.641  -0.056  0.00  0.00    +0.000 A 
ATOM     14  C   UNL     1       0.532  -0.765   0.082  0.00  0.00    +0.000 A 
ATOM     15  C   UNL     1      -0.727  -1.405   0.089  0.00  0.00    +0.000 A 
ATOM     16  C   UNL     1      -1.897  -0.643   0.016  0.00  0.00    +0.000 A 
ATOM     17  C   UNL     1      -1.828   0.745  -0.087  0.00  0.00    +0.000 A 
ATOM     18  C   UNL     1      -0.591   1.382  -0.126  0.00  0.00    +0.000 A 
ATOM     19  C   UNL     1       1.793  -1.592   0.151  0.00  0.00    +0.000 C 
ENDBRANCH  11  15
ENDBRANCH   1  11
TORSDOF 3
