REMARK  Name = *****
REMARK  4 active torsions:
REMARK  status: ('A' for Active; 'I' for Inactive)
REMARK    1  A    between atoms: C_1  and  C_2
REMARK    2  A    between atoms: C_2  and  C_14
REMARK    3  A    between atoms: C_10  and  O_12
REMARK    4  A    between atoms: O_12  and  C_13
REMARK                            x       y       z     vdW  Elec       q    Type
REMARK                         _______ _______ _______ _____ _____    ______ ____
ROOT
ATOM      1  C   UNL     1       1.162   0.300   0.239  0.00  0.00    +0.000 C 
ATOM      2  C   UNL     1       2.659   0.058  -0.026  0.00  0.00    +0.000 C 
ATOM      3  C   UNL     1       3.131  -1.144   0.812  0.00  0.00    +0.000 C 
ATOM      4  C   UNL     1       4.640  -1.318   0.712  0.00  0.00    +0.000 C 
ATOM      5  C   UNL     1       5.325  -0.002   0.927  0.00  0.00    +0.000 A 
ATOM      6  C   UNL     1       4.629   1.196   0.766  0.00  0.00    +0.000 A 
ATOM      7  O   UNL     1       3.311   1.276   0.405  0.00  0.00    +0.000 OA
ATOM      8  C   UNL     1       5.273   2.413   0.980  0.00  0.00    +0.000 A 
ATOM      9  C   UNL     1       6.623   2.438   1.329  0.00  0.00    +0.000 A 
ATOM     10  C   UNL     1       7.342   1.249   1.466  0.00  0.00    +0.000 A 
ATOM     11  C   UNL     1       6.689   0.031   1.264  0.00  0.00    +0.000 A 
ENDROOT
BRANCH   2  12
ATOM     12  C   UNL     1       2.887  -0.099  -1.532  0.00  0.00    +0.000 A 
ATOM     13  C   UNL     1       3.478   0.789  -2.417  0.00  0.00    +0.000 A 
ATOM     14  C   UNL     1       3.511   0.305  -3.756  0.00  0.00    +0.000 A 
ATOM     15  C   UNL     1       2.932  -0.937  -3.866  0.00  0.00    +0.000 A 
ATOM     16  S   UNL     1       2.350  -1.509  -2.368  0.00  0.00    +0.000 S 
ENDBRANCH   2  12
BRANCH  10  17
ATOM     17  O   UNL     1       8.658   1.413   1.799  0.00  0.00    +0.000 OA
ATOM     18  C   UNL     1       9.448   0.235   1.896  0.00  0.00    +0.000 C 
ENDBRANCH  10  17
TORSDOF 2
