REMARK  Name = *****
REMARK  1 active torsions:
REMARK  status: ('A' for Active; 'I' for Inactive)
REMARK    1  A    between atoms: C_2  and  C_13
REMARK                            x       y       z     vdW  Elec       q    Type
REMARK                         _______ _______ _______ _____ _____    ______ ____
ROOT
ATOM      1  C   UNL     1      -2.484   0.801  -0.403  0.00  0.00    +0.000 C 
ATOM      2  C   UNL     1      -2.398  -0.557   0.277  0.00  0.00    +0.000 C 
ATOM      3  O   UNL     1      -1.278  -1.304  -0.225  0.00  0.00    +0.000 OA
ATOM      4  C   UNL     1      -0.078  -0.655  -0.076  0.00  0.00    +0.000 A 
ATOM      5  C   UNL     1       0.016   0.736   0.008  0.00  0.00    +0.000 A 
ATOM      6  C   UNL     1      -1.214   1.546  -0.110  0.00  0.00    +0.000 C 
ATOM      7  O   UNL     1      -1.171   2.769  -0.028  0.00  0.00    +0.000 OA
ATOM      8  C   UNL     1       1.258   1.363   0.161  0.00  0.00    +0.000 A 
ATOM      9  C   UNL     1       2.419   0.594   0.216  0.00  0.00    +0.000 A 
ATOM     10  C   UNL     1       2.338  -0.795   0.109  0.00  0.00    +0.000 A 
ATOM     11  C   UNL     1       1.095  -1.417  -0.041  0.00  0.00    +0.000 A 
ATOM     12 CL   UNL     1       1.051  -3.139  -0.167  0.00  0.00    +0.000 Cl
ENDROOT
BRANCH   2  13
ATOM     13  C   UNL     1      -3.674  -1.346   0.045  0.00  0.00    +0.000 A 
ATOM     14  C   UNL     1      -3.834  -2.174  -1.076  0.00  0.00    +0.000 A 
ATOM     15  C   UNL     1      -5.027  -2.869  -1.284  0.00  0.00    +0.000 A 
ATOM     16  C   UNL     1      -6.077  -2.740  -0.378  0.00  0.00    +0.000 A 
ATOM     17  C   UNL     1      -5.937  -1.917   0.737  0.00  0.00    +0.000 A 
ATOM     18  C   UNL     1      -4.744  -1.222   0.947  0.00  0.00    +0.000 A 
ENDBRANCH   2  13
TORSDOF 1
