REMARK  Name = *****
REMARK  5 active torsions:
REMARK  status: ('A' for Active; 'I' for Inactive)
REMARK    1  A    between atoms: C_1  and  C_2
REMARK    2  A    between atoms: C_10  and  C_12
REMARK    3  A    between atoms: C_12  and  O_13
REMARK    4  A    between atoms: O_13  and  C_14
REMARK    5  A    between atoms: C_16  and  C_21
REMARK                            x       y       z     vdW  Elec       q    Type
REMARK                         _______ _______ _______ _____ _____    ______ ____
ROOT
ATOM      1  C   UNL     1       1.786   1.320   1.252  0.00  0.00    +0.000 C 
ATOM      2  C   UNL     1       2.871   0.546   0.558  0.00  0.00    +0.000 A 
ATOM      3  C   UNL     1       2.798   0.277  -0.756  0.00  0.00    +0.000 A 
ATOM      4  C   UNL     1       3.885  -0.489  -1.409  0.00  0.00    +0.000 A 
ATOM      5  O   UNL     1       3.811  -0.745  -2.606  0.00  0.00    +0.000 OA
ATOM      6  N   UNL     1       4.899  -0.845  -0.547  0.00  0.00    +0.000 N 
ATOM      7  C   UNL     1       4.856  -0.509   0.780  0.00  0.00    +0.000 A 
ATOM      8  N   UNL     1       3.915   0.150   1.366  0.00  0.00    +0.000 NA
ATOM      9  S   UNL     1       6.266  -1.112   1.589  0.00  0.00    +0.000 S 
ATOM     10  C   UNL     1       6.784  -1.752   0.044  0.00  0.00    +0.000 A 
ATOM     11  N   UNL     1       5.999  -1.558  -0.970  0.00  0.00    +0.000 NA
ENDROOT
BRANCH  10  12
ATOM     12  C   UNL     1       8.094  -2.487  -0.040  0.00  0.00    +0.000 C 
BRANCH  12  13
ATOM     13  O   UNL     1       9.134  -1.520   0.057  0.00  0.00    +0.000 OA
BRANCH  13  14
ATOM     14  C   UNL     1      10.420  -1.980   0.011  0.00  0.00    +0.000 A 
ATOM     15  C   UNL     1      10.814  -3.312  -0.144  0.00  0.00    +0.000 A 
ATOM     16  C   UNL     1      12.178  -3.662  -0.177  0.00  0.00    +0.000 A 
ATOM     17  C   UNL     1      13.140  -2.649  -0.052  0.00  0.00    +0.000 A 
ATOM     18  C   UNL     1      12.749  -1.318   0.102  0.00  0.00    +0.000 A 
ATOM     19  C   UNL     1      11.394  -0.989   0.132  0.00  0.00    +0.000 A 
ATOM     20 CL   UNL     1      14.832  -2.997  -0.083  0.00  0.00    +0.000 Cl
ATOM     21  C   UNL     1      12.567  -5.105  -0.346  0.00  0.00    +0.000 C 
ENDBRANCH  13  14
ENDBRANCH  12  13
ENDBRANCH  10  12
TORSDOF 3
