REMARK  Name = *****
REMARK  6 active torsions:
REMARK  status: ('A' for Active; 'I' for Inactive)
REMARK    1  A    between atoms: C_1  and  C_2
REMARK    2  A    between atoms: C_5  and  C_8
REMARK    3  A    between atoms: C_8  and  O_20
REMARK    4  A    between atoms: C_10  and  O_18
REMARK    5  A    between atoms: O_18  and  C_19
REMARK    6  A    between atoms: O_20  and  C_21
REMARK                            x       y       z     vdW  Elec       q    Type
REMARK                         _______ _______ _______ _____ _____    ______ ____
ROOT
ATOM      1  C   UNL     1      -3.086   0.149   1.081  0.00  0.00    +0.000 C 
ATOM      2  C   UNL     1      -1.778  -0.116   1.842  0.00  0.00    +0.000 C 
ATOM      3  C   UNL     1      -1.118  -1.384   1.324  0.00  0.00    +0.000 C 
ATOM      4  C   UNL     1      -2.125  -2.503   1.374  0.00  0.00    +0.000 A 
ATOM      5  C   UNL     1      -1.721  -3.845   1.468  0.00  0.00    +0.000 A 
ATOM      6  C   UNL     1      -2.664  -4.874   1.491  0.00  0.00    +0.000 A 
ATOM      7  C   UNL     1      -4.021  -4.575   1.408  0.00  0.00    +0.000 A 
ATOM      8  C   UNL     1      -4.432  -3.247   1.298  0.00  0.00    +0.000 A 
ATOM      9  C   UNL     1      -3.489  -2.217   1.274  0.00  0.00    +0.000 A 
ATOM     10  O   UNL     1      -4.002  -0.957   1.139  0.00  0.00    +0.000 OA
ENDROOT
BRANCH   1  15
ATOM     11  C   UNL     1      -1.913   1.739  -4.457  0.00  0.00    +0.000 C 
ATOM     12  C   UNL     1      -2.193   1.317  -3.045  0.00  0.00    +0.000 A 
ATOM     13  C   UNL     1      -2.902   0.141  -2.785  0.00  0.00    +0.000 A 
ATOM     14  C   UNL     1      -3.201  -0.237  -1.471  0.00  0.00    +0.000 A 
ATOM     15  C   UNL     1      -2.801   0.552  -0.380  0.00  0.00    +0.000 A 
ATOM     16  C   UNL     1      -2.109   1.746  -0.660  0.00  0.00    +0.000 A 
ATOM     17  C   UNL     1      -1.813   2.126  -1.973  0.00  0.00    +0.000 A 
ENDBRANCH   1  15
BRANCH   3  18
ATOM     18  O   UNL     1       0.005  -1.702   2.157  0.00  0.00    +0.000 OA
ATOM     19  C   UNL     1       1.211  -1.099   1.705  0.00  0.00    +0.000 C 
ENDBRANCH   3  18
BRANCH   1  20
ATOM     20  O   UNL     1      -3.701   1.329   1.654  0.00  0.00    +0.000 OA
ATOM     21  C   UNL     1      -4.476   1.087   2.819  0.00  0.00    +0.000 C 
ENDBRANCH   1  20
TORSDOF 3
