REMARK  Name = *****
REMARK  1 active torsions:
REMARK  status: ('A' for Active; 'I' for Inactive)
REMARK    1  A    between atoms: C_2  and  C_13
REMARK                            x       y       z     vdW  Elec       q    Type
REMARK                         _______ _______ _______ _____ _____    ______ ____
ROOT
ATOM      1  C   UNL     1      -2.476   0.797  -0.482  0.00  0.00    +0.000 C 
ATOM      2  C   UNL     1      -2.405  -0.544   0.235  0.00  0.00    +0.000 C 
ATOM      3  O   UNL     1      -1.270  -1.308  -0.209  0.00  0.00    +0.000 OA
ATOM      4  C   UNL     1      -0.085  -0.637  -0.069  0.00  0.00    +0.000 A 
ATOM      5  C   UNL     1       0.012   0.755  -0.023  0.00  0.00    +0.000 A 
ATOM      6  C   UNL     1      -1.216   1.557  -0.179  0.00  0.00    +0.000 C 
ATOM      7  O   UNL     1      -1.179   2.781  -0.124  0.00  0.00    +0.000 OA
ATOM      8  C   UNL     1       1.254   1.378   0.128  0.00  0.00    +0.000 A 
ATOM      9  C   UNL     1       2.401   0.592   0.216  0.00  0.00    +0.000 A 
ATOM     10  C   UNL     1       2.315  -0.800   0.148  0.00  0.00    +0.000 A 
ATOM     11  C   UNL     1       1.069  -1.416   0.000  0.00  0.00    +0.000 A 
ATOM     12 CL   UNL     1       3.938   1.341   0.397  0.00  0.00    +0.000 Cl
ENDROOT
BRANCH   2  13
ATOM     13  C   UNL     1      -3.668  -1.348  -0.014  0.00  0.00    +0.000 A 
ATOM     14  C   UNL     1      -3.834  -2.106  -1.184  0.00  0.00    +0.000 A 
ATOM     15  C   UNL     1      -5.013  -2.817  -1.410  0.00  0.00    +0.000 A 
ATOM     16  C   UNL     1      -6.044  -2.774  -0.475  0.00  0.00    +0.000 A 
ATOM     17  C   UNL     1      -5.898  -2.020   0.688  0.00  0.00    +0.000 A 
ATOM     18  C   UNL     1      -4.718  -1.309   0.916  0.00  0.00    +0.000 A 
ENDBRANCH   2  13
TORSDOF 1
