REMARK  Name = *****
REMARK  3 active torsions:
REMARK  status: ('A' for Active; 'I' for Inactive)
REMARK    1  A    between atoms: C_1  and  O_2
REMARK    2  A    between atoms: O_2  and  C_3
REMARK    3  A    between atoms: C_3  and  C_14
REMARK                            x       y       z     vdW  Elec       q    Type
REMARK                         _______ _______ _______ _____ _____    ______ ____
ROOT
ATOM      1  C   UNL     1       3.059  -1.421   0.504  0.00  0.00    +0.000 C 
ATOM      2  C   UNL     1       2.937  -1.132   1.987  0.00  0.00    +0.000 C 
ATOM      3  C   UNL     1       2.317  -1.976   2.829  0.00  0.00    +0.000 C 
ATOM      4  C   UNL     1       1.595  -3.204   2.318  0.00  0.00    +0.000 C 
ATOM      5  C   UNL     1       0.207  -3.291   2.985  0.00  0.00    +0.000 C 
ATOM      6  C   UNL     1      -0.562  -4.546   2.565  0.00  0.00    +0.000 C 
ATOM      7  C   UNL     1       0.247  -5.813   2.818  0.00  0.00    +0.000 C 
ATOM      8  C   UNL     1       1.621  -5.745   2.158  0.00  0.00    +0.000 C 
ATOM      9  C   UNL     1       2.389  -4.494   2.587  0.00  0.00    +0.000 C 
ATOM     10  O   UNL     1       1.349  -3.035   0.905  0.00  0.00    +0.000 OA
ATOM     11  O   UNL     1       2.633  -2.778   0.224  0.00  0.00    +0.000 OA
ENDROOT
BRANCH   1  12
ATOM     12  C   UNL     1       4.551  -1.356   0.109  0.00  0.00    +0.000 A 
ATOM     13  C   UNL     1       5.427  -2.415   0.424  0.00  0.00    +0.000 A 
ATOM     14  C   UNL     1       6.785  -2.355   0.096  0.00  0.00    +0.000 A 
ATOM     15  C   UNL     1       7.292  -1.230  -0.547  0.00  0.00    +0.000 A 
ATOM     16  C   UNL     1       6.455  -0.165  -0.861  0.00  0.00    +0.000 A 
ATOM     17  C   UNL     1       5.097  -0.226  -0.532  0.00  0.00    +0.000 A 
ATOM     18 CL   UNL     1       8.963  -1.155  -0.949  0.00  0.00    +0.000 Cl
ENDBRANCH   1  12
BRANCH   1  20
ATOM     19  C   UNL     1       0.968  -0.523  -0.312  0.00  0.00    +0.000 C 
ATOM     20  O   UNL     1       2.377  -0.409  -0.247  0.00  0.00    +0.000 OA
ENDBRANCH   1  20
TORSDOF 2
