REMARK  Name = *****
REMARK  7 active torsions:
REMARK  status: ('A' for Active; 'I' for Inactive)
REMARK    1  A    between atoms: C_1  and  C_2
REMARK    2  A    between atoms: C_3  and  C_12
REMARK    3  A    between atoms: C_3  and  O_22
REMARK    4  A    between atoms: C_15  and  C_18
REMARK    5  A    between atoms: C_18  and  C_19
REMARK    6  A    between atoms: C_19  and  C_20
REMARK    7  A    between atoms: C_19  and  C_21
REMARK                            x       y       z     vdW  Elec       q    Type
REMARK                         _______ _______ _______ _____ _____    ______ ____
ROOT
ATOM      1  C   UNL     1       1.431   0.923   0.056  0.00  0.00    +0.000 C 
ATOM      2  C   UNL     1       2.822   0.296   0.068  0.00  0.00    +0.000 C 
ATOM      3  C   UNL     1       3.006  -0.886   1.063  0.00  0.00    +0.000 C 
ATOM      4  O   UNL     1       4.343  -1.415   0.986  0.00  0.00    +0.000 OA
ATOM      5  C   UNL     1       5.309  -0.495   0.676  0.00  0.00    +0.000 A 
ATOM      6  C   UNL     1       6.629  -0.944   0.721  0.00  0.00    +0.000 A 
ATOM      7  C   UNL     1       7.677  -0.054   0.478  0.00  0.00    +0.000 A 
ATOM      8  C   UNL     1       7.406   1.285   0.195  0.00  0.00    +0.000 A 
ATOM      9  C   UNL     1       6.086   1.734   0.144  0.00  0.00    +0.000 A 
ATOM     10  C   UNL     1       5.040   0.840   0.368  0.00  0.00    +0.000 A 
ATOM     11  O   UNL     1       3.772   1.348   0.295  0.00  0.00    +0.000 OA
ENDROOT
BRANCH   3  12
ATOM     12  C   UNL     1       2.603  -0.590   2.513  0.00  0.00    +0.000 A 
ATOM     13  C   UNL     1       1.261  -0.702   2.921  0.00  0.00    +0.000 A 
ATOM     14  C   UNL     1       0.865  -0.403   4.229  0.00  0.00    +0.000 A 
ATOM     15  C   UNL     1       1.804  -0.005   5.184  0.00  0.00    +0.000 A 
ATOM     16  C   UNL     1       3.142   0.107   4.794  0.00  0.00    +0.000 A 
ATOM     17  C   UNL     1       3.534  -0.181   3.481  0.00  0.00    +0.000 A 
BRANCH  15  18
ATOM     18  C   UNL     1       1.393   0.347   6.595  0.00  0.00    +0.000 C 
BRANCH  18  19
ATOM     19  C   UNL     1       0.592  -0.740   7.339  0.00  0.00    +0.000 C 
ATOM     20  C   UNL     1       1.405  -2.022   7.532  0.00  0.00    +0.000 C 
ATOM     21  C   UNL     1       0.138  -0.205   8.701  0.00  0.00    +0.000 C 
ENDBRANCH  18  19
ENDBRANCH  15  18
ENDBRANCH   3  12
BRANCH   3  22
ATOM     22  O   UNL     1       2.174  -1.966   0.609  0.00  0.00    +0.000 OA
ATOM     23  H   UNL     1       2.399  -2.183  -0.309  0.00  0.00    +0.000 HD
ENDBRANCH   3  22
TORSDOF 4
