REMARK  Name = *****
REMARK  5 active torsions:
REMARK  status: ('A' for Active; 'I' for Inactive)
REMARK    1  A    between atoms: C_3  and  C_8
REMARK    2  A    between atoms: C_8  and  C_9
REMARK    3  A    between atoms: C_9  and  C_10
REMARK    4  A    between atoms: C_10  and  C_11
REMARK    5  A    between atoms: C_10  and  O_16
REMARK                            x       y       z     vdW  Elec       q    Type
REMARK                         _______ _______ _______ _____ _____    ______ ____
ROOT
ATOM      1  C   UNL     1       1.572   3.682   0.023  0.00  0.00    +0.000 C 
ENDROOT
BRANCH   1   2
ATOM      2  C   UNL     1       2.435   2.443   0.284  0.00  0.00    +0.000 C 
BRANCH   2   5
ATOM      3  C   UNL     1       0.275  -0.339   1.744  0.00  0.00    +0.000 A 
ATOM      4  C   UNL     1       1.069   0.805   1.638  0.00  0.00    +0.000 A 
ATOM      5  C   UNL     1       1.594   1.196   0.398  0.00  0.00    +0.000 A 
ATOM      6  C   UNL     1       1.302   0.427  -0.738  0.00  0.00    +0.000 A 
ATOM      7  C   UNL     1       0.509  -0.715  -0.626  0.00  0.00    +0.000 A 
ATOM      8  C   UNL     1      -0.005  -1.102   0.610  0.00  0.00    +0.000 A 
ATOM      9 CL   UNL     1       0.160  -1.653  -2.026  0.00  0.00    +0.000 Cl
ENDBRANCH   2   5
ENDBRANCH   1   2
BRANCH   1  10
ATOM     10  C   UNL     1       2.431   4.944  -0.092  0.00  0.00    +0.000 C 
BRANCH  10  11
ATOM     11  C   UNL     1       1.640   6.166  -0.477  0.00  0.00    +0.000 A 
ATOM     12  C   UNL     1       1.761   6.920  -1.630  0.00  0.00    +0.000 A 
ATOM     13  C   UNL     1       0.850   8.016  -1.666  0.00  0.00    +0.000 A 
ATOM     14  C   UNL     1       0.063   8.068  -0.539  0.00  0.00    +0.000 A 
ATOM     15  S   UNL     1       0.424   6.806   0.555  0.00  0.00    +0.000 S 
ENDBRANCH  10  11
BRANCH  10  16
ATOM     16  O   UNL     1       3.078   5.218   1.148  0.00  0.00    +0.000 OA
ATOM     17  H   UNL     1       2.411   5.397   1.829  0.00  0.00    +0.000 HD
ENDBRANCH  10  16
ENDBRANCH   1  10
TORSDOF 5
