REMARK  Name = *****
REMARK  9 active torsions:
REMARK  status: ('A' for Active; 'I' for Inactive)
REMARK    1  A    between atoms: C_1  and  O_2
REMARK    2  A    between atoms: O_2  and  C_3
REMARK    3  A    between atoms: C_4  and  O_23
REMARK    4  A    between atoms: C_5  and  O_21
REMARK    5  A    between atoms: C_9  and  C_13
REMARK    6  A    between atoms: C_9  and  O_19
REMARK    7  A    between atoms: O_19  and  C_20
REMARK    8  A    between atoms: O_21  and  C_22
REMARK    9  A    between atoms: O_23  and  C_24
REMARK                            x       y       z     vdW  Elec       q    Type
REMARK                         _______ _______ _______ _____ _____    ______ ____
ROOT
ATOM      1  C   UNL     1       2.775  -0.970  -1.102  0.00  0.00    +0.000 A 
ATOM      2  C   UNL     1       4.069  -1.466  -0.877  0.00  0.00    +0.000 A 
ATOM      3  C   UNL     1       4.879  -1.868  -1.952  0.00  0.00    +0.000 A 
ATOM      4  C   UNL     1       4.437  -1.697  -3.272  0.00  0.00    +0.000 A 
ATOM      5  C   UNL     1       5.308  -2.076  -4.435  0.00  0.00    +0.000 C 
ATOM      6  C   UNL     1       4.792  -1.446  -5.720  0.00  0.00    +0.000 C 
ATOM      7  C   UNL     1       3.274  -1.663  -5.837  0.00  0.00    +0.000 C 
ATOM      8  O   UNL     1       2.594  -1.039  -4.731  0.00  0.00    +0.000 OA
ATOM      9  C   UNL     1       3.145  -1.212  -3.489  0.00  0.00    +0.000 A 
ATOM     10  C   UNL     1       2.324  -0.844  -2.417  0.00  0.00    +0.000 A 
ENDROOT
BRANCH   7  11
ATOM     11  C   UNL     1       2.820  -1.006  -7.153  0.00  0.00    +0.000 A 
ATOM     12  C   UNL     1       3.021  -1.659  -8.384  0.00  0.00    +0.000 A 
ATOM     13  C   UNL     1       2.634  -1.064  -9.586  0.00  0.00    +0.000 A 
ATOM     14  C   UNL     1       2.046   0.198  -9.581  0.00  0.00    +0.000 A 
ATOM     15  C   UNL     1       1.847   0.866  -8.375  0.00  0.00    +0.000 A 
ATOM     16  C   UNL     1       2.234   0.272  -7.171  0.00  0.00    +0.000 A 
ENDBRANCH   7  11
BRANCH   1  18
ATOM     17  C   UNL     1       0.712  -0.201  -0.184  0.00  0.00    +0.000 C 
ATOM     18  O   UNL     1       2.052  -0.632   0.012  0.00  0.00    +0.000 OA
ENDBRANCH   1  18
BRANCH   7  19
ATOM     19  O   UNL     1       3.036  -3.085  -5.890  0.00  0.00    +0.000 OA
ATOM     20  C   UNL     1       1.667  -3.447  -5.758  0.00  0.00    +0.000 C 
ENDBRANCH   7  19
BRANCH   3  21
ATOM     21  O   UNL     1       6.148  -2.366  -1.775  0.00  0.00    +0.000 OA
ATOM     22  C   UNL     1       6.152  -3.570  -1.006  0.00  0.00    +0.000 C 
ENDBRANCH   3  21
BRANCH   2  23
ATOM     23  O   UNL     1       4.527  -1.598   0.413  0.00  0.00    +0.000 OA
ATOM     24  C   UNL     1       5.181  -0.394   0.815  0.00  0.00    +0.000 C 
ENDBRANCH   2  23
TORSDOF 5
