REMARK  Name = *****
REMARK  4 active torsions:
REMARK  status: ('A' for Active; 'I' for Inactive)
REMARK    1  A    between atoms: C_1  and  C_2
REMARK    2  A    between atoms: C_2  and  C_21
REMARK    3  A    between atoms: C_12  and  C_13
REMARK    4  A    between atoms: C_12  and  O_20
REMARK                            x       y       z     vdW  Elec       q    Type
REMARK                         _______ _______ _______ _____ _____    ______ ____
ROOT
ATOM      1  C   UNL     1       0.900   0.173  -0.091  0.00  0.00    +0.000 C 
ATOM      2  C   UNL     1       2.436   0.079  -0.170  0.00  0.00    +0.000 C 
ATOM      3  C   UNL     1       3.088   1.433   0.058  0.00  0.00    +0.000 C 
ATOM      4  O   UNL     1       2.509   2.499  -0.132  0.00  0.00    +0.000 OA
ATOM      5  C   UNL     1       4.505   1.424   0.476  0.00  0.00    +0.000 A 
ATOM      6  C   UNL     1       5.231   2.617   0.548  0.00  0.00    +0.000 A 
ATOM      7  C   UNL     1       6.579   2.584   0.906  0.00  0.00    +0.000 A 
ATOM      8  C   UNL     1       7.197   1.364   1.185  0.00  0.00    +0.000 A 
ATOM      9  C   UNL     1       6.466   0.176   1.116  0.00  0.00    +0.000 A 
ATOM     10  C   UNL     1       5.114   0.208   0.776  0.00  0.00    +0.000 A 
ATOM     11  O   UNL     1       4.468  -0.998   0.736  0.00  0.00    +0.000 OA
ATOM     12  C   UNL     1       3.033  -0.917   0.868  0.00  0.00    +0.000 C 
ATOM     13  C   UNL     1       2.782  -0.326  -1.626  0.00  0.00    +0.000 C 
ENDROOT
BRANCH  12  14
ATOM     14  C   UNL     1       2.720  -0.776   2.368  0.00  0.00    +0.000 A 
ATOM     15  C   UNL     1       2.242   0.400   2.973  0.00  0.00    +0.000 A 
ATOM     16  C   UNL     1       2.019   0.471   4.354  0.00  0.00    +0.000 A 
ATOM     17  C   UNL     1       2.280  -0.632   5.162  0.00  0.00    +0.000 A 
ATOM     18  C   UNL     1       2.767  -1.805   4.600  0.00  0.00    +0.000 A 
ATOM     19  C   UNL     1       2.988  -1.870   3.221  0.00  0.00    +0.000 A 
ATOM     20  I   UNL     1       1.950  -0.520   7.209  0.00  0.00    +0.000 I 
ENDBRANCH  12  14
BRANCH  12  21
ATOM     21  O   UNL     1       2.551  -2.224   0.510  0.00  0.00    +0.000 OA
ATOM     22  H   UNL     1       2.716  -2.384  -0.432  0.00  0.00    +0.000 HD
ENDBRANCH  12  21
TORSDOF 2
