REMARK  Name = *****
REMARK  5 active torsions:
REMARK  status: ('A' for Active; 'I' for Inactive)
REMARK    1  A    between atoms: C_1  and  O_2
REMARK    2  A    between atoms: O_2  and  N_3
REMARK    3  A    between atoms: C_10  and  O_12
REMARK    4  A    between atoms: O_12  and  C_13
REMARK    5  A    between atoms: C_13  and  C_14
REMARK                            x       y       z     vdW  Elec       q    Type
REMARK                         _______ _______ _______ _____ _____    ______ ____
ROOT
ATOM      1  N   UNL     1       3.379  -1.203   0.109  0.00  0.00    +0.000 N 
ATOM      2  C   UNL     1       4.440  -1.437   0.935  0.00  0.00    +0.000 A 
ATOM      3  C   UNL     1       4.792  -2.760   0.790  0.00  0.00    +0.000 A 
ATOM      4  C   UNL     1       3.880  -3.352  -0.133  0.00  0.00    +0.000 A 
ATOM      5  C   UNL     1       2.992  -2.352  -0.536  0.00  0.00    +0.000 A 
ATOM      6  C   UNL     1       1.946  -2.597  -1.435  0.00  0.00    +0.000 A 
ATOM      7  C   UNL     1       1.814  -3.897  -1.932  0.00  0.00    +0.000 A 
ATOM      8  C   UNL     1       2.682  -4.921  -1.549  0.00  0.00    +0.000 A 
ATOM      9  C   UNL     1       3.725  -4.656  -0.653  0.00  0.00    +0.000 A 
ENDROOT
BRANCH   1  11
ATOM     10  C   UNL     1       3.346   0.790  -1.021  0.00  0.00    +0.000 C 
ATOM     11  O   UNL     1       2.724   0.029   0.010  0.00  0.00    +0.000 OA
ENDBRANCH   1  11
BRANCH   8  12
ATOM     12  O   UNL     1       2.408  -6.135  -2.120  0.00  0.00    +0.000 OA
BRANCH  12  13
ATOM     13  C   UNL     1       3.176  -7.250  -1.675  0.00  0.00    +0.000 C 
BRANCH  13  14
ATOM     14  C   UNL     1       2.628  -8.492  -2.334  0.00  0.00    +0.000 A 
ATOM     15  C   UNL     1       3.032  -8.847  -3.629  0.00  0.00    +0.000 A 
ATOM     16  C   UNL     1       2.514  -9.988  -4.244  0.00  0.00    +0.000 A 
ATOM     17  C   UNL     1       1.584 -10.781  -3.574  0.00  0.00    +0.000 A 
ATOM     18  C   UNL     1       1.164 -10.430  -2.292  0.00  0.00    +0.000 A 
ATOM     19  C   UNL     1       1.680  -9.288  -1.676  0.00  0.00    +0.000 A 
ENDBRANCH  13  14
ENDBRANCH  12  13
ENDBRANCH   8  12
TORSDOF 4
