REMARK  Name = *****
REMARK  4 active torsions:
REMARK  status: ('A' for Active; 'I' for Inactive)
REMARK    1  A    between atoms: C_1  and  C_2
REMARK    2  A    between atoms: C_2  and  C_13
REMARK    3  A    between atoms: C_9  and  O_11
REMARK    4  A    between atoms: O_11  and  C_12
REMARK                            x       y       z     vdW  Elec       q    Type
REMARK                         _______ _______ _______ _____ _____    ______ ____
ROOT
ATOM      1  C   UNL     1       1.304   0.047   0.327  0.00  0.00    +0.000 C 
ATOM      2  C   UNL     1       2.786  -0.235   0.011  0.00  0.00    +0.000 C 
ATOM      3  C   UNL     1       3.213  -1.647   0.500  0.00  0.00    +0.000 C 
ATOM      4  C   UNL     1       3.906  -1.298   1.760  0.00  0.00    +0.000 A 
ATOM      5  C   UNL     1       4.086   0.069   1.828  0.00  0.00    +0.000 A 
ATOM      6  O   UNL     1       3.555   0.753   0.770  0.00  0.00    +0.000 OA
ATOM      7  C   UNL     1       4.757   0.662   2.876  0.00  0.00    +0.000 A 
ATOM      8  C   UNL     1       5.260  -0.161   3.890  0.00  0.00    +0.000 A 
ATOM      9  C   UNL     1       5.087  -1.555   3.831  0.00  0.00    +0.000 A 
ATOM     10  C   UNL     1       4.403  -2.128   2.752  0.00  0.00    +0.000 A 
ENDROOT
BRANCH   2  11
ATOM     11  C   UNL     1       3.034  -0.075  -1.491  0.00  0.00    +0.000 A 
ATOM     12  C   UNL     1       3.878   0.930  -1.994  0.00  0.00    +0.000 A 
ATOM     13  C   UNL     1       4.103   1.059  -3.367  0.00  0.00    +0.000 A 
ATOM     14  C   UNL     1       3.489   0.188  -4.262  0.00  0.00    +0.000 A 
ATOM     15  C   UNL     1       2.647  -0.814  -3.786  0.00  0.00    +0.000 A 
ATOM     16  C   UNL     1       2.422  -0.945  -2.413  0.00  0.00    +0.000 A 
ENDBRANCH   2  11
BRANCH   9  17
ATOM     17  O   UNL     1       5.541  -2.457   4.756  0.00  0.00    +0.000 OA
ATOM     18  C   UNL     1       6.315  -1.940   5.831  0.00  0.00    +0.000 C 
ENDBRANCH   9  17
TORSDOF 2
