REMARK  Name = *****
REMARK  1 active torsions:
REMARK  status: ('A' for Active; 'I' for Inactive)
REMARK    1  A    between atoms: C_4  and  C_7
REMARK                            x       y       z     vdW  Elec       q    Type
REMARK                         _______ _______ _______ _____ _____    ______ ____
ROOT
ATOM      1  C   UNL     1       2.994  -0.799  -0.510  0.00  0.00    +0.000 C 
ATOM      2  C   UNL     1       2.819  -0.828  -2.025  0.00  0.00    +0.000 C 
ATOM      3  C   UNL     1       1.833  -1.914  -2.361  0.00  0.00    +0.000 C 
ATOM      4  O   UNL     1       1.084  -1.850  -3.329  0.00  0.00    +0.000 OA
ATOM      5  C   UNL     1       1.872  -3.113  -1.501  0.00  0.00    +0.000 A 
ATOM      6  C   UNL     1       1.097  -4.236  -1.804  0.00  0.00    +0.000 A 
ATOM      7  C   UNL     1       1.196  -5.377  -1.008  0.00  0.00    +0.000 A 
ATOM      8  C   UNL     1       2.072  -5.396   0.080  0.00  0.00    +0.000 A 
ATOM      9  C   UNL     1       2.843  -4.270   0.381  0.00  0.00    +0.000 A 
ATOM     10  C   UNL     1       2.731  -3.122  -0.400  0.00  0.00    +0.000 A 
ATOM     11  O   UNL     1       3.513  -2.055  -0.043  0.00  0.00    +0.000 OA
ENDROOT
BRANCH   1  15
ATOM     12  C   UNL     1       6.258   1.410   1.474  0.00  0.00    +0.000 C 
ATOM     13  C   UNL     1       6.288   1.300  -0.045  0.00  0.00    +0.000 C 
ATOM     14  C   UNL     1       5.379   0.180  -0.551  0.00  0.00    +0.000 C 
ATOM     15  C   UNL     1       3.933   0.342  -0.045  0.00  0.00    +0.000 C 
ATOM     16  C   UNL     1       3.927   0.446   1.493  0.00  0.00    +0.000 C 
ATOM     17  C   UNL     1       4.833   1.570   1.992  0.00  0.00    +0.000 C 
ENDBRANCH   1  15
TORSDOF 1
