REMARK  Name = *****
REMARK  5 active torsions:
REMARK  status: ('A' for Active; 'I' for Inactive)
REMARK    1  A    between atoms: C_1  and  C_2
REMARK    2  A    between atoms: C_4  and  O_9
REMARK    3  A    between atoms: C_5  and  C_8
REMARK    4  A    between atoms: O_9  and  C_10
REMARK    5  A    between atoms: C_10  and  C_12
REMARK                            x       y       z     vdW  Elec       q    Type
REMARK                         _______ _______ _______ _____ _____    ______ ____
ROOT
ATOM      1  C   UNL     1      -0.615   3.646  -0.316  0.00  0.00    +0.000 C 
ATOM      2  O   UNL     1       0.497   3.668  -0.827  0.00  0.00    +0.000 OA
ENDROOT
BRANCH   1   3
ATOM      3  C   UNL     1      -1.476   4.858  -0.181  0.00  0.00    +0.000 A 
ATOM      4  N   UNL     1      -2.718   4.705   0.351  0.00  0.00    +0.000 NA
ATOM      5  C   UNL     1      -3.495   5.794   0.467  0.00  0.00    +0.000 A 
ATOM      6  C   UNL     1      -4.768   5.667   1.004  0.00  0.00    +0.000 A 
ATOM      7  C   UNL     1      -5.620   6.767   1.146  0.00  0.00    +0.000 A 
ATOM      8  C   UNL     1      -5.195   8.028   0.743  0.00  0.00    +0.000 A 
ATOM      9  C   UNL     1      -3.921   8.185   0.200  0.00  0.00    +0.000 A 
ATOM     10  C   UNL     1      -3.068   7.077   0.059  0.00  0.00    +0.000 A 
ATOM     11  C   UNL     1      -1.784   7.203  -0.485  0.00  0.00    +0.000 A 
ATOM     12  C   UNL     1      -0.974   6.080  -0.609  0.00  0.00    +0.000 A 
ENDBRANCH   1   3
BRANCH   1  13
ATOM     13  O   UNL     1      -1.277   2.553   0.215  0.00  0.00    +0.000 OA
BRANCH  13  17
ATOM     14  C   UNL     1       2.418  -0.377   1.667  0.00  0.00    +0.000 C 
ATOM     15  C   UNL     1       1.209  -0.116   0.819  0.00  0.00    +0.000 A 
ATOM     16  C   UNL     1       0.546   1.113   0.892  0.00  0.00    +0.000 A 
ATOM     17  C   UNL     1      -0.588   1.338   0.106  0.00  0.00    +0.000 A 
ATOM     18  C   UNL     1      -1.116   0.341  -0.723  0.00  0.00    +0.000 A 
ATOM     19  C   UNL     1      -0.457  -0.892  -0.776  0.00  0.00    +0.000 A 
ATOM     20  C   UNL     1       0.693  -1.119  -0.011  0.00  0.00    +0.000 A 
ATOM     21  C   UNL     1      -2.358   0.581  -1.529  0.00  0.00    +0.000 C 
ENDBRANCH  13  17
ENDBRANCH   1  13
TORSDOF 3
