REMARK  Name = *****
REMARK  4 active torsions:
REMARK  status: ('A' for Active; 'I' for Inactive)
REMARK    1  A    between atoms: C_1  and  C_2
REMARK    2  A    between atoms: C_9  and  S_11
REMARK    3  A    between atoms: S_11  and  N_12
REMARK    4  A    between atoms: N_12  and  C_13
REMARK                            x       y       z     vdW  Elec       q    Type
REMARK                         _______ _______ _______ _____ _____    ______ ____
ROOT
ATOM      1  C   UNL     1       1.744  -2.247  -1.689  0.00  0.00    +0.000 C 
ATOM      2  C   UNL     1       1.220  -0.876  -1.367  0.00  0.00    +0.000 A 
ATOM      3  C   UNL     1      -0.136  -0.629  -1.036  0.00  0.00    +0.000 A 
ATOM      4  C   UNL     1      -0.543   0.679  -0.754  0.00  0.00    +0.000 A 
ATOM      5  C   UNL     1       0.348   1.763  -0.787  0.00  0.00    +0.000 A 
ATOM      6  C   UNL     1       1.679   1.510  -1.116  0.00  0.00    +0.000 A 
ATOM      7  C   UNL     1       2.108   0.217  -1.401  0.00  0.00    +0.000 A 
ATOM      8  S   UNL     1      -2.228   0.682  -0.389  0.00  0.00    +0.000 S 
ATOM      9  C   UNL     1      -2.278  -1.005  -0.641  0.00  0.00    +0.000 A 
ATOM     10  N   UNL     1      -1.141  -1.584  -0.960  0.00  0.00    +0.000 NA
ENDROOT
BRANCH   9  11
ATOM     11  S   UNL     1      -3.762  -1.944  -0.473  0.00  0.00    +0.000 S 
BRANCH  11  12
ATOM     12  N   UNL     1      -3.246  -3.419  -1.061  0.00  0.00    +0.000 NA
ATOM     13  H   UNL     1      -2.226  -3.396  -1.045  0.00  0.00    +0.000 HD
BRANCH  12  14
ATOM     14  C   UNL     1      -3.644  -4.677  -0.416  0.00  0.00    +0.000 C 
ATOM     15  C   UNL     1      -2.756  -5.815  -0.949  0.00  0.00    +0.000 C 
ATOM     16  C   UNL     1      -3.160  -7.167  -0.363  0.00  0.00    +0.000 C 
ATOM     17  C   UNL     1      -4.634  -7.468  -0.611  0.00  0.00    +0.000 C 
ATOM     18  C   UNL     1      -5.528  -6.345  -0.095  0.00  0.00    +0.000 C 
ATOM     19  C   UNL     1      -5.127  -4.990  -0.677  0.00  0.00    +0.000 C 
ENDBRANCH  12  14
ENDBRANCH  11  12
ENDBRANCH   9  11
TORSDOF 3
