REMARK  Name = *****
REMARK  5 active torsions:
REMARK  status: ('A' for Active; 'I' for Inactive)
REMARK    1  A    between atoms: C_1  and  O_2
REMARK    2  A    between atoms: O_2  and  C_3
REMARK    3  A    between atoms: C_10  and  C_14
REMARK    4  A    between atoms: C_10  and  O_20
REMARK    5  A    between atoms: O_20  and  C_21
REMARK                            x       y       z     vdW  Elec       q    Type
REMARK                         _______ _______ _______ _____ _____    ______ ____
ROOT
ATOM      1  C   UNL     1       2.999  -1.035  -0.836  0.00  0.00    +0.000 A 
ATOM      2  C   UNL     1       2.572  -1.480  -2.086  0.00  0.00    +0.000 A 
ATOM      3  C   UNL     1       3.200  -2.583  -2.680  0.00  0.00    +0.000 A 
ATOM      4  C   UNL     1       4.253  -3.233  -2.045  0.00  0.00    +0.000 A 
ATOM      5  C   UNL     1       4.668  -2.801  -0.789  0.00  0.00    +0.000 A 
ATOM      6  C   UNL     1       4.045  -1.702  -0.192  0.00  0.00    +0.000 A 
ATOM      7  O   UNL     1       4.910  -4.309  -2.572  0.00  0.00    +0.000 OA
ATOM      8  C   UNL     1       4.823  -4.430  -4.004  0.00  0.00    +0.000 C 
ATOM      9  C   UNL     1       3.361  -4.376  -4.462  0.00  0.00    +0.000 C 
ATOM     10  C   UNL     1       2.715  -3.116  -3.964  0.00  0.00    +0.000 C 
ATOM     11  O   UNL     1       1.760  -2.596  -4.535  0.00  0.00    +0.000 OA
ENDROOT
BRANCH   8  12
ATOM     12  C   UNL     1       5.371  -5.803  -4.434  0.00  0.00    +0.000 A 
ATOM     13  C   UNL     1       5.545  -6.850  -3.512  0.00  0.00    +0.000 A 
ATOM     14  C   UNL     1       6.019  -8.098  -3.925  0.00  0.00    +0.000 A 
ATOM     15  C   UNL     1       6.323  -8.323  -5.265  0.00  0.00    +0.000 A 
ATOM     16  C   UNL     1       6.151  -7.303  -6.196  0.00  0.00    +0.000 A 
ATOM     17  C   UNL     1       5.677  -6.055  -5.786  0.00  0.00    +0.000 A 
ENDBRANCH   8  12
BRANCH   1  19
ATOM     18  C   UNL     1       1.391   0.715  -0.737  0.00  0.00    +0.000 C 
ATOM     19  O   UNL     1       2.479   0.020  -0.138  0.00  0.00    +0.000 OA
ENDBRANCH   1  19
BRANCH   8  20
ATOM     20  O   UNL     1       5.538  -3.379  -4.685  0.00  0.00    +0.000 OA
ATOM     21  C   UNL     1       6.887  -3.216  -4.262  0.00  0.00    +0.000 C 
ENDBRANCH   8  20
TORSDOF 3
