REMARK  Name = *****
REMARK  4 active torsions:
REMARK  status: ('A' for Active; 'I' for Inactive)
REMARK    1  A    between atoms: C_1  and  C_2
REMARK    2  A    between atoms: C_7  and  O_10
REMARK    3  A    between atoms: O_10  and  C_11
REMARK    4  A    between atoms: C_11  and  C_12
REMARK                            x       y       z     vdW  Elec       q    Type
REMARK                         _______ _______ _______ _____ _____    ______ ____
ROOT
ATOM      1  C   UNL     1       0.787   0.101  -0.281  0.00  0.00    +0.000 C 
ATOM      2  C   UNL     1       2.272   0.041  -0.102  0.00  0.00    +0.000 A 
ATOM      3  C   UNL     1       2.984  -1.079  -0.298  0.00  0.00    +0.000 A 
ATOM      4  C   UNL     1       4.424  -1.077  -0.108  0.00  0.00    +0.000 A 
ATOM      5  C   UNL     1       5.053   0.100   0.282  0.00  0.00    +0.000 A 
ATOM      6  C   UNL     1       6.432   0.175   0.484  0.00  0.00    +0.000 A 
ATOM      7  C   UNL     1       7.207  -0.966   0.288  0.00  0.00    +0.000 A 
ATOM      8  C   UNL     1       6.586  -2.157  -0.107  0.00  0.00    +0.000 A 
ATOM      9  C   UNL     1       5.202  -2.217  -0.304  0.00  0.00    +0.000 A 
ATOM     10  O   UNL     1       4.308   1.277   0.489  0.00  0.00    +0.000 OA
ATOM     11  C   UNL     1       2.929   1.308   0.313  0.00  0.00    +0.000 A 
ATOM     12  O   UNL     1       2.286   2.337   0.492  0.00  0.00    +0.000 OA
ENDROOT
BRANCH   7  13
ATOM     13  O   UNL     1       8.562  -1.057   0.443  0.00  0.00    +0.000 OA
BRANCH  13  14
ATOM     14  C   UNL     1       9.247   0.114   0.891  0.00  0.00    +0.000 C 
BRANCH  14  15
ATOM     15  C   UNL     1      10.715  -0.205   1.057  0.00  0.00    +0.000 A 
ATOM     16  C   UNL     1      11.123  -1.357   1.749  0.00  0.00    +0.000 A 
ATOM     17  C   UNL     1      12.480  -1.629   1.924  0.00  0.00    +0.000 A 
ATOM     18  C   UNL     1      13.446  -0.759   1.424  0.00  0.00    +0.000 A 
ATOM     19  C   UNL     1      13.052   0.393   0.745  0.00  0.00    +0.000 A 
ATOM     20  C   UNL     1      11.695   0.671   0.565  0.00  0.00    +0.000 A 
ATOM     21 CL   UNL     1      12.964  -3.049   2.767  0.00  0.00    +0.000 Cl
ENDBRANCH  14  15
ENDBRANCH  13  14
ENDBRANCH   7  13
TORSDOF 3
