REMARK  Name = *****
REMARK  3 active torsions:
REMARK  status: ('A' for Active; 'I' for Inactive)
REMARK    1  A    between atoms: C_4  and  O_7
REMARK    2  A    between atoms: O_7  and  C_8
REMARK    3  A    between atoms: C_8  and  C_9
REMARK                            x       y       z     vdW  Elec       q    Type
REMARK                         _______ _______ _______ _____ _____    ______ ____
ROOT
ATOM      1  C   UNL     1      -3.901  -0.889  -0.786  0.00  0.00    +0.000 C 
ATOM      2  F   UNL     1      -3.616  -1.998  -0.047  0.00  0.00    +0.000 F 
ATOM      3  F   UNL     1      -5.178  -0.518  -0.485  0.00  0.00    +0.000 F 
ENDROOT
BRANCH   1   4
ATOM      4  C   UNL     1      -3.745  -1.164  -2.264  0.00  0.00    +0.000 A 
ATOM      5  N   UNL     1      -2.864  -0.617  -3.085  0.00  0.00    +0.000 NA
ATOM      6  C   UNL     1      -3.023  -1.113  -4.367  0.00  0.00    +0.000 A 
ATOM      7  C   UNL     1      -2.260  -0.749  -5.495  0.00  0.00    +0.000 A 
ATOM      8  C   UNL     1      -2.531  -1.330  -6.737  0.00  0.00    +0.000 A 
ATOM      9  C   UNL     1      -3.551  -2.268  -6.868  0.00  0.00    +0.000 A 
ATOM     10  C   UNL     1      -4.321  -2.647  -5.764  0.00  0.00    +0.000 A 
ATOM     11  C   UNL     1      -4.040  -2.056  -4.521  0.00  0.00    +0.000 A 
ATOM     12  S   UNL     1      -4.802  -2.314  -3.001  0.00  0.00    +0.000 S 
ENDBRANCH   1   4
BRANCH   1  13
ATOM     13  O   UNL     1      -3.009   0.163  -0.417  0.00  0.00    +0.000 OA
BRANCH  13  17
ATOM     14  C   UNL     1      -2.773   1.687   3.450  0.00  0.00    +0.000 A 
ATOM     15  C   UNL     1      -3.653   0.633   3.210  0.00  0.00    +0.000 A 
ATOM     16  C   UNL     1      -3.767   0.086   1.928  0.00  0.00    +0.000 A 
ATOM     17  C   UNL     1      -3.001   0.593   0.878  0.00  0.00    +0.000 A 
ATOM     18  C   UNL     1      -2.120   1.650   1.128  0.00  0.00    +0.000 A 
ATOM     19  C   UNL     1      -2.005   2.196   2.407  0.00  0.00    +0.000 A 
ENDBRANCH  13  17
ENDBRANCH   1  13
TORSDOF 3
