REMARK  Name = *****
REMARK  5 active torsions:
REMARK  status: ('A' for Active; 'I' for Inactive)
REMARK    1  A    between atoms: C_1  and  C_2
REMARK    2  A    between atoms: C_7  and  S_8
REMARK    3  A    between atoms: S_8  and  C_11
REMARK    4  A    between atoms: C_11  and  C_12
REMARK    5  A    between atoms: C_12  and  C_13
REMARK                            x       y       z     vdW  Elec       q    Type
REMARK                         _______ _______ _______ _____ _____    ______ ____
ROOT
ATOM      1  S   UNL     1       0.958  -2.659  -0.179  0.00  0.00    +0.000 S 
ATOM      2  O   UNL     1       0.587  -3.227   1.105  0.00  0.00    +0.000 OA
ATOM      3  O   UNL     1       0.487  -3.231  -1.424  0.00  0.00    +0.000 OA
ENDROOT
BRANCH   1  10
ATOM      4  C   UNL     1      -1.913  -1.703   0.694  0.00  0.00    +0.000 C 
ATOM      5  C   UNL     1      -0.926  -0.658   0.249  0.00  0.00    +0.000 A 
ATOM      6  C   UNL     1      -1.324   0.689   0.281  0.00  0.00    +0.000 A 
ATOM      7  C   UNL     1      -0.459   1.704  -0.129  0.00  0.00    +0.000 A 
ATOM      8  C   UNL     1       0.819   1.390  -0.579  0.00  0.00    +0.000 A 
ATOM      9  C   UNL     1       1.243   0.061  -0.606  0.00  0.00    +0.000 A 
ATOM     10  C   UNL     1       0.383  -0.962  -0.178  0.00  0.00    +0.000 A 
ENDBRANCH   1  10
BRANCH   1  11
ATOM     11  C   UNL     1       2.731  -2.606  -0.209  0.00  0.00    +0.000 C 
BRANCH  11  12
ATOM     12  C   UNL     1       3.321  -3.969   0.128  0.00  0.00    +0.000 C 
ATOM     13 CL   UNL     1       5.082  -3.764   0.470  0.00  0.00    +0.000 Cl
BRANCH  12  14
ATOM     14  C   UNL     1       3.153  -5.018  -0.951  0.00  0.00    +0.000 A 
ATOM     15  C   UNL     1       3.712  -4.867  -2.231  0.00  0.00    +0.000 A 
ATOM     16  C   UNL     1       3.526  -5.845  -3.211  0.00  0.00    +0.000 A 
ATOM     17  C   UNL     1       2.778  -6.984  -2.927  0.00  0.00    +0.000 A 
ATOM     18  C   UNL     1       2.215  -7.149  -1.664  0.00  0.00    +0.000 A 
ATOM     19  C   UNL     1       2.400  -6.173  -0.682  0.00  0.00    +0.000 A 
ENDBRANCH  12  14
ENDBRANCH  11  12
ENDBRANCH   1  11
TORSDOF 4
