REMARK  Name = *****
REMARK  2 active torsions:
REMARK  status: ('A' for Active; 'I' for Inactive)
REMARK    1  A    between atoms: C_1  and  C_2
REMARK    2  A    between atoms: C_9  and  C_13
REMARK                            x       y       z     vdW  Elec       q    Type
REMARK                         _______ _______ _______ _____ _____    ______ ____
ROOT
ATOM      1  C   UNL     1       0.896   0.137   0.241  0.00  0.00    +0.000 C 
ATOM      2  C   UNL     1       2.390   0.154   0.114  0.00  0.00    +0.000 A 
ATOM      3  C   UNL     1       3.095   1.362   0.196  0.00  0.00    +0.000 A 
ATOM      4  C   UNL     1       4.491   1.364   0.108  0.00  0.00    +0.000 A 
ATOM      5  C   UNL     1       5.193   0.172  -0.063  0.00  0.00    +0.000 A 
ATOM      6  C   UNL     1       4.499  -1.035  -0.110  0.00  0.00    +0.000 A 
ATOM      7  C   UNL     1       3.105  -1.044  -0.021  0.00  0.00    +0.000 A 
ATOM      8  O   UNL     1       6.557   0.100  -0.167  0.00  0.00    +0.000 OA
ATOM      9  C   UNL     1       7.179   1.324  -0.613  0.00  0.00    +0.000 C 
ATOM     10  C   UNL     1       6.748   2.490   0.270  0.00  0.00    +0.000 C 
ATOM     11  C   UNL     1       5.251   2.619   0.243  0.00  0.00    +0.000 C 
ATOM     12  O   UNL     1       4.683   3.697   0.392  0.00  0.00    +0.000 OA
ENDROOT
BRANCH   9  13
ATOM     13  C   UNL     1       7.057   1.472  -2.128  0.00  0.00    +0.000 A 
ATOM     14  C   UNL     1       6.665   2.663  -2.758  0.00  0.00    +0.000 A 
ATOM     15  C   UNL     1       6.587   2.742  -4.152  0.00  0.00    +0.000 A 
ATOM     16  C   UNL     1       6.906   1.638  -4.938  0.00  0.00    +0.000 A 
ATOM     17  C   UNL     1       7.307   0.452  -4.332  0.00  0.00    +0.000 A 
ATOM     18  C   UNL     1       7.385   0.371  -2.941  0.00  0.00    +0.000 A 
ENDBRANCH   9  13
TORSDOF 1
