REMARK  Name = *****
REMARK  3 active torsions:
REMARK  status: ('A' for Active; 'I' for Inactive)
REMARK    1  A    between atoms: C_4  and  O_7
REMARK    2  A    between atoms: O_7  and  C_8
REMARK    3  A    between atoms: C_8  and  C_10
REMARK                            x       y       z     vdW  Elec       q    Type
REMARK                         _______ _______ _______ _____ _____    ______ ____
ROOT
ATOM      1  C   UNL     1      -3.864  -0.735  -0.671  0.00  0.00    +0.000 C 
ATOM      2  O   UNL     1      -3.099  -0.172  -1.448  0.00  0.00    +0.000 OA
ENDROOT
BRANCH   1   3
ATOM      3  C   UNL     1      -5.305  -0.693  -0.768  0.00  0.00    +0.000 A 
ATOM      4  C   UNL     1      -6.124  -0.050  -1.680  0.00  0.00    +0.000 A 
ATOM      5  C   UNL     1      -7.463  -0.342  -1.314  0.00  0.00    +0.000 A 
ATOM      6  C   UNL     1      -8.737  -0.010  -1.809  0.00  0.00    +0.000 A 
ATOM      7  C   UNL     1      -9.867  -0.513  -1.148  0.00  0.00    +0.000 A 
ATOM      8  C   UNL     1      -9.739  -1.327  -0.019  0.00  0.00    +0.000 A 
ATOM      9  C   UNL     1      -8.480  -1.668   0.488  0.00  0.00    +0.000 A 
ATOM     10  C   UNL     1      -7.378  -1.153  -0.190  0.00  0.00    +0.000 A 
ATOM     11  O   UNL     1      -6.077  -1.367   0.143  0.00  0.00    +0.000 OA
ENDBRANCH   1   3
BRANCH   1  12
ATOM     12  O   UNL     1      -3.490  -1.507   0.425  0.00  0.00    +0.000 OA
BRANCH  12  16
ATOM     13  C   UNL     1       0.593  -1.962   1.151  0.00  0.00    +0.000 A 
ATOM     14  C   UNL     1       0.009  -0.700   1.288  0.00  0.00    +0.000 A 
ATOM     15  C   UNL     1      -1.352  -0.529   1.038  0.00  0.00    +0.000 A 
ATOM     16  C   UNL     1      -2.112  -1.626   0.633  0.00  0.00    +0.000 A 
ATOM     17  C   UNL     1      -1.545  -2.893   0.514  0.00  0.00    +0.000 A 
ATOM     18  C   UNL     1      -0.184  -3.058   0.768  0.00  0.00    +0.000 A 
ENDBRANCH  12  16
ENDBRANCH   1  12
TORSDOF 3
