REMARK  Name = *****
REMARK  2 active torsions:
REMARK  status: ('A' for Active; 'I' for Inactive)
REMARK    1  A    between atoms: C_1  and  C_2
REMARK    2  A    between atoms: C_7  and  C_8
REMARK                            x       y       z     vdW  Elec       q    Type
REMARK                         _______ _______ _______ _____ _____    ______ ____
ROOT
ATOM      1  C   UNL     1       1.124  -2.485  -0.275  0.00  0.00    +0.000 C 
ATOM      2  C   UNL     1       1.123  -3.007  -1.707  0.00  0.00    +0.000 C 
ATOM      3  C   UNL     1       1.834  -4.330  -1.722  0.00  0.00    +0.000 C 
ATOM      4  O   UNL     1       1.544  -5.227  -2.506  0.00  0.00    +0.000 OA
ATOM      5  C   UNL     1       2.965  -4.474  -0.784  0.00  0.00    +0.000 A 
ATOM      6  C   UNL     1       3.779  -5.609  -0.817  0.00  0.00    +0.000 A 
ATOM      7  C   UNL     1       4.876  -5.695   0.041  0.00  0.00    +0.000 A 
ATOM      8  C   UNL     1       5.158  -4.648   0.921  0.00  0.00    +0.000 A 
ATOM      9  C   UNL     1       4.339  -3.517   0.952  0.00  0.00    +0.000 A 
ATOM     10  C   UNL     1       3.231  -3.436   0.110  0.00  0.00    +0.000 A 
ATOM     11  O   UNL     1       2.472  -2.300   0.199  0.00  0.00    +0.000 OA
ENDROOT
BRANCH   1  18
ATOM     12  C   UNL     1      -1.798  -2.316   0.472  0.00  0.00    +0.000 C 
ATOM     13  C   UNL     1      -0.993  -1.089   0.135  0.00  0.00    +0.000 A 
ATOM     14  C   UNL     1      -1.630   0.163   0.175  0.00  0.00    +0.000 A 
ATOM     15  C   UNL     1      -0.934   1.333  -0.123  0.00  0.00    +0.000 A 
ATOM     16  C   UNL     1       0.412   1.270  -0.464  0.00  0.00    +0.000 A 
ATOM     17  C   UNL     1       1.061   0.037  -0.503  0.00  0.00    +0.000 A 
ATOM     18  C   UNL     1       0.380  -1.158  -0.195  0.00  0.00    +0.000 A 
ENDBRANCH   1  18
TORSDOF 1
