REMARK  Name = *****
REMARK  5 active torsions:
REMARK  status: ('A' for Active; 'I' for Inactive)
REMARK    1  A    between atoms: C_1  and  C_2
REMARK    2  A    between atoms: C_2  and  C_4
REMARK    3  A    between atoms: C_4  and  C_5
REMARK    4  A    between atoms: C_6  and  C_14
REMARK    5  A    between atoms: C_14  and  C_16
REMARK                            x       y       z     vdW  Elec       q    Type
REMARK                         _______ _______ _______ _____ _____    ______ ____
ROOT
ATOM      1  C   UNL     1       4.650  -0.595  -0.784  0.00  0.00    +0.000 C 
ATOM      2  C   UNL     1       5.207   0.830  -1.035  0.00  0.00    +0.000 C 
ATOM      3  O   UNL     1       5.453   1.462   0.247  0.00  0.00    +0.000 OA
ATOM      4  C   UNL     1       5.583   0.415   1.120  0.00  0.00    +0.000 A 
ATOM      5  C   UNL     1       6.058   0.534   2.409  0.00  0.00    +0.000 A 
ATOM      6  C   UNL     1       6.133  -0.623   3.186  0.00  0.00    +0.000 A 
ATOM      7  C   UNL     1       5.729  -1.862   2.662  0.00  0.00    +0.000 A 
ATOM      8  C   UNL     1       5.237  -1.957   1.357  0.00  0.00    +0.000 A 
ATOM      9  C   UNL     1       5.169  -0.800   0.599  0.00  0.00    +0.000 A 
ENDROOT
BRANCH   2  10
ATOM     10  C   UNL     1       6.505   0.828  -1.862  0.00  0.00    +0.000 C 
ATOM     11  O   UNL     1       7.071  -0.212  -2.203  0.00  0.00    +0.000 OA
BRANCH  10  12
ATOM     12  C   UNL     1       7.095   2.137  -2.291  0.00  0.00    +0.000 A 
ATOM     13  C   UNL     1       6.516   3.373  -1.977  0.00  0.00    +0.000 A 
ATOM     14  C   UNL     1       7.108   4.561  -2.415  0.00  0.00    +0.000 A 
ATOM     15  C   UNL     1       8.280   4.526  -3.169  0.00  0.00    +0.000 A 
ATOM     16  C   UNL     1       8.865   3.302  -3.486  0.00  0.00    +0.000 A 
ATOM     17  C   UNL     1       8.276   2.114  -3.050  0.00  0.00    +0.000 A 
ENDBRANCH  10  12
ENDBRANCH   2  10
BRANCH   1  18
ATOM     18  C   UNL     1       3.118  -0.649  -0.789  0.00  0.00    +0.000 C 
BRANCH  18  20
ATOM     19  C   UNL     1       1.073  -0.795  -2.336  0.00  0.00    +0.000 C 
ATOM     20  C   UNL     1       2.540  -0.490  -2.181  0.00  0.00    +0.000 C 
ATOM     21  O   UNL     1       3.210  -0.087  -3.130  0.00  0.00    +0.000 OA
ENDBRANCH  18  20
ENDBRANCH   1  18
TORSDOF 4
