REMARK  Name = *****
REMARK  5 active torsions:
REMARK  status: ('A' for Active; 'I' for Inactive)
REMARK    1  A    between atoms: C_1  and  C_2
REMARK    2  A    between atoms: C_2  and  C_20
REMARK    3  A    between atoms: C_3  and  C_12
REMARK    4  A    between atoms: C_3  and  O_18
REMARK    5  A    between atoms: O_18  and  C_19
REMARK                            x       y       z     vdW  Elec       q    Type
REMARK                         _______ _______ _______ _____ _____    ______ ____
ROOT
ATOM      1  C   UNL     1       1.153   0.490  -0.251  0.00  0.00    +0.000 C 
ATOM      2  C   UNL     1       2.664   0.186  -0.201  0.00  0.00    +0.000 C 
ATOM      3  C   UNL     1       3.092  -0.938   0.837  0.00  0.00    +0.000 C 
ATOM      4  O   UNL     1       4.547  -1.042   0.809  0.00  0.00    +0.000 OA
ATOM      5  C   UNL     1       5.197   0.160   0.830  0.00  0.00    +0.000 A 
ATOM      6  C   UNL     1       6.543   0.136   1.193  0.00  0.00    +0.000 A 
ATOM      7  C   UNL     1       7.271   1.325   1.252  0.00  0.00    +0.000 A 
ATOM      8  C   UNL     1       6.652   2.536   0.942  0.00  0.00    +0.000 A 
ATOM      9  C   UNL     1       5.308   2.556   0.564  0.00  0.00    +0.000 A 
ATOM     10  C   UNL     1       4.586   1.365   0.496  0.00  0.00    +0.000 A 
ATOM     11  O   UNL     1       3.284   1.463   0.095  0.00  0.00    +0.000 OA
ATOM     12  C   UNL     1       3.073  -0.197  -1.646  0.00  0.00    +0.000 C 
ENDROOT
BRANCH   3  13
ATOM     13  C   UNL     1       2.753  -0.785   2.339  0.00  0.00    +0.000 A 
ATOM     14  C   UNL     1       2.306   0.410   2.924  0.00  0.00    +0.000 A 
ATOM     15  C   UNL     1       2.038   0.489   4.295  0.00  0.00    +0.000 A 
ATOM     16  C   UNL     1       2.227  -0.620   5.115  0.00  0.00    +0.000 A 
ATOM     17  C   UNL     1       2.697  -1.808   4.568  0.00  0.00    +0.000 A 
ATOM     18  C   UNL     1       2.965  -1.886   3.199  0.00  0.00    +0.000 A 
ENDBRANCH   3  13
BRANCH   3  19
ATOM     19  O   UNL     1       2.646  -2.247   0.388  0.00  0.00    +0.000 OA
ATOM     20  C   UNL     1       1.263  -2.542   0.463  0.00  0.00    +0.000 C 
ENDBRANCH   3  19
TORSDOF 2
