REMARK  Name = *****
REMARK  2 active torsions:
REMARK  status: ('A' for Active; 'I' for Inactive)
REMARK    1  A    between atoms: C_1  and  C_2
REMARK    2  A    between atoms: C_3  and  C_12
REMARK                            x       y       z     vdW  Elec       q    Type
REMARK                         _______ _______ _______ _____ _____    ______ ____
ROOT
ATOM      1  C   UNL     1       2.984  -0.390  -1.527  0.00  0.00    +0.000 C 
ATOM      2  C   UNL     1       2.753   0.072  -0.084  0.00  0.00    +0.000 C 
ATOM      3  C   UNL     1       3.321  -0.920   0.955  0.00  0.00    +0.000 C 
ATOM      4  O   UNL     1       4.757  -0.984   0.866  0.00  0.00    +0.000 OA
ATOM      5  C   UNL     1       5.326   0.259   0.777  0.00  0.00    +0.000 A 
ATOM      6  C   UNL     1       6.689   0.342   1.060  0.00  0.00    +0.000 A 
ATOM      7  C   UNL     1       7.338   1.576   1.006  0.00  0.00    +0.000 A 
ATOM      8  C   UNL     1       6.624   2.724   0.663  0.00  0.00    +0.000 A 
ATOM      9  C   UNL     1       5.263   2.638   0.364  0.00  0.00    +0.000 A 
ATOM     10  C   UNL     1       4.616   1.403   0.409  0.00  0.00    +0.000 A 
ATOM     11  O   UNL     1       3.289   1.396   0.069  0.00  0.00    +0.000 OA
ENDROOT
BRANCH   3  12
ATOM     12  C   UNL     1       2.901  -0.752   2.415  0.00  0.00    +0.000 A 
ATOM     13  C   UNL     1       2.018   0.244   2.857  0.00  0.00    +0.000 A 
ATOM     14  C   UNL     1       1.656   0.335   4.204  0.00  0.00    +0.000 A 
ATOM     15  C   UNL     1       2.173  -0.566   5.132  0.00  0.00    +0.000 A 
ATOM     16  C   UNL     1       3.052  -1.559   4.715  0.00  0.00    +0.000 A 
ATOM     17  C   UNL     1       3.410  -1.654   3.369  0.00  0.00    +0.000 A 
ENDBRANCH   3  12
TORSDOF 1
