REMARK  Name = *****
REMARK  3 active torsions:
REMARK  status: ('A' for Active; 'I' for Inactive)
REMARK    1  A    between atoms: C_4  and  C_7
REMARK    2  A    between atoms: C_7  and  S_9
REMARK    3  A    between atoms: S_9  and  C_10
REMARK                            x       y       z     vdW  Elec       q    Type
REMARK                         _______ _______ _______ _____ _____    ______ ____
ROOT
ATOM      1  S   UNL     1      -4.426  -1.016  -1.456  0.00  0.00    +0.000 S 
ENDROOT
BRANCH   1   2
ATOM      2  C   UNL     1      -5.993  -0.374  -1.030  0.00  0.00    +0.000 A 
ATOM      3  N   UNL     1      -6.383  -0.317   0.222  0.00  0.00    +0.000 NA
ATOM      4  C   UNL     1      -7.662   0.212   0.284  0.00  0.00    +0.000 A 
ATOM      5  C   UNL     1      -8.403   0.443   1.460  0.00  0.00    +0.000 A 
ATOM      6  C   UNL     1      -9.691   0.983   1.376  0.00  0.00    +0.000 A 
ATOM      7  C   UNL     1     -10.246   1.293   0.138  0.00  0.00    +0.000 A 
ATOM      8  C   UNL     1      -9.531   1.073  -1.044  0.00  0.00    +0.000 A 
ATOM      9  C   UNL     1      -8.239   0.532  -0.947  0.00  0.00    +0.000 A 
ATOM     10  S   UNL     1      -7.123   0.147  -2.202  0.00  0.00    +0.000 S 
ENDBRANCH   1   2
BRANCH   1  11
ATOM     11  C   UNL     1      -3.502   0.111  -0.477  0.00  0.00    +0.000 C 
ATOM     12  O   UNL     1      -3.260   1.237  -0.898  0.00  0.00    +0.000 OA
BRANCH  11  16
ATOM     13  C   UNL     1      -1.803  -1.102   3.284  0.00  0.00    +0.000 A 
ATOM     14  C   UNL     1      -2.806  -1.883   2.712  0.00  0.00    +0.000 A 
ATOM     15  C   UNL     1      -3.378  -1.512   1.491  0.00  0.00    +0.000 A 
ATOM     16  C   UNL     1      -2.945  -0.353   0.830  0.00  0.00    +0.000 A 
ATOM     17  C   UNL     1      -1.942   0.430   1.422  0.00  0.00    +0.000 A 
ATOM     18  C   UNL     1      -1.372   0.056   2.641  0.00  0.00    +0.000 A 
ENDBRANCH  11  16
ENDBRANCH   1  11
TORSDOF 3
