REMARK  Name = *****
REMARK  2 active torsions:
REMARK  status: ('A' for Active; 'I' for Inactive)
REMARK    1  A    between atoms: C_1  and  C_2
REMARK    2  A    between atoms: C_9  and  C_13
REMARK                            x       y       z     vdW  Elec       q    Type
REMARK                         _______ _______ _______ _____ _____    ______ ____
ROOT
ATOM      1  C   UNL     1       1.129  -0.203  -0.159  0.00  0.00    +0.000 C 
ATOM      2  C   UNL     1       2.624  -0.101  -0.090  0.00  0.00    +0.000 A 
ATOM      3  C   UNL     1       3.247   1.151  -0.007  0.00  0.00    +0.000 A 
ATOM      4  C   UNL     1       4.640   1.234   0.091  0.00  0.00    +0.000 A 
ATOM      5  C   UNL     1       5.418   0.077   0.105  0.00  0.00    +0.000 A 
ATOM      6  C   UNL     1       4.803  -1.171   0.059  0.00  0.00    +0.000 A 
ATOM      7  C   UNL     1       3.412  -1.260  -0.038  0.00  0.00    +0.000 A 
ATOM      8  O   UNL     1       6.785   0.088   0.197  0.00  0.00    +0.000 OA
ATOM      9  C   UNL     1       7.368   1.312  -0.295  0.00  0.00    +0.000 C 
ATOM     10  C   UNL     1       6.795   2.513   0.448  0.00  0.00    +0.000 C 
ATOM     11  C   UNL     1       5.309   2.542   0.230  0.00  0.00    +0.000 C 
ATOM     12  O   UNL     1       4.663   3.585   0.234  0.00  0.00    +0.000 OA
ENDROOT
BRANCH   9  13
ATOM     13  C   UNL     1       8.878   1.249  -0.116  0.00  0.00    +0.000 A 
ATOM     14  C   UNL     1       9.431   0.563   0.983  0.00  0.00    +0.000 A 
ATOM     15  C   UNL     1      10.812   0.512   1.183  0.00  0.00    +0.000 A 
ATOM     16  C   UNL     1      11.669   1.150   0.293  0.00  0.00    +0.000 A 
ATOM     17  C   UNL     1      11.143   1.845  -0.795  0.00  0.00    +0.000 A 
ATOM     18  C   UNL     1       9.760   1.899  -0.998  0.00  0.00    +0.000 A 
ATOM     19 CL   UNL     1       9.196   2.806  -2.358  0.00  0.00    +0.000 Cl
ENDBRANCH   9  13
TORSDOF 1
