REMARK  Name = *****
REMARK  6 active torsions:
REMARK  status: ('A' for Active; 'I' for Inactive)
REMARK    1  A    between atoms: C_1  and  C_2
REMARK    2  A    between atoms: C_2  and  O_3
REMARK    3  A    between atoms: O_3  and  C_4
REMARK    4  A    between atoms: C_4  and  C_16
REMARK    5  A    between atoms: C_5  and  O_14
REMARK    6  A    between atoms: O_14  and  C_15
REMARK                            x       y       z     vdW  Elec       q    Type
REMARK                         _______ _______ _______ _____ _____    ______ ____
ROOT
ATOM      1  C   UNL     1       4.510  -0.947   0.774  0.00  0.00    +0.000 C 
ATOM      2  C   UNL     1       5.152  -0.995  -0.641  0.00  0.00    +0.000 C 
ATOM      3  C   UNL     1       5.492  -2.173  -1.194  0.00  0.00    +0.000 C 
ATOM      4  C   UNL     1       5.241  -3.392  -0.437  0.00  0.00    +0.000 A 
ATOM      5  C   UNL     1       5.359  -4.652  -1.035  0.00  0.00    +0.000 A 
ATOM      6  C   UNL     1       5.158  -5.810  -0.280  0.00  0.00    +0.000 A 
ATOM      7  C   UNL     1       4.852  -5.714   1.077  0.00  0.00    +0.000 A 
ATOM      8  C   UNL     1       4.742  -4.460   1.678  0.00  0.00    +0.000 A 
ATOM      9  C   UNL     1       4.922  -3.305   0.918  0.00  0.00    +0.000 A 
ATOM     10  O   UNL     1       4.837  -2.114   1.578  0.00  0.00    +0.000 OA
ENDROOT
BRANCH   1  11
ATOM     11  C   UNL     1       5.030   0.196   1.674  0.00  0.00    +0.000 A 
ATOM     12  C   UNL     1       4.200   0.774   2.655  0.00  0.00    +0.000 A 
ATOM     13  C   UNL     1       4.672   1.780   3.502  0.00  0.00    +0.000 A 
ATOM     14  C   UNL     1       5.991   2.213   3.403  0.00  0.00    +0.000 A 
ATOM     15  C   UNL     1       6.842   1.632   2.466  0.00  0.00    +0.000 A 
ATOM     16  C   UNL     1       6.370   0.626   1.619  0.00  0.00    +0.000 A 
ENDBRANCH   1  11
BRANCH   2  17
ATOM     17  O   UNL     1       5.308   0.241  -1.255  0.00  0.00    +0.000 OA
ATOM     18  C   UNL     1       5.906   0.282  -2.544  0.00  0.00    +0.000 C 
ENDBRANCH   2  17
BRANCH   1  19
ATOM     19  O   UNL     1       3.067  -0.900   0.670  0.00  0.00    +0.000 OA
BRANCH  19  21
ATOM     20  C   UNL     1       1.038   0.198   0.089  0.00  0.00    +0.000 C 
ATOM     21  C   UNL     1       2.528   0.104  -0.184  0.00  0.00    +0.000 C 
ENDBRANCH  19  21
ENDBRANCH   1  19
TORSDOF 4
