@<TRIPOS>MOLECULE
TOP2
 34 37 0 0 0
SMALL
GASTEIGER

@<TRIPOS>ATOM
      1 C          88.2050   70.2700   87.4330 C.3     1  TOP2        0.1827
      2 C          87.5440   70.8500   88.6700 C.ar    1  TOP2        0.0038
      3 C          88.1420   70.6270   89.9320 C.ar    1  TOP2       -0.0545
      4 C          87.5730   71.1270   91.0980 C.ar    1  TOP2       -0.0614
      5 C          86.4000   71.8590   91.0190 C.ar    1  TOP2       -0.0612
      6 C          85.7980   72.0870   89.7770 C.ar    1  TOP2       -0.0536
      7 C          86.3420   71.5860   88.5750 C.ar    1  TOP2       -0.0106
      8 C          85.7130   71.8300   87.2530 C.ar    1  TOP2       -0.0069
      9 C          84.4320   72.4040   87.1110 C.ar    1  TOP2       -0.0533
     10 C          83.8660   72.6600   85.8550 C.ar    1  TOP2       -0.0611
     11 C          84.5640   72.3470   84.6980 C.ar    1  TOP2       -0.0611
     12 C          85.8220   71.7630   84.7980 C.ar    1  TOP2       -0.0506
     13 C          86.3810   71.4990   86.0610 C.ar    1  TOP2        0.0287
     14 C          87.7100   70.8490   86.1060 C.2     1  TOP2        0.2042
     15 C          87.5220   66.4660   87.5560 C.2     1  TOP2       -0.0576
     16 C          88.8800   66.4750   86.8730 C.2     1  TOP2       -0.0145
     17 C          89.2150   67.9360   86.8120 C.2     1  TOP2        0.1856
     18 C          88.1410   68.7740   87.3740 C.2     1  TOP2        0.0426
     19 C          87.2060   67.9060   87.7910 C.2     1  TOP2       -0.0513
     20 O          88.4010   70.7760   85.0830 O.2     1  TOP2       -0.2882
     21 O          90.2560   68.3860   86.3590 O.2     1  TOP2       -0.2875
     22 O          89.6020   70.6500   87.4840 O.3     1  TOP2       -0.3720
     23 H          89.0171   70.0830   89.9886 H       1  TOP2        0.0622
     24 H          88.0198   70.9546   92.0121 H       1  TOP2        0.0618
     25 H          85.9695   72.2367   91.8775 H       1  TOP2        0.0618
     26 H          84.9274   72.6398   89.7384 H       1  TOP2        0.0624
     27 H          83.8948   72.6429   87.9591 H       1  TOP2        0.0624
     28 H          82.9268   73.0828   85.7906 H       1  TOP2        0.0618
     29 H          84.1538   72.5456   83.7721 H       1  TOP2        0.0618
     30 H          86.3470   71.5226   83.9427 H       1  TOP2        0.0625
     31 H          86.9460   65.6460   87.8026 H       1  TOP2        0.0619
     32 H          89.4349   65.6734   86.5346 H       1  TOP2        0.0656
     33 H          86.3301   68.2126   88.2424 H       1  TOP2        0.0623
     34 H          90.0618   70.2965   86.7065 H       1  TOP2        0.2116
@<TRIPOS>BOND
     1     1    14    1
     2     1    18    1
     3     1    22    1
     4     1     2    1
     5     2     7   ar
     6     2     3   ar
     7     3     4   ar
     8     3    23    1
     9     4     5   ar
    10     4    24    1
    11     5     6   ar
    12     5    25    1
    13     6     7   ar
    14     6    26    1
    15     7     8    1
    16     8    13   ar
    17     8     9   ar
    18     9    10   ar
    19     9    27    1
    20    10    11   ar
    21    10    28    1
    22    11    12   ar
    23    11    29    1
    24    12    13   ar
    25    12    30    1
    26    13    14    1
    27    14    20    2
    28    15    16    2
    29    15    19    1
    30    15    31    1
    31    16    17    1
    32    16    32    1
    33    17    21    2
    34    17    18    1
    35    18    19    2
    36    19    33    1
    37    22    34    1
