REMARK  Name = *****
REMARK  10 active torsions:
REMARK  status: ('A' for Active; 'I' for Inactive)
REMARK    1  A    between atoms: C_1  and  O_2
REMARK    2  A    between atoms: O_2  and  C_3
REMARK    3  A    between atoms: C_5  and  O_6
REMARK    4  A    between atoms: O_6  and  C_7
REMARK    5  A    between atoms: C_9  and  C_10
REMARK    6  A    between atoms: C_11  and  C_12
REMARK    7  A    between atoms: C_15  and  O_16
REMARK    8  A    between atoms: O_16  and  C_17
REMARK    9  A    between atoms: C_18  and  O_19
REMARK   10  A    between atoms: O_19  and  C_20
REMARK                            x       y       z     vdW  Elec       q    Type
REMARK                         _______ _______ _______ _____ _____    ______ ____
ROOT
ATOM      1  C   UNL     1       6.345   2.229  -1.989  0.00  0.00    +0.000 C 
ATOM      2  C   UNL     1       7.222   3.241  -2.086  0.00  0.00    +0.000 C 
ENDROOT
BRANCH   1   7
ATOM      3  C   UNL     1       3.349   1.172   0.038  0.00  0.00    +0.000 A 
ATOM      4  C   UNL     1       2.604   2.352   0.094  0.00  0.00    +0.000 A 
ATOM      5  C   UNL     1       3.078   3.508  -0.532  0.00  0.00    +0.000 A 
ATOM      6  C   UNL     1       4.301   3.476  -1.212  0.00  0.00    +0.000 A 
ATOM      7  C   UNL     1       5.069   2.308  -1.261  0.00  0.00    +0.000 A 
ATOM      8  C   UNL     1       4.572   1.157  -0.641  0.00  0.00    +0.000 A 
BRANCH   3  10
ATOM      9  C   UNL     1       1.760  -0.082   1.294  0.00  0.00    +0.000 C 
ATOM     10  O   UNL     1       2.998  -0.028   0.597  0.00  0.00    +0.000 OA
ENDBRANCH   3  10
BRANCH   5  11
ATOM     11  O   UNL     1       2.446   4.722  -0.563  0.00  0.00    +0.000 OA
ATOM     12  C   UNL     1       1.217   4.832   0.142  0.00  0.00    +0.000 C 
ENDBRANCH   5  11
ENDBRANCH   1   7
BRANCH   2  13
ATOM     13  C   UNL     1       8.505   3.155  -2.800  0.00  0.00    +0.000 A 
ATOM     14  C   UNL     1       8.664   2.418  -3.976  0.00  0.00    +0.000 A 
ATOM     15  C   UNL     1       9.900   2.375  -4.635  0.00  0.00    +0.000 A 
ATOM     16  C   UNL     1      11.000   3.086  -4.141  0.00  0.00    +0.000 A 
ATOM     17  C   UNL     1      10.828   3.875  -2.992  0.00  0.00    +0.000 A 
ATOM     18  C   UNL     1       9.597   3.887  -2.322  0.00  0.00    +0.000 A 
BRANCH  16  19
ATOM     19  O   UNL     1      12.246   3.054  -4.708  0.00  0.00    +0.000 OA
ATOM     20  C   UNL     1      12.480   2.097  -5.733  0.00  0.00    +0.000 C 
ENDBRANCH  16  19
BRANCH  17  21
ATOM     21  O   UNL     1      11.802   4.628  -2.384  0.00  0.00    +0.000 OA
ATOM     22  C   UNL     1      12.605   5.398  -3.273  0.00  0.00    +0.000 C 
ENDBRANCH  17  21
ENDBRANCH   2  13
TORSDOF 6
