REMARK  Name = *****
REMARK  13 active torsions:
REMARK  status: ('A' for Active; 'I' for Inactive)
REMARK    1  A    between atoms: C_1  and  O_2
REMARK    2  A    between atoms: O_2  and  C_3
REMARK    3  A    between atoms: N_5  and  C_6
REMARK    4  A    between atoms: C_6  and  C_7
REMARK    5  A    between atoms: C_7  and  C_8
REMARK    6  A    between atoms: C_11  and  O_12
REMARK    7  A    between atoms: O_12  and  C_13
REMARK    8  A    between atoms: C_13  and  C_15
REMARK    9  A    between atoms: C_17  and  C_18
REMARK   10  A    between atoms: C_19  and  C_20
REMARK   11  A    between atoms: C_23  and  O_24
REMARK   12  A    between atoms: O_24  and  C_25
REMARK   13  A    between atoms: C_25  and  C_27
REMARK                            x       y       z     vdW  Elec       q    Type
REMARK                         _______ _______ _______ _____ _____    ______ ____
ROOT
ATOM      1  C   UNL     1       7.139  -2.769   2.943  0.00  0.00    +0.000 A 
ATOM      2  C   UNL     1       7.544  -2.402   4.243  0.00  0.00    +0.000 A 
ATOM      3  C   UNL     1       8.274  -3.279   5.043  0.00  0.00    +0.000 A 
ATOM      4  C   UNL     1       8.626  -4.523   4.534  0.00  0.00    +0.000 A 
ATOM      5  C   UNL     1       8.230  -4.916   3.257  0.00  0.00    +0.000 A 
ATOM      6  C   UNL     1       7.483  -4.044   2.448  0.00  0.00    +0.000 A 
ENDROOT
BRANCH   6   7
ATOM      7  C   UNL     1       7.096  -4.485   1.099  0.00  0.00    +0.000 C 
ATOM      8  C   UNL     1       6.391  -5.611   0.897  0.00  0.00    +0.000 C 
BRANCH   8   9
ATOM      9  C   UNL     1       5.956  -6.114  -0.415  0.00  0.00    +0.000 A 
ATOM     10  C   UNL     1       6.684  -5.891  -1.594  0.00  0.00    +0.000 A 
ATOM     11  C   UNL     1       6.253  -6.427  -2.811  0.00  0.00    +0.000 A 
ATOM     12  C   UNL     1       5.104  -7.212  -2.841  0.00  0.00    +0.000 A 
ATOM     13  C   UNL     1       4.360  -7.443  -1.688  0.00  0.00    +0.000 A 
ATOM     14  C   UNL     1       4.796  -6.903  -0.476  0.00  0.00    +0.000 A 
BRANCH  12  15
ATOM     15  O   UNL     1       4.620  -7.723  -4.048  0.00  0.00    +0.000 OA
BRANCH  15  16
ATOM     16  C   UNL     1       5.376  -8.767  -4.571  0.00  0.00    +0.000 C 
ATOM     17  O   UNL     1       6.395  -9.251  -4.098  0.00  0.00    +0.000 OA
ATOM     18  C   UNL     1       4.740  -9.226  -5.849  0.00  0.00    +0.000 C 
ENDBRANCH  15  16
ENDBRANCH  12  15
ENDBRANCH   8   9
ENDBRANCH   6   7
BRANCH   1  19
ATOM     19  C   UNL     1       6.346  -1.758   2.143  0.00  0.00    +0.000 C 
BRANCH  19  20
ATOM     20  C   UNL     1       7.251  -0.713   1.486  0.00  0.00    +0.000 C 
BRANCH  20  23
ATOM     21  C   UNL     1       5.853   1.312   1.430  0.00  0.00    +0.000 C 
ATOM     22  O   UNL     1       5.863   1.499   2.637  0.00  0.00    +0.000 OA
ATOM     23  N   UNL     1       6.495   0.301   0.784  0.00  0.00    +0.000 N 
ATOM     24  H   UNL     1       6.442   0.257  -0.198  0.00  0.00    +0.000 HD
BRANCH  21  26
ATOM     25  C   UNL     1       4.463   3.154   1.099  0.00  0.00    +0.000 C 
ATOM     26  O   UNL     1       5.189   2.068   0.522  0.00  0.00    +0.000 OA
ENDBRANCH  21  26
ENDBRANCH  20  23
ENDBRANCH  19  20
ENDBRANCH   1  19
BRANCH   4  27
ATOM     27  O   UNL     1       9.296  -5.465   5.323  0.00  0.00    +0.000 OA
BRANCH  27  28
ATOM     28  C   UNL     1      10.574  -5.105   5.739  0.00  0.00    +0.000 C 
ATOM     29  O   UNL     1      11.175  -4.075   5.469  0.00  0.00    +0.000 OA
ATOM     30  C   UNL     1      11.121  -6.201   6.605  0.00  0.00    +0.000 C 
ENDBRANCH  27  28
ENDBRANCH   4  27
TORSDOF 10
