REMARK  Name = *****
REMARK  10 active torsions:
REMARK  status: ('A' for Active; 'I' for Inactive)
REMARK    1  A    between atoms: C_1  and  O_2
REMARK    2  A    between atoms: O_2  and  C_3
REMARK    3  A    between atoms: C_6  and  C_7
REMARK    4  A    between atoms: C_8  and  C_9
REMARK    5  A    between atoms: C_11  and  O_12
REMARK    6  A    between atoms: O_12  and  C_13
REMARK    7  A    between atoms: C_15  and  O_16
REMARK    8  A    between atoms: O_16  and  C_17
REMARK    9  A    between atoms: C_19  and  O_20
REMARK   10  A    between atoms: O_20  and  C_21
REMARK                            x       y       z     vdW  Elec       q    Type
REMARK                         _______ _______ _______ _____ _____    ______ ____
ROOT
ATOM      1  C   UNL     1       5.610  -3.709   3.085  0.00  0.00    +0.000 C 
ATOM      2  C   UNL     1       5.095  -4.840   3.592  0.00  0.00    +0.000 C 
ENDROOT
BRANCH   1   6
ATOM      3  C   UNL     1       3.502  -1.075   0.427  0.00  0.00    +0.000 A 
ATOM      4  C   UNL     1       4.779  -1.546   0.121  0.00  0.00    +0.000 A 
ATOM      5  C   UNL     1       5.446  -2.404   1.006  0.00  0.00    +0.000 A 
ATOM      6  C   UNL     1       4.849  -2.807   2.208  0.00  0.00    +0.000 A 
ATOM      7  C   UNL     1       3.581  -2.295   2.522  0.00  0.00    +0.000 A 
ATOM      8  C   UNL     1       2.906  -1.456   1.629  0.00  0.00    +0.000 A 
BRANCH   3  10
ATOM      9  C   UNL     1       3.277   0.115  -1.619  0.00  0.00    +0.000 C 
ATOM     10  O   UNL     1       2.744  -0.245  -0.351  0.00  0.00    +0.000 OA
ENDBRANCH   3  10
BRANCH   7  11
ATOM     11  O   UNL     1       2.938  -2.645   3.683  0.00  0.00    +0.000 OA
ATOM     12  C   UNL     1       3.201  -1.675   4.698  0.00  0.00    +0.000 C 
ENDBRANCH   7  11
ENDBRANCH   1   6
BRANCH   2  13
ATOM     13  C   UNL     1       5.856  -5.760   4.446  0.00  0.00    +0.000 A 
ATOM     14  C   UNL     1       6.621  -5.300   5.527  0.00  0.00    +0.000 A 
ATOM     15  C   UNL     1       7.312  -6.204   6.337  0.00  0.00    +0.000 A 
ATOM     16  C   UNL     1       7.235  -7.575   6.066  0.00  0.00    +0.000 A 
ATOM     17  C   UNL     1       6.466  -8.048   5.003  0.00  0.00    +0.000 A 
ATOM     18  C   UNL     1       5.775  -7.136   4.203  0.00  0.00    +0.000 A 
BRANCH  15  19
ATOM     19  O   UNL     1       8.090  -5.881   7.417  0.00  0.00    +0.000 OA
ATOM     20  C   UNL     1       8.165  -4.505   7.769  0.00  0.00    +0.000 C 
ENDBRANCH  15  19
BRANCH  17  21
ATOM     21  O   UNL     1       6.308  -9.359   4.644  0.00  0.00    +0.000 OA
ATOM     22  C   UNL     1       7.002 -10.326   5.422  0.00  0.00    +0.000 C 
ENDBRANCH  17  21
ENDBRANCH   2  13
TORSDOF 6
