REMARK  Name = *****
REMARK  6 active torsions:
REMARK  status: ('A' for Active; 'I' for Inactive)
REMARK    1  A    between atoms: C_1  and  O_2
REMARK    2  A    between atoms: O_2  and  C_3
REMARK    3  A    between atoms: C_5  and  O_6
REMARK    4  A    between atoms: O_6  and  C_7
REMARK    5  A    between atoms: C_9  and  C_10
REMARK    6  A    between atoms: C_11  and  C_12
REMARK                            x       y       z     vdW  Elec       q    Type
REMARK                         _______ _______ _______ _____ _____    ______ ____
ROOT
ATOM      1  C   UNL     1       3.173  -0.322   1.000  0.00  0.00    +0.000 A 
ATOM      2  C   UNL     1       2.654  -1.241   1.916  0.00  0.00    +0.000 A 
ATOM      3  C   UNL     1       3.380  -1.570   3.063  0.00  0.00    +0.000 A 
ATOM      4  C   UNL     1       4.628  -0.981   3.287  0.00  0.00    +0.000 A 
ATOM      5  C   UNL     1       5.173  -0.074   2.371  0.00  0.00    +0.000 A 
ATOM      6  C   UNL     1       4.425   0.257   1.236  0.00  0.00    +0.000 A 
ENDROOT
BRANCH   1   8
ATOM      7  C   UNL     1       1.285  -0.448  -0.445  0.00  0.00    +0.000 C 
ATOM      8  O   UNL     1       2.566   0.094  -0.154  0.00  0.00    +0.000 OA
ENDBRANCH   1   8
BRANCH   3   9
ATOM      9  O   UNL     1       2.984  -2.443   4.042  0.00  0.00    +0.000 OA
ATOM     10  C   UNL     1       1.730  -3.090   3.867  0.00  0.00    +0.000 C 
ENDBRANCH   3   9
BRANCH   5  11
ATOM     11  C   UNL     1       6.468   0.588   2.587  0.00  0.00    +0.000 C 
ATOM     12  C   UNL     1       7.524   0.001   3.174  0.00  0.00    +0.000 C 
BRANCH  12  13
ATOM     13  C   UNL     1       8.823   0.661   3.371  0.00  0.00    +0.000 A 
ATOM     14  C   UNL     1       8.931   2.013   3.725  0.00  0.00    +0.000 A 
ATOM     15  C   UNL     1      10.183   2.596   3.935  0.00  0.00    +0.000 A 
ATOM     16  C   UNL     1      11.340   1.831   3.805  0.00  0.00    +0.000 A 
ATOM     17  C   UNL     1      11.246   0.482   3.471  0.00  0.00    +0.000 A 
ATOM     18  C   UNL     1       9.994  -0.101   3.261  0.00  0.00    +0.000 A 
ENDBRANCH  12  13
ENDBRANCH   5  11
TORSDOF 4
