REMARK  Name = *****
REMARK  6 active torsions:
REMARK  status: ('A' for Active; 'I' for Inactive)
REMARK    1  A    between atoms: C_1  and  O_2
REMARK    2  A    between atoms: O_2  and  C_3
REMARK    3  A    between atoms: C_5  and  O_6
REMARK    4  A    between atoms: C_9  and  C_10
REMARK    5  A    between atoms: C_17  and  C_18
REMARK    6  A    between atoms: C_17  and  C_19
REMARK                            x       y       z     vdW  Elec       q    Type
REMARK                         _______ _______ _______ _____ _____    ______ ____
ROOT
ATOM      1  C   UNL     1       4.124  -1.135   0.184  0.00  0.00    +0.000 C 
ATOM      2  C   UNL     1       3.893  -2.020  -0.796  0.00  0.00    +0.000 C 
ATOM      3  C   UNL     1       3.950  -3.436  -0.456  0.00  0.00    +0.000 A 
ATOM      4  C   UNL     1       3.546  -4.396  -1.388  0.00  0.00    +0.000 A 
ATOM      5  C   UNL     1       3.625  -5.752  -1.072  0.00  0.00    +0.000 A 
ATOM      6  C   UNL     1       4.114  -6.158   0.171  0.00  0.00    +0.000 A 
ATOM      7  O   UNL     1       4.156  -7.510   0.369  0.00  0.00    +0.000 OA
ATOM      8  C   UNL     1       4.578  -8.019   1.650  0.00  0.00    +0.000 C 
ATOM      9  C   UNL     1       3.373  -8.754   2.248  0.00  0.00    +0.000 C 
ATOM     10  C   UNL     1       5.702  -9.022   1.361  0.00  0.00    +0.000 C 
ATOM     11  C   UNL     1       5.074  -6.988   2.635  0.00  0.00    +0.000 C 
ATOM     12  C   UNL     1       5.057  -5.675   2.391  0.00  0.00    +0.000 C 
ATOM     13  C   UNL     1       4.532  -5.211   1.111  0.00  0.00    +0.000 A 
ATOM     14  C   UNL     1       4.437  -3.842   0.795  0.00  0.00    +0.000 A 
ATOM     15  O   UNL     1       4.881  -2.939   1.729  0.00  0.00    +0.000 OA
ATOM     16  C   UNL     1       4.453  -1.574   1.584  0.00  0.00    +0.000 C 
ENDROOT
BRANCH   1  22
ATOM     17  C   UNL     1       5.196   1.145  -0.046  0.00  0.00    +0.000 A 
ATOM     18  C   UNL     1       5.064   2.514  -0.308  0.00  0.00    +0.000 A 
ATOM     19  C   UNL     1       3.811   3.044  -0.614  0.00  0.00    +0.000 A 
ATOM     20  C   UNL     1       2.684   2.236  -0.666  0.00  0.00    +0.000 A 
ATOM     21  C   UNL     1       2.805   0.873  -0.405  0.00  0.00    +0.000 A 
ATOM     22  C   UNL     1       4.055   0.314  -0.089  0.00  0.00    +0.000 A 
BRANCH  17  24
ATOM     23  C   UNL     1       7.570   1.308   0.209  0.00  0.00    +0.000 C 
ATOM     24  O   UNL     1       6.385   0.526   0.251  0.00  0.00    +0.000 OA
ENDBRANCH  17  24
BRANCH  19  25
ATOM     25  O   UNL     1       3.644   4.373  -0.875  0.00  0.00    +0.000 OA
ATOM     26  H   UNL     1       4.381   4.951  -0.850  0.00  0.00    +0.000 HD
ENDBRANCH  19  25
ENDBRANCH   1  22
TORSDOF 3
