REMARK  Name = *****
REMARK  4 active torsions:
REMARK  status: ('A' for Active; 'I' for Inactive)
REMARK    1  A    between atoms: C_1  and  O_2
REMARK    2  A    between atoms: O_2  and  C_3
REMARK    3  A    between atoms: C_23  and  O_24
REMARK    4  A    between atoms: O_24  and  C_25
REMARK                            x       y       z     vdW  Elec       q    Type
REMARK                         _______ _______ _______ _____ _____    ______ ____
ROOT
ATOM      1  C   UNL     1       2.862  -1.002   0.740  0.00  0.00    +0.000 A 
ATOM      2  C   UNL     1       2.563  -2.335   0.449  0.00  0.00    +0.000 A 
ATOM      3  C   UNL     1       3.501  -3.343   0.692  0.00  0.00    +0.000 A 
ATOM      4  C   UNL     1       4.747  -3.037   1.245  0.00  0.00    +0.000 A 
ATOM      5  C   UNL     1       5.724  -4.100   1.498  0.00  0.00    +0.000 C 
ATOM      6  C   UNL     1       6.890  -3.826   2.110  0.00  0.00    +0.000 C 
ATOM      7  N   UNL     1       7.190  -2.535   2.558  0.00  0.00    +0.000 N 
ATOM      8  C   UNL     1       8.477  -2.227   3.186  0.00  0.00    +0.000 C 
ATOM      9  C   UNL     1       8.881  -3.351   4.138  0.00  0.00    +0.000 C 
ATOM     10  C   UNL     1       8.872  -4.673   3.411  0.00  0.00    +0.000 A 
ATOM     11  C   UNL     1       9.810  -5.663   3.753  0.00  0.00    +0.000 A 
ATOM     12  C   UNL     1       9.776  -6.847   3.055  0.00  0.00    +0.000 A 
ATOM     13  O   UNL     1      10.610  -7.904   3.240  0.00  0.00    +0.000 OA
ATOM     14  C   UNL     1      10.113  -8.819   2.242  0.00  0.00    +0.000 C 
ATOM     15  O   UNL     1       9.004  -8.294   1.483  0.00  0.00    +0.000 OA
ATOM     16  C   UNL     1       8.860  -7.068   2.057  0.00  0.00    +0.000 A 
ATOM     17  C   UNL     1       7.915  -6.124   1.707  0.00  0.00    +0.000 A 
ATOM     18  C   UNL     1       7.889  -4.903   2.405  0.00  0.00    +0.000 A 
ATOM     19  C   UNL     1       6.412  -1.361   2.132  0.00  0.00    +0.000 C 
ATOM     20  C   UNL     1       5.064  -1.706   1.548  0.00  0.00    +0.000 A 
ATOM     21  C   UNL     1       4.133  -0.689   1.258  0.00  0.00    +0.000 A 
ENDROOT
BRANCH   1  23
ATOM     22  C   UNL     1       0.648  -0.281   0.206  0.00  0.00    +0.000 C 
ATOM     23  O   UNL     1       1.986   0.038   0.562  0.00  0.00    +0.000 OA
ENDBRANCH   1  23
BRANCH  21  24
ATOM     24  O   UNL     1       4.524   0.593   1.576  0.00  0.00    +0.000 OA
ATOM     25  C   UNL     1       4.387   1.513   0.493  0.00  0.00    +0.000 C 
ENDBRANCH  21  24
TORSDOF 2
