REMARK  Name = *****
REMARK  7 active torsions:
REMARK  status: ('A' for Active; 'I' for Inactive)
REMARK    1  A    between atoms: C_1  and  O_2
REMARK    2  A    between atoms: O_2  and  C_3
REMARK    3  A    between atoms: C_9  and  O_10
REMARK    4  A    between atoms: O_10  and  C_11
REMARK    5  A    between atoms: C_14  and  O_15
REMARK    6  A    between atoms: C_19  and  O_20
REMARK    7  A    between atoms: C_21  and  C_22
REMARK                            x       y       z     vdW  Elec       q    Type
REMARK                         _______ _______ _______ _____ _____    ______ ____
ROOT
ATOM      1  C   UNL     1       3.369   0.158  -1.277  0.00  0.00    +0.000 A 
ATOM      2  C   UNL     1       4.437  -0.746  -1.392  0.00  0.00    +0.000 A 
ATOM      3  C   UNL     1       5.043  -0.996  -2.631  0.00  0.00    +0.000 A 
ATOM      4  C   UNL     1       6.170  -1.937  -2.709  0.00  0.00    +0.000 C 
ATOM      5  C   UNL     1       6.439  -2.734  -3.757  0.00  0.00    +0.000 C 
ATOM      6  C   UNL     1       5.653  -2.817  -5.007  0.00  0.00    +0.000 A 
ATOM      7  C   UNL     1       5.540  -4.042  -5.703  0.00  0.00    +0.000 A 
ATOM      8  C   UNL     1       4.811  -4.100  -6.901  0.00  0.00    +0.000 A 
ATOM      9  C   UNL     1       4.197  -2.957  -7.424  0.00  0.00    +0.000 A 
ATOM     10  C   UNL     1       4.318  -1.749  -6.751  0.00  0.00    +0.000 A 
ATOM     11  C   UNL     1       5.037  -1.679  -5.554  0.00  0.00    +0.000 A 
ATOM     12  O   UNL     1       5.170  -0.433  -4.983  0.00  0.00    +0.000 OA
ATOM     13  C   UNL     1       4.568  -0.313  -3.752  0.00  0.00    +0.000 A 
ATOM     14  C   UNL     1       3.502   0.586  -3.648  0.00  0.00    +0.000 A 
ATOM     15  C   UNL     1       2.897   0.845  -2.415  0.00  0.00    +0.000 A 
ATOM     16  C   UNL     1       1.732   1.791  -2.309  0.00  0.00    +0.000 C 
ENDROOT
BRANCH   1  18
ATOM     17  C   UNL     1       3.174  -0.203   1.079  0.00  0.00    +0.000 C 
ATOM     18  O   UNL     1       2.712   0.436  -0.103  0.00  0.00    +0.000 OA
ENDBRANCH   1  18
BRANCH   7  19
ATOM     19  O   UNL     1       6.170  -5.125  -5.137  0.00  0.00    +0.000 OA
ATOM     20  C   UNL     1       6.024  -6.386  -5.776  0.00  0.00    +0.000 C 
ENDBRANCH   7  19
BRANCH  10  21
ATOM     21  O   UNL     1       3.727  -0.613  -7.235  0.00  0.00    +0.000 OA
ATOM     22  H   UNL     1       3.242  -0.642  -8.036  0.00  0.00    +0.000 HD
ENDBRANCH  10  21
BRANCH  14  23
ATOM     23  O   UNL     1       3.034   1.205  -4.780  0.00  0.00    +0.000 OA
ATOM     24  H   UNL     1       3.437   1.034  -5.609  0.00  0.00    +0.000 HD
ENDBRANCH  14  23
TORSDOF 4
