REMARK  Name = *****
REMARK  0 active torsions:
REMARK  status: ('A' for Active; 'I' for Inactive)
REMARK                            x       y       z     vdW  Elec       q    Type
REMARK                         _______ _______ _______ _____ _____    ______ ____
ROOT
ATOM      1  C   UNL     1      -5.339  -1.047   0.297  0.00  0.00    +0.000 C 
ATOM      2  O   UNL     1      -5.097   0.320  -0.097  0.00  0.00    +0.000 OA
ATOM      3  C   UNL     1      -3.738   0.355  -0.073  0.00  0.00    +0.000 A 
ATOM      4  C   UNL     1      -2.955   1.447  -0.363  0.00  0.00    +0.000 A 
ATOM      5  C   UNL     1      -1.561   1.298  -0.270  0.00  0.00    +0.000 A 
ATOM      6  C   UNL     1      -0.662   2.474  -0.563  0.00  0.00    +0.000 C 
ATOM      7  C   UNL     1       0.576   2.423   0.330  0.00  0.00    +0.000 C 
ATOM      8  N   UNL     1       1.251   1.130   0.183  0.00  0.00    +0.000 N 
ATOM      9  C   UNL     1       2.687   1.143   0.504  0.00  0.00    +0.000 C 
ATOM     10  C   UNL     1       3.355  -0.176   0.251  0.00  0.00    +0.000 A 
ATOM     11  C   UNL     1       2.602  -1.343   0.036  0.00  0.00    +0.000 A 
ATOM     12  C   UNL     1       1.138  -1.259   0.028  0.00  0.00    +0.000 C 
ATOM     13  C   UNL     1       0.521  -0.065   0.116  0.00  0.00    +0.000 C 
ATOM     14  C   UNL     1      -0.972   0.045   0.071  0.00  0.00    +0.000 A 
ATOM     15  C   UNL     1      -1.822  -1.033   0.381  0.00  0.00    +0.000 A 
ATOM     16  C   UNL     1      -3.187  -0.848   0.295  0.00  0.00    +0.000 A 
ATOM     17  O   UNL     1      -4.131  -1.793   0.553  0.00  0.00    +0.000 OA
ATOM     18  C   UNL     1       3.248  -2.582  -0.163  0.00  0.00    +0.000 A 
ATOM     19  C   UNL     1       4.643  -2.671  -0.149  0.00  0.00    +0.000 A 
ATOM     20  C   UNL     1       5.356  -1.513   0.071  0.00  0.00    +0.000 A 
ATOM     21  O   UNL     1       6.712  -1.419   0.125  0.00  0.00    +0.000 OA
ATOM     22  C   UNL     1       6.876  -0.009   0.376  0.00  0.00    +0.000 C 
ATOM     23  O   UNL     1       5.627   0.705   0.479  0.00  0.00    +0.000 OA
ATOM     24  C   UNL     1       4.733  -0.302   0.268  0.00  0.00    +0.000 A 
ENDROOT
TORSDOF 0
