REMARK  Name = *****
REMARK  7 active torsions:
REMARK  status: ('A' for Active; 'I' for Inactive)
REMARK    1  A    between atoms: C_1  and  O_2
REMARK    2  A    between atoms: O_2  and  C_3
REMARK    3  A    between atoms: C_7  and  C_8
REMARK    4  A    between atoms: C_7  and  C_9
REMARK    5  A    between atoms: C_16  and  C_19
REMARK    6  A    between atoms: C_22  and  O_23
REMARK    7  A    between atoms: C_25  and  O_26
REMARK                            x       y       z     vdW  Elec       q    Type
REMARK                         _______ _______ _______ _____ _____    ______ ____
ROOT
ATOM      1  C   UNL     1       3.189   0.968  -0.646  0.00  0.00    +0.000 A 
ATOM      2  C   UNL     1       2.795   2.291  -0.932  0.00  0.00    +0.000 A 
ATOM      3  C   UNL     1       1.732   2.967  -0.194  0.00  0.00    +0.000 C 
ATOM      4  C   UNL     1       1.342   4.176  -0.607  0.00  0.00    +0.000 C 
ATOM      5  C   UNL     1       1.957   4.880  -1.793  0.00  0.00    +0.000 C 
ATOM      6  C   UNL     1       0.940   4.940  -2.939  0.00  0.00    +0.000 C 
ATOM      7  C   UNL     1       2.357   6.302  -1.384  0.00  0.00    +0.000 C 
ATOM      8  O   UNL     1       3.153   4.270  -2.319  0.00  0.00    +0.000 OA
ATOM      9  C   UNL     1       3.461   2.992  -1.942  0.00  0.00    +0.000 A 
ATOM     10  C   UNL     1       4.527   2.406  -2.625  0.00  0.00    +0.000 A 
ATOM     11  C   UNL     1       4.950   1.122  -2.290  0.00  0.00    +0.000 A 
ATOM     12  O   UNL     1       5.993   0.615  -3.021  0.00  0.00    +0.000 OA
ATOM     13  C   UNL     1       6.753  -0.414  -2.359  0.00  0.00    +0.000 C 
ATOM     14  C   UNL     1       5.927  -1.372  -1.538  0.00  0.00    +0.000 C 
ATOM     15  C   UNL     1       4.756  -0.974  -1.014  0.00  0.00    +0.000 C 
ATOM     16  C   UNL     1       4.292   0.386  -1.298  0.00  0.00    +0.000 A 
ENDROOT
BRANCH  14  17
ATOM     17  C   UNL     1       6.453  -2.736  -1.298  0.00  0.00    +0.000 A 
ATOM     18  C   UNL     1       5.597  -3.842  -1.458  0.00  0.00    +0.000 A 
ATOM     19  C   UNL     1       6.055  -5.149  -1.261  0.00  0.00    +0.000 A 
ATOM     20  C   UNL     1       7.381  -5.359  -0.905  0.00  0.00    +0.000 A 
ATOM     21  C   UNL     1       8.254  -4.290  -0.746  0.00  0.00    +0.000 A 
ATOM     22  C   UNL     1       7.790  -2.987  -0.944  0.00  0.00    +0.000 A 
BRANCH  20  23
ATOM     23  O   UNL     1       7.873  -6.615  -0.704  0.00  0.00    +0.000 OA
ATOM     24  H   UNL     1       7.312  -7.359  -0.804  0.00  0.00    +0.000 HD
ENDBRANCH  20  23
BRANCH  22  25
ATOM     25  O   UNL     1       8.658  -1.942  -0.772  0.00  0.00    +0.000 OA
ATOM     26  H   UNL     1       8.363  -1.062  -0.901  0.00  0.00    +0.000 HD
ENDBRANCH  22  25
ENDBRANCH  14  17
BRANCH   1  28
ATOM     27  C   UNL     1       1.405  -0.431  -0.250  0.00  0.00    +0.000 C 
ATOM     28  O   UNL     1       2.523   0.251   0.326  0.00  0.00    +0.000 OA
ENDBRANCH   1  28
TORSDOF 4
