REMARK  Name = *****
REMARK  7 active torsions:
REMARK  status: ('A' for Active; 'I' for Inactive)
REMARK    1  A    between atoms: C_1  and  O_2
REMARK    2  A    between atoms: O_2  and  C_3
REMARK    3  A    between atoms: C_5  and  C_6
REMARK    4  A    between atoms: C_11  and  O_12
REMARK    5  A    between atoms: C_17  and  O_18
REMARK    6  A    between atoms: O_18  and  C_19
REMARK    7  A    between atoms: C_21  and  O_22
REMARK                            x       y       z     vdW  Elec       q    Type
REMARK                         _______ _______ _______ _____ _____    ______ ____
ROOT
ATOM      1  C   UNL     1       2.624   1.303   0.073  0.00  0.00    +0.000 A 
ATOM      2  C   UNL     1       1.759   2.382   0.293  0.00  0.00    +0.000 A 
ATOM      3  C   UNL     1       2.247   3.632   0.721  0.00  0.00    +0.000 A 
ATOM      4  C   UNL     1       3.630   3.778   0.912  0.00  0.00    +0.000 A 
ATOM      5  C   UNL     1       4.503   2.705   0.721  0.00  0.00    +0.000 A 
ATOM      6  C   UNL     1       3.996   1.480   0.295  0.00  0.00    +0.000 A 
ENDROOT
BRANCH   3   7
ATOM      7  C   UNL     1       1.291   4.731   0.976  0.00  0.00    +0.000 C 
ATOM      8  C   UNL     1       0.419   5.119   0.033  0.00  0.00    +0.000 C 
ATOM      9  C   UNL     1      -0.489   6.212   0.362  0.00  0.00    +0.000 A 
ATOM     10  C   UNL     1      -1.284   6.811  -0.621  0.00  0.00    +0.000 A 
ATOM     11  C   UNL     1      -2.181   7.827  -0.277  0.00  0.00    +0.000 A 
ATOM     12  C   UNL     1      -2.285   8.228   1.052  0.00  0.00    +0.000 A 
ATOM     13  C   UNL     1      -1.507   7.637   2.040  0.00  0.00    +0.000 A 
ATOM     14  C   UNL     1      -0.600   6.638   1.692  0.00  0.00    +0.000 A 
ATOM     15  O   UNL     1       0.118   6.071   2.711  0.00  0.00    +0.000 OA
ATOM     16  C   UNL     1       1.343   5.425   2.316  0.00  0.00    +0.000 C 
BRANCH  12  17
ATOM     17  O   UNL     1      -3.154   9.209   1.430  0.00  0.00    +0.000 OA
ATOM     18  H   UNL     1      -3.694   9.629   0.789  0.00  0.00    +0.000 HD
ENDBRANCH  12  17
ENDBRANCH   3   7
BRANCH   1  20
ATOM     19  C   UNL     1       0.844  -0.179  -0.503  0.00  0.00    +0.000 C 
ATOM     20  O   UNL     1       2.235   0.056  -0.343  0.00  0.00    +0.000 OA
ENDBRANCH   1  20
BRANCH   4  21
ATOM     21  O   UNL     1       4.166   4.966   1.343  0.00  0.00    +0.000 OA
ATOM     22  C   UNL     1       4.569   5.757   0.223  0.00  0.00    +0.000 C 
ENDBRANCH   4  21
BRANCH   6  23
ATOM     23  O   UNL     1       4.847   0.426   0.093  0.00  0.00    +0.000 OA
ATOM     24  H   UNL     1       4.511  -0.400  -0.194  0.00  0.00    +0.000 HD
ENDBRANCH   6  23
TORSDOF 5
