REMARK  Name = *****
REMARK  8 active torsions:
REMARK  status: ('A' for Active; 'I' for Inactive)
REMARK    1  A    between atoms: C_1  and  O_2
REMARK    2  A    between atoms: O_2  and  C_3
REMARK    3  A    between atoms: C_6  and  C_7
REMARK    4  A    between atoms: C_8  and  C_9
REMARK    5  A    between atoms: C_11  and  O_12
REMARK    6  A    between atoms: O_12  and  C_13
REMARK    7  A    between atoms: C_15  and  O_16
REMARK    8  A    between atoms: O_16  and  C_17
REMARK                            x       y       z     vdW  Elec       q    Type
REMARK                         _______ _______ _______ _____ _____    ______ ____
ROOT
ATOM      1  C   UNL     1       5.180   2.641   4.093  0.00  0.00    +0.000 C 
ATOM      2  C   UNL     1       4.748   2.796   5.355  0.00  0.00    +0.000 C 
ENDROOT
BRANCH   1   6
ATOM      3  C   UNL     1       3.099   0.521   0.996  0.00  0.00    +0.000 A 
ATOM      4  C   UNL     1       2.377   1.253   1.938  0.00  0.00    +0.000 A 
ATOM      5  C   UNL     1       3.045   1.943   2.958  0.00  0.00    +0.000 A 
ATOM      6  C   UNL     1       4.442   1.903   3.058  0.00  0.00    +0.000 A 
ATOM      7  C   UNL     1       5.160   1.181   2.099  0.00  0.00    +0.000 A 
ATOM      8  C   UNL     1       4.492   0.492   1.081  0.00  0.00    +0.000 A 
BRANCH   3  10
ATOM      9  C   UNL     1       1.157  -0.221  -0.155  0.00  0.00    +0.000 C 
ATOM     10  O   UNL     1       2.574  -0.194  -0.044  0.00  0.00    +0.000 OA
ENDBRANCH   3  10
ENDBRANCH   1   6
BRANCH   2  11
ATOM     11  C   UNL     1       5.495   3.521   6.395  0.00  0.00    +0.000 A 
ATOM     12  C   UNL     1       6.203   4.701   6.122  0.00  0.00    +0.000 A 
ATOM     13  C   UNL     1       6.874   5.376   7.144  0.00  0.00    +0.000 A 
ATOM     14  C   UNL     1       6.825   4.880   8.451  0.00  0.00    +0.000 A 
ATOM     15  C   UNL     1       6.110   3.719   8.743  0.00  0.00    +0.000 A 
ATOM     16  C   UNL     1       5.446   3.049   7.712  0.00  0.00    +0.000 A 
BRANCH  13  17
ATOM     17  O   UNL     1       7.601   6.528   7.002  0.00  0.00    +0.000 OA
ATOM     18  C   UNL     1       7.710   7.066   5.690  0.00  0.00    +0.000 C 
ENDBRANCH  13  17
BRANCH  15  19
ATOM     19  O   UNL     1       5.981   3.142   9.976  0.00  0.00    +0.000 OA
ATOM     20  C   UNL     1       6.633   3.791  11.061  0.00  0.00    +0.000 C 
ENDBRANCH  15  19
ENDBRANCH   2  11
TORSDOF 5
