REMARK  Name = *****
REMARK  4 active torsions:
REMARK  status: ('A' for Active; 'I' for Inactive)
REMARK    1  A    between atoms: C_1  and  O_2
REMARK    2  A    between atoms: O_2  and  C_3
REMARK    3  A    between atoms: C_12  and  O_13
REMARK    4  A    between atoms: O_13  and  C_14
REMARK                            x       y       z     vdW  Elec       q    Type
REMARK                         _______ _______ _______ _____ _____    ______ ____
ROOT
ATOM      1  C   UNL     1       8.455   5.390   2.523  0.00  0.00    +0.000 A 
ATOM      2  C   UNL     1       7.524   6.420   2.669  0.00  0.00    +0.000 A 
ATOM      3  C   UNL     1       6.666   6.450   3.772  0.00  0.00    +0.000 A 
ATOM      4  C   UNL     1       6.718   5.446   4.744  0.00  0.00    +0.000 A 
ATOM      5  C   UNL     1       5.807   5.480   5.889  0.00  0.00    +0.000 C 
ATOM      6  C   UNL     1       5.856   4.534   6.847  0.00  0.00    +0.000 C 
ATOM      7  N   UNL     1       6.776   3.466   6.790  0.00  0.00    +0.000 N 
ATOM      8  C   UNL     1       7.701   3.306   5.644  0.00  0.00    +0.000 C 
ATOM      9  C   UNL     1       7.646   4.410   4.619  0.00  0.00    +0.000 A 
ATOM     10  C   UNL     1       8.530   4.400   3.521  0.00  0.00    +0.000 A 
ATOM     11  C   UNL     1       6.819   2.510   7.797  0.00  0.00    +0.000 C 
ATOM     12  C   UNL     1       6.037   2.492   8.880  0.00  0.00    +0.000 C 
ATOM     13  C   UNL     1       5.044   3.555   9.032  0.00  0.00    +0.000 C 
ATOM     14  C   UNL     1       4.214   3.542  10.166  0.00  0.00    +0.000 C 
ATOM     15  C   UNL     1       3.282   4.544  10.294  0.00  0.00    +0.000 C 
ATOM     16  O   UNL     1       2.401   4.688  11.319  0.00  0.00    +0.000 OA
ATOM     17  C   UNL     1       1.704   5.883  10.911  0.00  0.00    +0.000 C 
ATOM     18  O   UNL     1       2.178   6.425   9.661  0.00  0.00    +0.000 OA
ATOM     19  C   UNL     1       3.157   5.531   9.350  0.00  0.00    +0.000 C 
ATOM     20  C   UNL     1       3.955   5.576   8.224  0.00  0.00    +0.000 C 
ATOM     21  C   UNL     1       4.931   4.576   8.038  0.00  0.00    +0.000 C 
ENDROOT
BRANCH   1  23
ATOM     22  C   UNL     1       9.146   6.175   0.375  0.00  0.00    +0.000 C 
ATOM     23  O   UNL     1       9.303   5.264   1.455  0.00  0.00    +0.000 OA
ENDBRANCH   1  23
BRANCH  10  24
ATOM     24  O   UNL     1       9.400   3.334   3.459  0.00  0.00    +0.000 OA
ATOM     25  C   UNL     1      10.765   3.728   3.326  0.00  0.00    +0.000 C 
ENDBRANCH  10  24
TORSDOF 2
