REMARK  Name = *****
REMARK  6 active torsions:
REMARK  status: ('A' for Active; 'I' for Inactive)
REMARK    1  A    between atoms: C_1  and  O_2
REMARK    2  A    between atoms: O_2  and  C_3
REMARK    3  A    between atoms: C_5  and  C_6
REMARK    4  A    between atoms: C_18  and  O_19
REMARK    5  A    between atoms: O_19  and  C_20
REMARK    6  A    between atoms: C_21  and  O_22
REMARK                            x       y       z     vdW  Elec       q    Type
REMARK                         _______ _______ _______ _____ _____    ______ ____
ROOT
ATOM      1  C   UNL     1       3.167   1.191  -0.184  0.00  0.00    +0.000 A 
ATOM      2  C   UNL     1       2.517   2.421  -0.062  0.00  0.00    +0.000 A 
ATOM      3  C   UNL     1       3.256   3.610   0.033  0.00  0.00    +0.000 A 
ATOM      4  C   UNL     1       4.656   3.579  -0.001  0.00  0.00    +0.000 A 
ATOM      5  C   UNL     1       5.320   2.359  -0.124  0.00  0.00    +0.000 A 
ATOM      6  C   UNL     1       4.566   1.179  -0.215  0.00  0.00    +0.000 A 
ENDROOT
BRANCH   3   7
ATOM      7  C   UNL     1       2.551   4.885   0.189  0.00  0.00    +0.000 C 
ATOM      8  C   UNL     1       2.284   5.459   1.372  0.00  0.00    +0.000 C 
ATOM      9  C   UNL     1       2.655   4.940   2.741  0.00  0.00    +0.000 C 
ATOM     10  O   UNL     1       3.279   3.939   3.031  0.00  0.00    +0.000 OA
ATOM     11  N   UNL     1       2.131   5.870   3.626  0.00  0.00    +0.000 N 
ATOM     12  C   UNL     1       1.487   6.905   2.957  0.00  0.00    +0.000 A 
ATOM     13  C   UNL     1       0.858   7.992   3.528  0.00  0.00    +0.000 A 
ATOM     14  C   UNL     1       0.272   8.919   2.664  0.00  0.00    +0.000 A 
ATOM     15  C   UNL     1       0.330   8.740   1.269  0.00  0.00    +0.000 A 
ATOM     16  C   UNL     1       0.974   7.628   0.712  0.00  0.00    +0.000 A 
ATOM     17  C   UNL     1       1.551   6.713   1.573  0.00  0.00    +0.000 A 
ATOM     18  H   UNL     1       2.206   5.805   4.606  0.00  0.00    +0.000 HD
ENDBRANCH   3   7
BRANCH   1  20
ATOM     19  C   UNL     1       1.131  -0.046  -0.121  0.00  0.00    +0.000 C 
ATOM     20  O   UNL     1       2.542  -0.024  -0.281  0.00  0.00    +0.000 OA
ENDBRANCH   1  20
BRANCH   5  21
ATOM     21  O   UNL     1       6.681   2.182  -0.165  0.00  0.00    +0.000 OA
ATOM     22  C   UNL     1       7.480   3.351  -0.031  0.00  0.00    +0.000 C 
ENDBRANCH   5  21
BRANCH   6  23
ATOM     23  O   UNL     1       5.233  -0.020  -0.330  0.00  0.00    +0.000 OA
ATOM     24  H   UNL     1       4.750  -0.820  -0.392  0.00  0.00    +0.000 HD
ENDBRANCH   6  23
TORSDOF 4
