REMARK  Name = *****
REMARK  3 active torsions:
REMARK  status: ('A' for Active; 'I' for Inactive)
REMARK    1  A    between atoms: C_1  and  O_2
REMARK    2  A    between atoms: O_2  and  C_3
REMARK    3  A    between atoms: C_8  and  C_9
REMARK                            x       y       z     vdW  Elec       q    Type
REMARK                         _______ _______ _______ _____ _____    ______ ____
ROOT
ATOM      1  C   UNL     1       2.981   0.891  -0.900  0.00  0.00    +0.000 A 
ATOM      2  C   UNL     1       2.466   2.182  -1.110  0.00  0.00    +0.000 A 
ATOM      3  C   UNL     1       3.129   3.093  -1.946  0.00  0.00    +0.000 A 
ATOM      4  C   UNL     1       4.302   2.688  -2.558  0.00  0.00    +0.000 A 
ATOM      5  C   UNL     1       5.242   3.313  -3.455  0.00  0.00    +0.000 C 
ATOM      6  C   UNL     1       5.134   4.560  -3.938  0.00  0.00    +0.000 C 
ATOM      7  C   UNL     1       6.304   2.298  -3.730  0.00  0.00    +0.000 C 
ATOM      8  O   UNL     1       7.287   2.417  -4.439  0.00  0.00    +0.000 OA
ATOM      9  O   UNL     1       5.988   1.139  -3.021  0.00  0.00    +0.000 OA
ATOM     10  C   UNL     1       4.805   1.418  -2.350  0.00  0.00    +0.000 A 
ATOM     11  C   UNL     1       4.168   0.504  -1.530  0.00  0.00    +0.000 A 
ENDROOT
BRANCH   6  12
ATOM     12  C   UNL     1       6.069   5.225  -4.850  0.00  0.00    +0.000 A 
ATOM     13  C   UNL     1       5.623   5.624  -6.116  0.00  0.00    +0.000 A 
ATOM     14  C   UNL     1       6.484   6.293  -6.988  0.00  0.00    +0.000 A 
ATOM     15  C   UNL     1       7.792   6.575  -6.598  0.00  0.00    +0.000 A 
ATOM     16  C   UNL     1       8.240   6.190  -5.336  0.00  0.00    +0.000 A 
ATOM     17  C   UNL     1       7.380   5.521  -4.462  0.00  0.00    +0.000 A 
ENDBRANCH   6  12
BRANCH   1  19
ATOM     18  C   UNL     1       1.211   0.260   0.561  0.00  0.00    +0.000 C 
ATOM     19  O   UNL     1       2.419  -0.075  -0.110  0.00  0.00    +0.000 OA
ENDBRANCH   1  19
TORSDOF 2
