REMARK  Name = *****
REMARK  8 active torsions:
REMARK  status: ('A' for Active; 'I' for Inactive)
REMARK    1  A    between atoms: C_1  and  O_2
REMARK    2  A    between atoms: O_2  and  C_3
REMARK    3  A    between atoms: C_6  and  C_9
REMARK    4  A    between atoms: C_10  and  C_18
REMARK    5  A    between atoms: C_21  and  O_22
REMARK    6  A    between atoms: O_22  and  C_23
REMARK    7  A    between atoms: C_24  and  O_25
REMARK    8  A    between atoms: O_25  and  C_26
REMARK                            x       y       z     vdW  Elec       q    Type
REMARK                         _______ _______ _______ _____ _____    ______ ____
ROOT
ATOM      1  C   UNL     1       5.055   3.902  -3.173  0.00  0.00    +0.000 C 
ATOM      2  C   UNL     1       5.666   4.971  -2.610  0.00  0.00    +0.000 C 
ATOM      3  C   UNL     1       6.338   5.990  -3.512  0.00  0.00    +0.000 C 
ATOM      4  N   UNL     1       5.602   6.287  -4.746  0.00  0.00    +0.000 N 
ATOM      5  C   UNL     1       4.522   7.257  -4.534  0.00  0.00    +0.000 C 
ATOM      6  C   UNL     1       3.570   6.985  -5.679  0.00  0.00    +0.000 C 
ATOM      7  C   UNL     1       3.573   5.472  -5.730  0.00  0.00    +0.000 C 
ATOM      8  C   UNL     1       5.029   5.099  -5.417  0.00  0.00    +0.000 C 
ATOM      9  C   UNL     1       5.134   3.751  -4.677  0.00  0.00    +0.000 C 
ATOM     10  H   UNL     1       6.317   6.682  -5.357  0.00  0.00    +0.000 HD
ENDROOT
BRANCH   1  14
ATOM     11  C   UNL     1       2.977   0.798  -1.058  0.00  0.00    +0.000 A 
ATOM     12  C   UNL     1       2.575   2.126  -0.926  0.00  0.00    +0.000 A 
ATOM     13  C   UNL     1       3.253   3.138  -1.616  0.00  0.00    +0.000 A 
ATOM     14  C   UNL     1       4.345   2.838  -2.440  0.00  0.00    +0.000 A 
ATOM     15  C   UNL     1       4.738   1.502  -2.574  0.00  0.00    +0.000 A 
ATOM     16  C   UNL     1       4.059   0.493  -1.885  0.00  0.00    +0.000 A 
BRANCH  11  18
ATOM     17  C   UNL     1       1.298  -0.021   0.411  0.00  0.00    +0.000 C 
ATOM     18  O   UNL     1       2.405  -0.282  -0.442  0.00  0.00    +0.000 OA
ENDBRANCH  11  18
ENDBRANCH   1  14
BRANCH   2  19
ATOM     19  C   UNL     1       5.752   5.217  -1.158  0.00  0.00    +0.000 A 
ATOM     20  C   UNL     1       6.404   4.311  -0.318  0.00  0.00    +0.000 A 
ATOM     21  C   UNL     1       6.497   4.550   1.057  0.00  0.00    +0.000 A 
ATOM     22  C   UNL     1       5.939   5.702   1.627  0.00  0.00    +0.000 A 
ATOM     23  C   UNL     1       5.259   6.604   0.790  0.00  0.00    +0.000 A 
ATOM     24  C   UNL     1       5.192   6.366  -0.591  0.00  0.00    +0.000 A 
BRANCH  22  25
ATOM     25  O   UNL     1       6.039   6.013   2.956  0.00  0.00    +0.000 OA
ATOM     26  C   UNL     1       6.801   5.149   3.789  0.00  0.00    +0.000 C 
ENDBRANCH  22  25
BRANCH  23  27
ATOM     27  O   UNL     1       4.660   7.782   1.161  0.00  0.00    +0.000 OA
ATOM     28  C   UNL     1       4.052   7.804   2.447  0.00  0.00    +0.000 C 
ENDBRANCH  23  27
ENDBRANCH   2  19
TORSDOF 5
