REMARK  Name = *****
REMARK  9 active torsions:
REMARK  status: ('A' for Active; 'I' for Inactive)
REMARK    1  A    between atoms: C_1  and  O_2
REMARK    2  A    between atoms: O_2  and  C_3
REMARK    3  A    between atoms: C_5  and  C_6
REMARK    4  A    between atoms: C_7  and  C_8
REMARK    5  A    between atoms: C_10  and  O_11
REMARK    6  A    between atoms: O_11  and  C_12
REMARK    7  A    between atoms: C_16  and  C_17
REMARK    8  A    between atoms: C_16  and  C_18
REMARK    9  A    between atoms: C_24  and  O_25
REMARK                            x       y       z     vdW  Elec       q    Type
REMARK                         _______ _______ _______ _____ _____    ______ ____
ROOT
ATOM      1  C   UNL     1      -4.548  11.096   2.370  0.00  0.00    +0.000 A 
ATOM      2  C   UNL     1      -4.900  12.198   1.584  0.00  0.00    +0.000 A 
ATOM      3  C   UNL     1      -4.149  12.527   0.449  0.00  0.00    +0.000 A 
ATOM      4  C   UNL     1      -3.051  11.746   0.062  0.00  0.00    +0.000 A 
ATOM      5  C   UNL     1      -2.280  12.033  -1.141  0.00  0.00    +0.000 C 
ATOM      6  C   UNL     1      -1.207  11.280  -1.400  0.00  0.00    +0.000 C 
ATOM      7  C   UNL     1      -0.758  10.145  -0.510  0.00  0.00    +0.000 C 
ATOM      8  C   UNL     1      -0.662   8.860  -1.340  0.00  0.00    +0.000 C 
ATOM      9  C   UNL     1       0.616  10.479   0.084  0.00  0.00    +0.000 C 
ATOM     10  O   UNL     1      -1.625   9.840   0.601  0.00  0.00    +0.000 OA
ATOM     11  C   UNL     1      -2.686  10.662   0.862  0.00  0.00    +0.000 A 
ATOM     12  C   UNL     1      -3.424  10.344   2.008  0.00  0.00    +0.000 A 
ENDROOT
BRANCH   1  14
ATOM     13  C   UNL     1      -5.631   9.555   3.982  0.00  0.00    +0.000 C 
ATOM     14  C   UNL     1      -5.337  10.799   3.574  0.00  0.00    +0.000 C 
BRANCH  13  17
ATOM     15  C   UNL     1      -8.314   9.668   6.667  0.00  0.00    +0.000 A 
ATOM     16  C   UNL     1      -7.570   9.988   5.525  0.00  0.00    +0.000 A 
ATOM     17  C   UNL     1      -6.418   9.259   5.189  0.00  0.00    +0.000 A 
ATOM     18  C   UNL     1      -6.032   8.181   5.994  0.00  0.00    +0.000 A 
ATOM     19  C   UNL     1      -6.765   7.850   7.135  0.00  0.00    +0.000 A 
ATOM     20  C   UNL     1      -7.896   8.595   7.465  0.00  0.00    +0.000 A 
BRANCH  15  22
ATOM     21  C   UNL     1      -9.892  11.418   6.293  0.00  0.00    +0.000 C 
ATOM     22  O   UNL     1      -9.445  10.324   7.079  0.00  0.00    +0.000 OA
ENDBRANCH  15  22
BRANCH  20  23
ATOM     23  O   UNL     1      -8.617   8.273   8.585  0.00  0.00    +0.000 OA
ATOM     24  H   UNL     1      -9.378   8.771   8.811  0.00  0.00    +0.000 HD
ENDBRANCH  20  23
ENDBRANCH  13  17
ENDBRANCH   1  14
BRANCH   3  25
ATOM     25  O   UNL     1      -4.541  13.590  -0.329  0.00  0.00    +0.000 OA
ATOM     26  C   UNL     1      -4.248  14.826   0.324  0.00  0.00    +0.000 C 
ENDBRANCH   3  25
TORSDOF 5
