REMARK  Name = *****
REMARK  8 active torsions:
REMARK  status: ('A' for Active; 'I' for Inactive)
REMARK    1  A    between atoms: C_1  and  O_2
REMARK    2  A    between atoms: O_2  and  C_3
REMARK    3  A    between atoms: C_12  and  O_13
REMARK    4  A    between atoms: O_13  and  C_14
REMARK    5  A    between atoms: C_15  and  O_16
REMARK    6  A    between atoms: O_16  and  C_17
REMARK    7  A    between atoms: C_24  and  O_25
REMARK    8  A    between atoms: O_25  and  C_26
REMARK                            x       y       z     vdW  Elec       q    Type
REMARK                         _______ _______ _______ _____ _____    ______ ____
ROOT
ATOM      1  C   UNL     1       3.145  -2.112  -0.592  0.00  0.00    +0.000 A 
ATOM      2  C   UNL     1       2.865  -1.128  -1.537  0.00  0.00    +0.000 A 
ATOM      3  C   UNL     1       2.234  -1.471  -2.743  0.00  0.00    +0.000 A 
ATOM      4  C   UNL     1       1.902  -0.399  -3.751  0.00  0.00    +0.000 C 
ATOM      5  C   UNL     1       0.598  -0.744  -4.468  0.00  0.00    +0.000 C 
ATOM      6  N   UNL     1       0.680  -2.085  -5.051  0.00  0.00    +0.000 N 
ATOM      7  C   UNL     1      -0.246  -2.337  -6.162  0.00  0.00    +0.000 C 
ATOM      8  C   UNL     1      -0.018  -3.673  -6.826  0.00  0.00    +0.000 A 
ATOM      9  C   UNL     1      -0.584  -3.943  -8.085  0.00  0.00    +0.000 A 
ATOM     10  C   UNL     1      -0.413  -5.190  -8.703  0.00  0.00    +0.000 A 
ATOM     11  C   UNL     1       0.292  -6.193  -8.019  0.00  0.00    +0.000 A 
ATOM     12  C   UNL     1       0.871  -5.919  -6.773  0.00  0.00    +0.000 A 
ATOM     13  C   UNL     1       0.716  -4.668  -6.170  0.00  0.00    +0.000 A 
ATOM     14  C   UNL     1       1.314  -4.387  -4.861  0.00  0.00    +0.000 C 
ATOM     15  C   UNL     1       1.272  -3.143  -4.346  0.00  0.00    +0.000 C 
ATOM     16  C   UNL     1       1.921  -2.817  -3.037  0.00  0.00    +0.000 A 
ATOM     17  C   UNL     1       2.217  -3.789  -2.066  0.00  0.00    +0.000 A 
ATOM     18  C   UNL     1       2.856  -3.450  -0.868  0.00  0.00    +0.000 A 
ENDROOT
BRANCH   1  20
ATOM     19  C   UNL     1       2.733  -1.619   1.607  0.00  0.00    +0.000 C 
ATOM     20  O   UNL     1       3.725  -1.709   0.582  0.00  0.00    +0.000 OA
ENDBRANCH   1  20
BRANCH  10  21
ATOM     21  O   UNL     1      -0.902  -5.487  -9.948  0.00  0.00    +0.000 OA
ATOM     22  C   UNL     1      -1.275  -4.398 -10.782  0.00  0.00    +0.000 C 
ENDBRANCH  10  21
BRANCH  11  23
ATOM     23  O   UNL     1       0.551  -7.461  -8.479  0.00  0.00    +0.000 OA
ATOM     24  C   UNL     1      -0.523  -8.095  -9.166  0.00  0.00    +0.000 C 
ENDBRANCH  11  23
BRANCH  18  25
ATOM     25  O   UNL     1       3.106  -4.490  -0.011  0.00  0.00    +0.000 OA
ATOM     26  C   UNL     1       4.469  -4.543   0.410  0.00  0.00    +0.000 C 
ENDBRANCH  18  25
TORSDOF 4
