REMARK  Name = *****
REMARK  2 active torsions:
REMARK  status: ('A' for Active; 'I' for Inactive)
REMARK    1  A    between atoms: C_2  and  C_3
REMARK    2  A    between atoms: C_11  and  C_12
REMARK                            x       y       z     vdW  Elec       q    Type
REMARK                         _______ _______ _______ _____ _____    ______ ____
ROOT
ATOM      1  C   UNL     1       4.598   1.131   1.459  0.00  0.00    +0.000 C 
ATOM      2  C   UNL     1       5.880   1.548   1.472  0.00  0.00    +0.000 C 
ATOM      3  N   UNL     1       6.946   0.699   1.723  0.00  0.00    +0.000 N 
ATOM      4  C   UNL     1       8.310   1.151   1.911  0.00  0.00    +0.000 C 
ATOM      5  C   UNL     1       8.644   2.209   0.863  0.00  0.00    +0.000 C 
ATOM      6  C   UNL     1       7.598   3.301   0.868  0.00  0.00    +0.000 A 
ATOM      7  C   UNL     1       7.980   4.616   0.547  0.00  0.00    +0.000 A 
ATOM      8  C   UNL     1       7.012   5.591   0.570  0.00  0.00    +0.000 A 
ATOM      9  O   UNL     1       7.202   6.910   0.304  0.00  0.00    +0.000 OA
ATOM     10  C   UNL     1       5.867   7.421   0.498  0.00  0.00    +0.000 C 
ATOM     11  O   UNL     1       4.913   6.406   0.872  0.00  0.00    +0.000 OA
ATOM     12  C   UNL     1       5.710   5.302   0.892  0.00  0.00    +0.000 A 
ATOM     13  C   UNL     1       5.295   4.020   1.196  0.00  0.00    +0.000 A 
ATOM     14  C   UNL     1       6.238   2.976   1.167  0.00  0.00    +0.000 A 
ATOM     15  H   UNL     1       6.766  -0.268   1.777  0.00  0.00    +0.000 HD
ENDROOT
BRANCH   1  24
ATOM     16  C   UNL     1       3.990  -0.753   3.047  0.00  0.00    +0.000 A 
ATOM     17  C   UNL     1       3.608  -2.080   3.184  0.00  0.00    +0.000 A 
ATOM     18  O   UNL     1       3.370  -2.760   4.340  0.00  0.00    +0.000 OA
ATOM     19  C   UNL     1       3.015  -4.064   3.849  0.00  0.00    +0.000 C 
ATOM     20  O   UNL     1       3.047  -4.154   2.412  0.00  0.00    +0.000 OA
ATOM     21  C   UNL     1       3.419  -2.887   2.082  0.00  0.00    +0.000 A 
ATOM     22  C   UNL     1       3.597  -2.430   0.795  0.00  0.00    +0.000 A 
ATOM     23  C   UNL     1       3.981  -1.099   0.626  0.00  0.00    +0.000 A 
ATOM     24  C   UNL     1       4.178  -0.252   1.741  0.00  0.00    +0.000 A 
BRANCH  16  26
ATOM     25  O   UNL     1       4.102  -0.287   5.388  0.00  0.00    +0.000 OA
ATOM     26  C   UNL     1       4.195   0.111   4.234  0.00  0.00    +0.000 C 
ENDBRANCH  16  26
ENDBRANCH   1  24
TORSDOF 2
