REMARK  Name = *****
REMARK  10 active torsions:
REMARK  status: ('A' for Active; 'I' for Inactive)
REMARK    1  A    between atoms: C_1  and  O_2
REMARK    2  A    between atoms: O_2  and  C_3
REMARK    3  A    between atoms: C_6  and  C_10
REMARK    4  A    between atoms: C_8  and  O_9
REMARK    5  A    between atoms: C_11  and  C_20
REMARK    6  A    between atoms: C_17  and  C_18
REMARK    7  A    between atoms: C_23  and  O_24
REMARK    8  A    between atoms: O_24  and  C_25
REMARK    9  A    between atoms: C_26  and  O_27
REMARK   10  A    between atoms: O_27  and  C_28
REMARK                            x       y       z     vdW  Elec       q    Type
REMARK                         _______ _______ _______ _____ _____    ______ ____
ROOT
ATOM      1  C   UNL     1       5.278   4.696   0.018  0.00  0.00    +0.000 C 
ATOM      2  C   UNL     1       5.136   5.756   0.840  0.00  0.00    +0.000 C 
ATOM      3  C   UNL     1       5.968   7.000   0.615  0.00  0.00    +0.000 C 
ATOM      4  N   UNL     1       6.162   7.349  -0.797  0.00  0.00    +0.000 N 
ATOM      5  C   UNL     1       7.333   8.205  -1.004  0.00  0.00    +0.000 C 
ATOM      6  C   UNL     1       7.702   7.978  -2.457  0.00  0.00    +0.000 C 
ATOM      7  C   UNL     1       7.456   6.489  -2.623  0.00  0.00    +0.000 C 
ATOM      8  C   UNL     1       6.211   6.223  -1.759  0.00  0.00    +0.000 C 
ATOM      9  C   UNL     1       4.944   6.358  -2.635  0.00  0.00    +0.000 C 
ATOM     10  C   UNL     1       6.252   4.809  -1.128  0.00  0.00    +0.000 C 
ATOM     11  H   UNL     1       5.303   7.858  -1.009  0.00  0.00    +0.000 HD
ENDROOT
BRANCH   1  15
ATOM     12  C   UNL     1       3.135   1.009   0.421  0.00  0.00    +0.000 A 
ATOM     13  C   UNL     1       4.380   1.176   1.033  0.00  0.00    +0.000 A 
ATOM     14  C   UNL     1       5.079   2.381   0.898  0.00  0.00    +0.000 A 
ATOM     15  C   UNL     1       4.542   3.433   0.151  0.00  0.00    +0.000 A 
ATOM     16  C   UNL     1       3.295   3.276  -0.460  0.00  0.00    +0.000 A 
ATOM     17  C   UNL     1       2.603   2.072  -0.324  0.00  0.00    +0.000 A 
BRANCH  12  19
ATOM     18  C   UNL     1       2.870  -1.204   1.265  0.00  0.00    +0.000 C 
ATOM     19  O   UNL     1       2.372  -0.127   0.486  0.00  0.00    +0.000 OA
ENDBRANCH  12  19
BRANCH  17  20
ATOM     20  O   UNL     1       1.382   1.920  -0.927  0.00  0.00    +0.000 OA
ATOM     21  H   UNL     1       0.912   1.114  -0.839  0.00  0.00    +0.000 HD
ENDBRANCH  17  20
ENDBRANCH   1  15
BRANCH   2  22
ATOM     22  C   UNL     1       4.231   5.771   1.996  0.00  0.00    +0.000 A 
ATOM     23  C   UNL     1       2.918   6.221   1.857  0.00  0.00    +0.000 A 
ATOM     24  C   UNL     1       2.050   6.210   2.953  0.00  0.00    +0.000 A 
ATOM     25  C   UNL     1       2.479   5.753   4.208  0.00  0.00    +0.000 A 
ATOM     26  C   UNL     1       3.814   5.336   4.356  0.00  0.00    +0.000 A 
ATOM     27  C   UNL     1       4.669   5.327   3.245  0.00  0.00    +0.000 A 
BRANCH  25  28
ATOM     28  O   UNL     1       1.658   5.683   5.302  0.00  0.00    +0.000 OA
ATOM     29  C   UNL     1       0.263   5.860   5.098  0.00  0.00    +0.000 C 
ENDBRANCH  25  28
BRANCH  26  30
ATOM     30  O   UNL     1       4.412   4.860   5.497  0.00  0.00    +0.000 OA
ATOM     31  C   UNL     1       3.947   5.392   6.731  0.00  0.00    +0.000 C 
ENDBRANCH  26  30
ENDBRANCH   2  22
TORSDOF 6
