REMARK  Name = *****
REMARK  10 active torsions:
REMARK  status: ('A' for Active; 'I' for Inactive)
REMARK    1  A    between atoms: C_1  and  O_2
REMARK    2  A    between atoms: O_2  and  C_3
REMARK    3  A    between atoms: C_6  and  C_11
REMARK    4  A    between atoms: C_8  and  O_9
REMARK    5  A    between atoms: O_9  and  C_10
REMARK    6  A    between atoms: C_12  and  C_20
REMARK    7  A    between atoms: C_23  and  O_24
REMARK    8  A    between atoms: O_24  and  C_25
REMARK    9  A    between atoms: C_26  and  O_27
REMARK   10  A    between atoms: O_27  and  C_28
REMARK                            x       y       z     vdW  Elec       q    Type
REMARK                         _______ _______ _______ _____ _____    ______ ____
ROOT
ATOM      1  C   UNL     1       5.661   2.787   3.679  0.00  0.00    +0.000 C 
ATOM      2  C   UNL     1       6.201   2.149   4.741  0.00  0.00    +0.000 C 
ATOM      3  C   UNL     1       7.204   2.884   5.606  0.00  0.00    +0.000 C 
ATOM      4  N   UNL     1       6.841   4.277   5.886  0.00  0.00    +0.000 N 
ATOM      5  C   UNL     1       5.871   4.386   6.983  0.00  0.00    +0.000 C 
ATOM      6  C   UNL     1       5.195   5.716   6.731  0.00  0.00    +0.000 C 
ATOM      7  C   UNL     1       5.024   5.697   5.226  0.00  0.00    +0.000 C 
ATOM      8  C   UNL     1       6.305   5.018   4.721  0.00  0.00    +0.000 C 
ATOM      9  C   UNL     1       6.062   4.221   3.422  0.00  0.00    +0.000 C 
ATOM     10  H   UNL     1       7.727   4.708   6.150  0.00  0.00    +0.000 HD
ENDROOT
BRANCH   1  14
ATOM     11  C   UNL     1       2.904   1.013   0.902  0.00  0.00    +0.000 A 
ATOM     12  C   UNL     1       4.238   0.590   0.956  0.00  0.00    +0.000 A 
ATOM     13  C   UNL     1       5.134   1.165   1.864  0.00  0.00    +0.000 A 
ATOM     14  C   UNL     1       4.716   2.179   2.729  0.00  0.00    +0.000 A 
ATOM     15  C   UNL     1       3.386   2.601   2.683  0.00  0.00    +0.000 A 
ATOM     16  C   UNL     1       2.475   2.006   1.800  0.00  0.00    +0.000 A 
BRANCH  11  18
ATOM     17  C   UNL     1       2.456  -0.328  -1.022  0.00  0.00    +0.000 C 
ATOM     18  O   UNL     1       1.985   0.526   0.012  0.00  0.00    +0.000 OA
ENDBRANCH  11  18
BRANCH  16  19
ATOM     19  O   UNL     1       1.206   2.526   1.872  0.00  0.00    +0.000 OA
ATOM     20  C   UNL     1       0.164   1.556   1.835  0.00  0.00    +0.000 C 
ENDBRANCH  16  19
ENDBRANCH   1  14
BRANCH   2  21
ATOM     21  C   UNL     1       5.902   0.756   5.115  0.00  0.00    +0.000 A 
ATOM     22  C   UNL     1       4.618   0.388   5.526  0.00  0.00    +0.000 A 
ATOM     23  C   UNL     1       4.338  -0.933   5.893  0.00  0.00    +0.000 A 
ATOM     24  C   UNL     1       5.336  -1.914   5.850  0.00  0.00    +0.000 A 
ATOM     25  C   UNL     1       6.618  -1.551   5.402  0.00  0.00    +0.000 A 
ATOM     26  C   UNL     1       6.901  -0.220   5.068  0.00  0.00    +0.000 A 
BRANCH  24  27
ATOM     27  O   UNL     1       5.145  -3.214   6.234  0.00  0.00    +0.000 OA
ATOM     28  C   UNL     1       3.910  -3.545   6.856  0.00  0.00    +0.000 C 
ENDBRANCH  24  27
BRANCH  25  29
ATOM     29  O   UNL     1       7.700  -2.392   5.307  0.00  0.00    +0.000 OA
ATOM     30  C   UNL     1       7.421  -3.654   4.708  0.00  0.00    +0.000 C 
ENDBRANCH  25  29
ENDBRANCH   2  21
TORSDOF 6
