REMARK  Name = *****
REMARK  2 active torsions:
REMARK  status: ('A' for Active; 'I' for Inactive)
REMARK    1  A    between atoms: C_1  and  C_9
REMARK    2  A    between atoms: C_2  and  C_3
REMARK                            x       y       z     vdW  Elec       q    Type
REMARK                         _______ _______ _______ _____ _____    ______ ____
ROOT
ATOM      1  C   UNL     1       1.175   0.070   0.065  0.00  0.00    +0.000 C 
ATOM      2  C   UNL     1       0.463   1.210   0.047  0.00  0.00    +0.000 C 
ENDROOT
BRANCH   2   3
ATOM      3  C   UNL     1       0.977   2.584  -0.026  0.00  0.00    +0.000 A 
ATOM      4  C   UNL     1       1.865   2.985  -1.031  0.00  0.00    +0.000 A 
ATOM      5  C   UNL     1       2.317   4.305  -1.091  0.00  0.00    +0.000 A 
ATOM      6  C   UNL     1       1.874   5.238  -0.155  0.00  0.00    +0.000 A 
ATOM      7  C   UNL     1       0.977   4.852   0.839  0.00  0.00    +0.000 A 
ATOM      8  C   UNL     1       0.526   3.532   0.900  0.00  0.00    +0.000 A 
ENDBRANCH   2   3
BRANCH   1   9
ATOM      9  C   UNL     1       2.636  -0.072   0.061  0.00  0.00    +0.000 A 
ATOM     10  C   UNL     1       3.442   0.584   0.999  0.00  0.00    +0.000 A 
ATOM     11  C   UNL     1       4.828   0.409   0.987  0.00  0.00    +0.000 A 
ATOM     12  C   UNL     1       5.417  -0.432   0.045  0.00  0.00    +0.000 A 
ATOM     13  C   UNL     1       4.622  -1.101  -0.883  0.00  0.00    +0.000 A 
ATOM     14  C   UNL     1       3.236  -0.927  -0.872  0.00  0.00    +0.000 A 
ENDBRANCH   1   9
TORSDOF 2
