REMARK  Name = *****
REMARK  7 active torsions:
REMARK  status: ('A' for Active; 'I' for Inactive)
REMARK    1  A    between atoms: C_1  and  O_2
REMARK    2  A    between atoms: O_2  and  C_3
REMARK    3  A    between atoms: C_11  and  O_12
REMARK    4  A    between atoms: O_12  and  C_13
REMARK    5  A    between atoms: C_14  and  O_15
REMARK    6  A    between atoms: O_15  and  C_16
REMARK    7  A    between atoms: C_24  and  O_25
REMARK                            x       y       z     vdW  Elec       q    Type
REMARK                         _______ _______ _______ _____ _____    ______ ____
ROOT
ATOM      1  C   UNL     1       0.478   0.314   1.002  0.00  0.00    +0.000 A 
ATOM      2  C   UNL     1       1.049   0.060   2.244  0.00  0.00    +0.000 A 
ATOM      3  C   UNL     1       0.590   0.738   3.394  0.00  0.00    +0.000 A 
ATOM      4  C   UNL     1       1.178   0.354   4.732  0.00  0.00    +0.000 C 
ATOM      5  C   UNL     1       1.004   1.445   5.780  0.00  0.00    +0.000 C 
ATOM      6  N   UNL     1      -0.367   1.945   5.768  0.00  0.00    +0.000 N 
ATOM      7  C   UNL     1      -0.963   2.236   7.079  0.00  0.00    +0.000 C 
ATOM      8  C   UNL     1      -1.959   3.366   7.042  0.00  0.00    +0.000 A 
ATOM      9  C   UNL     1      -2.480   3.896   8.236  0.00  0.00    +0.000 A 
ATOM     10  C   UNL     1      -3.334   5.010   8.215  0.00  0.00    +0.000 A 
ATOM     11  C   UNL     1      -3.750   5.525   6.986  0.00  0.00    +0.000 A 
ATOM     12  C   UNL     1      -3.297   4.953   5.793  0.00  0.00    +0.000 A 
ATOM     13  C   UNL     1      -2.402   3.877   5.815  0.00  0.00    +0.000 A 
ATOM     14  C   UNL     1      -1.946   3.264   4.562  0.00  0.00    +0.000 C 
ATOM     15  C   UNL     1      -0.966   2.341   4.569  0.00  0.00    +0.000 C 
ATOM     16  C   UNL     1      -0.459   1.688   3.316  0.00  0.00    +0.000 A 
ATOM     17  C   UNL     1      -1.012   1.936   2.049  0.00  0.00    +0.000 A 
ATOM     18  C   UNL     1      -0.546   1.258   0.925  0.00  0.00    +0.000 A 
ENDROOT
BRANCH   1  20
ATOM     19  C   UNL     1       1.757  -1.346  -0.115  0.00  0.00    +0.000 C 
ATOM     20  O   UNL     1       0.813  -0.284  -0.185  0.00  0.00    +0.000 OA
ENDBRANCH   1  20
BRANCH   9  21
ATOM     21  O   UNL     1      -2.067   3.313   9.412  0.00  0.00    +0.000 OA
ATOM     22  C   UNL     1      -3.165   2.725  10.114  0.00  0.00    +0.000 C 
ENDBRANCH   9  21
BRANCH  10  23
ATOM     23  O   UNL     1      -3.747   5.515   9.420  0.00  0.00    +0.000 OA
ATOM     24  C   UNL     1      -3.945   6.924   9.454  0.00  0.00    +0.000 C 
ENDBRANCH  10  23
BRANCH  18  25
ATOM     25  O   UNL     1      -1.142   1.525  -0.281  0.00  0.00    +0.000 OA
ATOM     26  H   UNL     1      -0.851   1.085  -1.055  0.00  0.00    +0.000 HD
ENDBRANCH  18  25
TORSDOF 4
