REMARK  Name = *****
REMARK  5 active torsions:
REMARK  status: ('A' for Active; 'I' for Inactive)
REMARK    1  A    between atoms: C_1  and  C_2
REMARK    2  A    between atoms: C_2  and  C_3
REMARK    3  A    between atoms: C_10  and  C_17
REMARK    4  A    between atoms: C_20  and  O_21
REMARK    5  A    between atoms: C_23  and  O_24
REMARK                            x       y       z     vdW  Elec       q    Type
REMARK                         _______ _______ _______ _____ _____    ______ ____
ROOT
ATOM      1  C   UNL     1       1.042  -0.146  -0.224  0.00  0.00    +0.000 C 
ATOM      2  C   UNL     1       2.570  -0.049  -0.149  0.00  0.00    +0.000 C 
ATOM      3  C   UNL     1       3.149   0.095  -1.561  0.00  0.00    +0.000 C 
ATOM      4  O   UNL     1       2.862   1.184   0.540  0.00  0.00    +0.000 OA
ATOM      5  C   UNL     1       3.649   1.152   1.657  0.00  0.00    +0.000 A 
ATOM      6  C   UNL     1       3.909   2.395   2.239  0.00  0.00    +0.000 A 
ATOM      7  C   UNL     1       4.690   2.485   3.391  0.00  0.00    +0.000 A 
ATOM      8  C   UNL     1       5.227   1.329   3.961  0.00  0.00    +0.000 A 
ATOM      9  C   UNL     1       6.006   1.401   5.194  0.00  0.00    +0.000 C 
ATOM     10  C   UNL     1       6.689   0.307   5.567  0.00  0.00    +0.000 C 
ATOM     11  C   UNL     1       6.662  -0.928   4.700  0.00  0.00    +0.000 C 
ATOM     12  O   UNL     1       5.455  -1.081   3.930  0.00  0.00    +0.000 OA
ATOM     13  C   UNL     1       4.976   0.081   3.368  0.00  0.00    +0.000 A 
ATOM     14  C   UNL     1       4.171  -0.017   2.220  0.00  0.00    +0.000 A 
ATOM     15  C   UNL     1       3.864  -1.298   1.595  0.00  0.00    +0.000 C 
ATOM     16  C   UNL     1       3.116  -1.304   0.489  0.00  0.00    +0.000 C 
ENDROOT
BRANCH  10  17
ATOM     17  C   UNL     1       7.503   0.288   6.802  0.00  0.00    +0.000 A 
ATOM     18  C   UNL     1       6.945   0.762   8.004  0.00  0.00    +0.000 A 
ATOM     19  C   UNL     1       7.673   0.746   9.197  0.00  0.00    +0.000 A 
ATOM     20  C   UNL     1       8.970   0.249   9.196  0.00  0.00    +0.000 A 
ATOM     21  C   UNL     1       9.549  -0.232   8.029  0.00  0.00    +0.000 A 
ATOM     22  C   UNL     1       8.816  -0.214   6.840  0.00  0.00    +0.000 A 
BRANCH  20  23
ATOM     23  O   UNL     1       9.718   0.212  10.336  0.00  0.00    +0.000 OA
ATOM     24  H   UNL     1       9.359   0.528  11.142  0.00  0.00    +0.000 HD
ENDBRANCH  20  23
BRANCH  22  25
ATOM     25  O   UNL     1       9.400  -0.680   5.692  0.00  0.00    +0.000 OA
ATOM     26  H   UNL     1       8.921  -0.674   4.887  0.00  0.00    +0.000 HD
ENDBRANCH  22  25
ENDBRANCH  10  17
TORSDOF 3
