REMARK  Name = *****
REMARK  8 active torsions:
REMARK  status: ('A' for Active; 'I' for Inactive)
REMARK    1  A    between atoms: C_1  and  O_2
REMARK    2  A    between atoms: O_2  and  C_3
REMARK    3  A    between atoms: C_6  and  C_9
REMARK    4  A    between atoms: C_10  and  C_18
REMARK    5  A    between atoms: C_21  and  O_22
REMARK    6  A    between atoms: O_22  and  C_23
REMARK    7  A    between atoms: C_24  and  O_25
REMARK    8  A    between atoms: O_25  and  C_26
REMARK                            x       y       z     vdW  Elec       q    Type
REMARK                         _______ _______ _______ _____ _____    ______ ____
ROOT
ATOM      1  C   UNL     1       5.653  -1.532   4.336  0.00  0.00    +0.000 C 
ATOM      2  C   UNL     1       6.171  -2.782   4.338  0.00  0.00    +0.000 C 
ATOM      3  C   UNL     1       7.081  -3.175   5.480  0.00  0.00    +0.000 C 
ATOM      4  C   UNL     1       6.662  -2.549   6.826  0.00  0.00    +0.000 C 
ATOM      5  C   UNL     1       5.663  -3.431   7.587  0.00  0.00    +0.000 C 
ATOM      6  C   UNL     1       4.816  -2.439   8.355  0.00  0.00    +0.000 C 
ATOM      7  C   UNL     1       4.698  -1.300   7.364  0.00  0.00    +0.000 C 
ATOM      8  N   UNL     1       6.044  -1.203   6.787  0.00  0.00    +0.000 N 
ATOM      9  C   UNL     1       6.030  -0.584   5.457  0.00  0.00    +0.000 C 
ATOM     10  H   UNL     1       6.625  -0.574   7.341  0.00  0.00    +0.000 HD
ENDROOT
BRANCH   1  14
ATOM     11  C   UNL     1       3.022   0.039   1.329  0.00  0.00    +0.000 A 
ATOM     12  C   UNL     1       2.647  -1.078   2.074  0.00  0.00    +0.000 A 
ATOM     13  C   UNL     1       3.505  -1.590   3.055  0.00  0.00    +0.000 A 
ATOM     14  C   UNL     1       4.750  -0.996   3.300  0.00  0.00    +0.000 A 
ATOM     15  C   UNL     1       5.118   0.128   2.554  0.00  0.00    +0.000 A 
ATOM     16  C   UNL     1       4.260   0.638   1.576  0.00  0.00    +0.000 A 
BRANCH  11  18
ATOM     17  C   UNL     1       1.013   0.065   0.062  0.00  0.00    +0.000 C 
ATOM     18  O   UNL     1       2.284   0.636   0.346  0.00  0.00    +0.000 OA
ENDBRANCH  11  18
ENDBRANCH   1  14
BRANCH   2  19
ATOM     19  C   UNL     1       5.937  -3.797   3.296  0.00  0.00    +0.000 A 
ATOM     20  C   UNL     1       6.364  -3.585   1.984  0.00  0.00    +0.000 A 
ATOM     21  C   UNL     1       6.151  -4.555   0.998  0.00  0.00    +0.000 A 
ATOM     22  C   UNL     1       5.501  -5.758   1.303  0.00  0.00    +0.000 A 
ATOM     23  C   UNL     1       5.042  -5.961   2.617  0.00  0.00    +0.000 A 
ATOM     24  C   UNL     1       5.284  -4.994   3.603  0.00  0.00    +0.000 A 
BRANCH  22  25
ATOM     25  O   UNL     1       5.304  -6.765   0.396  0.00  0.00    +0.000 OA
ATOM     26  C   UNL     1       5.858  -6.608  -0.903  0.00  0.00    +0.000 C 
ENDBRANCH  22  25
BRANCH  23  27
ATOM     27  O   UNL     1       4.396  -7.074   3.094  0.00  0.00    +0.000 OA
ATOM     28  C   UNL     1       3.466  -7.681   2.205  0.00  0.00    +0.000 C 
ENDBRANCH  23  27
ENDBRANCH   2  19
TORSDOF 5
