REMARK  Name = *****
REMARK  5 active torsions:
REMARK  status: ('A' for Active; 'I' for Inactive)
REMARK    1  A    between atoms: C_1  and  O_2
REMARK    2  A    between atoms: O_2  and  C_3
REMARK    3  A    between atoms: C_6  and  C_7
REMARK    4  A    between atoms: C_12  and  O_13
REMARK    5  A    between atoms: C_18  and  O_19
REMARK                            x       y       z     vdW  Elec       q    Type
REMARK                         _______ _______ _______ _____ _____    ______ ____
ROOT
ATOM      1  C   UNL     1       4.549   5.759   0.201  0.00  0.00    +0.000 C 
ATOM      2  C   UNL     1       4.201   6.858   0.882  0.00  0.00    +0.000 C 
ATOM      3  C   UNL     1       4.594   8.145   0.327  0.00  0.00    +0.000 A 
ATOM      4  C   UNL     1       4.357   9.330   1.036  0.00  0.00    +0.000 A 
ATOM      5  C   UNL     1       4.717  10.563   0.487  0.00  0.00    +0.000 A 
ATOM      6  C   UNL     1       5.306  10.605  -0.773  0.00  0.00    +0.000 A 
ATOM      7  C   UNL     1       5.542   9.437  -1.489  0.00  0.00    +0.000 A 
ATOM      8  C   UNL     1       5.191   8.205  -0.936  0.00  0.00    +0.000 A 
ATOM      9  O   UNL     1       5.428   7.105  -1.712  0.00  0.00    +0.000 OA
ATOM     10  C   UNL     1       5.327   5.816  -1.087  0.00  0.00    +0.000 C 
ENDROOT
BRANCH   1  14
ATOM     11  C   UNL     1       3.616   1.872   1.761  0.00  0.00    +0.000 A 
ATOM     12  C   UNL     1       4.919   2.367   1.804  0.00  0.00    +0.000 A 
ATOM     13  C   UNL     1       5.208   3.637   1.287  0.00  0.00    +0.000 A 
ATOM     14  C   UNL     1       4.200   4.428   0.720  0.00  0.00    +0.000 A 
ATOM     15  C   UNL     1       2.895   3.919   0.684  0.00  0.00    +0.000 A 
ATOM     16  C   UNL     1       2.607   2.656   1.198  0.00  0.00    +0.000 A 
BRANCH  11  18
ATOM     17  C   UNL     1       4.193  -0.180   2.817  0.00  0.00    +0.000 C 
ATOM     18  O   UNL     1       3.203   0.655   2.229  0.00  0.00    +0.000 OA
ENDBRANCH  11  18
BRANCH  15  19
ATOM     19  O   UNL     1       1.843   4.609   0.143  0.00  0.00    +0.000 OA
ATOM     20  H   UNL     1       1.979   5.463  -0.217  0.00  0.00    +0.000 HD
ENDBRANCH  15  19
ENDBRANCH   1  14
BRANCH   6  21
ATOM     21  O   UNL     1       5.668  11.787  -1.347  0.00  0.00    +0.000 OA
ATOM     22  H   UNL     1       5.523  12.593  -0.892  0.00  0.00    +0.000 HD
ENDBRANCH   6  21
TORSDOF 4
