REMARK  Name = *****
REMARK  10 active torsions:
REMARK  status: ('A' for Active; 'I' for Inactive)
REMARK    1  A    between atoms: C_1  and  O_2
REMARK    2  A    between atoms: O_2  and  C_3
REMARK    3  A    between atoms: C_5  and  O_6
REMARK    4  A    between atoms: O_6  and  C_7
REMARK    5  A    between atoms: C_9  and  C_10
REMARK    6  A    between atoms: C_11  and  C_12
REMARK    7  A    between atoms: C_15  and  O_16
REMARK    8  A    between atoms: O_16  and  C_17
REMARK    9  A    between atoms: C_18  and  O_19
REMARK   10  A    between atoms: O_19  and  C_20
REMARK                            x       y       z     vdW  Elec       q    Type
REMARK                         _______ _______ _______ _____ _____    ______ ____
ROOT
ATOM      1  C   UNL     1       6.575   2.714   0.523  0.00  0.00    +0.000 C 
ATOM      2  C   UNL     1       7.481   3.380   1.258  0.00  0.00    +0.000 C 
ENDROOT
BRANCH   1   7
ATOM      3  C   UNL     1       3.406   0.717   0.942  0.00  0.00    +0.000 A 
ATOM      4  C   UNL     1       2.687   1.498   1.850  0.00  0.00    +0.000 A 
ATOM      5  C   UNL     1       3.235   2.689   2.335  0.00  0.00    +0.000 A 
ATOM      6  C   UNL     1       4.506   3.091   1.909  0.00  0.00    +0.000 A 
ATOM      7  C   UNL     1       5.248   2.311   1.015  0.00  0.00    +0.000 A 
ATOM      8  C   UNL     1       4.677   1.130   0.529  0.00  0.00    +0.000 A 
BRANCH   3  10
ATOM      9  C   UNL     1       1.699  -0.935   0.762  0.00  0.00    +0.000 C 
ATOM     10  O   UNL     1       2.985  -0.461   0.384  0.00  0.00    +0.000 OA
ENDBRANCH   3  10
BRANCH   5  11
ATOM     11  O   UNL     1       2.637   3.549   3.216  0.00  0.00    +0.000 OA
ATOM     12  C   UNL     1       1.361   3.177   3.721  0.00  0.00    +0.000 C 
ENDBRANCH   5  11
ENDBRANCH   1   7
BRANCH   2  13
ATOM     13  C   UNL     1       8.814   3.767   0.773  0.00  0.00    +0.000 A 
ATOM     14  C   UNL     1       9.048   4.163  -0.547  0.00  0.00    +0.000 A 
ATOM     15  C   UNL     1      10.331   4.541  -0.965  0.00  0.00    +0.000 A 
ATOM     16  C   UNL     1      11.405   4.548  -0.068  0.00  0.00    +0.000 A 
ATOM     17  C   UNL     1      11.161   4.206   1.273  0.00  0.00    +0.000 A 
ATOM     18  C   UNL     1       9.881   3.801   1.676  0.00  0.00    +0.000 A 
BRANCH  16  19
ATOM     19  O   UNL     1      12.690   4.862  -0.419  0.00  0.00    +0.000 OA
ATOM     20  C   UNL     1      12.982   5.001  -1.803  0.00  0.00    +0.000 C 
ENDBRANCH  16  19
BRANCH  17  21
ATOM     21  O   UNL     1      12.099   4.164   2.275  0.00  0.00    +0.000 OA
ATOM     22  C   UNL     1      12.997   5.269   2.303  0.00  0.00    +0.000 C 
ENDBRANCH  17  21
ENDBRANCH   2  13
TORSDOF 6
