@<TRIPOS>MOLECULE
TOP5 
44 49 0 0 0
SMALL
USER_CHARGES
#CGenFF output mol2 file
@<TRIPOS>ATOM
1	N1    87.8590    66.4050    84.2900	N.am	1	TOP5    -0.5260
2	N2    87.7860    62.6030    86.3060	N.am	1	TOP5    -0.3120
3	N3    88.5860    67.7740    86.4820	N.ar	1	TOP5    -0.2110
4	N4    86.2540    67.8690    86.8910	N.ar	1	TOP5    -1.0000
5	C1    85.7940    65.5150    85.3080	C.3	1	TOP5    -0.2830
6	C2    87.2270    65.9770    85.5590	C.3	1	TOP5     0.2060
7	C3    89.1870    66.8200    84.3740	C.2	1	TOP5     0.5550
8	C4    89.6220    66.9570    85.8410	C.3	1	TOP5     0.0350
9	C5    89.5840    65.5450    86.4530	C.3	1	TOP5    -0.1440
10	C6    88.1470    64.9550    86.3060	C.3	1	TOP5     0.0230
11	C7    88.2140    63.6360    85.4880	C.2	1	TOP5     0.1050
12	C8    87.4330    63.0620    87.5620	C.ar	1	TOP5     0.3210
13	C9    86.9640    62.3070    88.6160	C.ar	1	TOP5    -0.3350
14	C10    86.6740    62.9790    89.8040	C.ar	1	TOP5    -0.2100
15	C11    86.8630    64.3680    89.9050	C.ar	1	TOP5    -0.1550
16	C12    87.3420    65.1090    88.8200	C.ar	1	TOP5    -0.3070
17	C13    87.6190    64.4420    87.6370	C.ar	1	TOP5     0.3930
18	C14    88.8900    68.9410    87.1490	C.ar	1	TOP5     0.3710
19	C15    87.7340    69.6410    87.7430	C.ar	1	TOP5     0.1940
20	C16    87.9080    70.8370    88.4510	C.ar	1	TOP5    -0.1440
21	C17    86.8000    71.4680    89.0140	C.ar	1	TOP5    -0.1190
22	C18    85.5310    70.9070    88.8690	C.ar	1	TOP5    -0.1430
23	C19    85.3680    69.7140    88.1600	C.ar	1	TOP5    -0.1420
24	C20    86.4670    69.0680    87.5900	C.ar	1	TOP5     0.4480
25	C21    87.2840    67.2900    86.3710	C.ar	1	TOP5     0.5220
26	O1    89.9260    66.8850    83.4040	O.2	1	TOP5    -0.5100
27	O2    88.5720    63.5060    84.3300	O.2	1	TOP5    -0.3860
28	O3    90.0270    69.3790    87.2840	O.2	1	TOP5    -0.5000
29	H1    87.3693    66.3969    83.4360	H	1	TOP5     0.3340
30	H2    87.7390    61.6598    86.0279	H	1	TOP5     0.3530
31	H3    85.8060    64.6056    84.7443	H	1	TOP5     0.0900
32	H4    85.2675    66.2678    84.7593	H	1	TOP5     0.0900
33	H5    85.3040    65.3478    86.2444	H	1	TOP5     0.0900
34	H6    90.5945    67.3880    85.9564	H	1	TOP5     0.0900
35	H7    89.8438    65.5981    87.4896	H	1	TOP5     0.0900
36	H8    90.2828    64.9154    85.9429	H	1	TOP5     0.0900
37	H9    86.8328    61.2870    88.5299	H	1	TOP5     0.1960
38	H10    86.3174    62.4512    90.6160	H	1	TOP5     0.1270
39	H11    86.6452    64.8479    90.7923	H	1	TOP5     0.1270
40	H12    87.4858    66.1279    88.8983	H	1	TOP5     0.1170
41	H13    88.8490    71.2477    88.5550	H	1	TOP5     0.1150
42	H14    86.9183    72.3494    89.5376	H	1	TOP5     0.1150
43	H15    84.7108    71.3741    89.2863	H	1	TOP5     0.1150
44	H16    84.4257    69.3061    88.0565	H	1	TOP5     0.1150
@<TRIPOS>BOND
1	1	7	1
2	1	6	1
3	1	29	1
4	2	11	1
5	2	12	1
6	2	30	1
7	3	8	1
8	3	25	1
9	3	18	1
10	4	25	2
11	4	24	1
12	5	6	1
13	5	31	1
14	5	32	1
15	5	33	1
16	6	10	1
17	6	25	1
18	7	26	2
19	7	8	1
20	8	9	1
21	8	34	1
22	9	10	1
23	9	35	1
24	9	36	1
25	10	11	1
26	10	17	1
27	11	27	2
28	12	17	2
29	12	13	1
30	13	14	2
31	13	37	1
32	14	15	1
33	14	38	1
34	15	16	2
35	15	39	1
36	16	17	1
37	16	40	1
38	18	28	2
39	18	19	1
40	19	24	2
41	19	20	1
42	20	21	2
43	20	41	1
44	21	22	1
45	21	42	1
46	22	23	2
47	22	43	1
48	23	24	1
49	23	44	1
