@<TRIPOS>MOLECULE
UNPD_indolinone_41
 44 49 0 0 0
SMALL
GASTEIGER

@<TRIPOS>ATOM
      1 N          87.8590   66.4050   84.2900 N.am    1  UNL1       -0.3001
      2 N          87.7860   62.6030   86.3060 N.am    1  UNL1       -0.2844
      3 N          88.5860   67.7740   86.4820 N.ar    1  UNL1       -0.2823
      4 N          86.2540   67.8690   86.8910 N.ar    1  UNL1       -0.2312
      5 C          85.7940   65.5150   85.3080 C.3     1  UNL1       -0.0353
      6 C          87.2270   65.9770   85.5590 C.3     1  UNL1        0.1077
      7 C          89.1870   66.8200   84.3740 C.2     1  UNL1        0.2369
      8 C          89.6220   66.9570   85.8410 C.3     1  UNL1        0.1162
      9 C          89.5840   65.5450   86.4530 C.3     1  UNL1       -0.0029
     10 C          88.1470   64.9550   86.3060 C.3     1  UNL1        0.1039
     11 C          88.2140   63.6360   85.4880 C.2     1  UNL1        0.2304
     12 C          87.4330   63.0620   87.5620 C.ar    1  UNL1        0.0377
     13 C          86.9640   62.3070   88.6160 C.ar    1  UNL1       -0.0402
     14 C          86.6740   62.9790   89.8040 C.ar    1  UNL1       -0.0600
     15 C          86.8630   64.3680   89.9050 C.ar    1  UNL1       -0.0614
     16 C          87.3420   65.1090   88.8200 C.ar    1  UNL1       -0.0557
     17 C          87.6190   64.4420   87.6370 C.ar    1  UNL1       -0.0087
     18 C          88.8900   68.9410   87.1490 C.ar    1  UNL1        0.2625
     19 C          87.7340   69.6410   87.7430 C.ar    1  UNL1        0.0649
     20 C          87.9080   70.8370   88.4510 C.ar    1  UNL1       -0.0474
     21 C          86.8000   71.4680   89.0140 C.ar    1  UNL1       -0.0609
     22 C          85.5310   70.9070   88.8690 C.ar    1  UNL1       -0.0597
     23 C          85.3680   69.7140   88.1600 C.ar    1  UNL1       -0.0355
     24 C          86.4670   69.0680   87.5900 C.ar    1  UNL1        0.0782
     25 C          87.2840   67.2900   86.3710 C.ar    1  UNL1        0.1383
     26 O          89.9260   66.8850   83.4040 O.2     1  UNL1       -0.2735
     27 O          88.5720   63.5060   84.3300 O.2     1  UNL1       -0.2744
     28 O          90.0270   69.3790   87.2840 O.2     1  UNL1       -0.2669
     29 H          87.3693   66.3969   83.4360 H       1  UNL1        0.1498
     30 H          87.7390   61.6598   86.0279 H       1  UNL1        0.1548
     31 H          85.8060   64.6056   84.7443 H       1  UNL1        0.0255
     32 H          85.2675   66.2678   84.7593 H       1  UNL1        0.0255
     33 H          85.3040   65.3478   86.2444 H       1  UNL1        0.0255
     34 H          90.5945   67.3880   85.9564 H       1  UNL1        0.0626
     35 H          89.8438   65.5981   87.4896 H       1  UNL1        0.0304
     36 H          90.2828   64.9154   85.9429 H       1  UNL1        0.0304
     37 H          86.8328   61.2870   88.5299 H       1  UNL1        0.0636
     38 H          86.3174   62.4512   90.6160 H       1  UNL1        0.0618
     39 H          86.6452   64.8479   90.7923 H       1  UNL1        0.0618
     40 H          87.4858   66.1279   88.8983 H       1  UNL1        0.0621
     41 H          88.8490   71.2477   88.5550 H       1  UNL1        0.0626
     42 H          86.9183   72.3494   89.5376 H       1  UNL1        0.0618
     43 H          84.7108   71.3741   89.2863 H       1  UNL1        0.0618
     44 H          84.4257   69.3061   88.0565 H       1  UNL1        0.0639
@<TRIPOS>BOND
     1     1     7   am
     2     1     6    1
     3     1    29    1
     4     2    11   am
     5     2    12    1
     6     2    30    1
     7     3     8    1
     8     3    25   ar
     9     3    18   ar
    10     4    25   ar
    11     4    24   ar
    12     5     6    1
    13     5    31    1
    14     5    32    1
    15     5    33    1
    16     6    10    1
    17     6    25    1
    18     7    26    2
    19     7     8    1
    20     8     9    1
    21     8    34    1
    22     9    10    1
    23     9    35    1
    24     9    36    1
    25    10    11    1
    26    10    17    1
    27    11    27    2
    28    12    17   ar
    29    12    13   ar
    30    13    14   ar
    31    13    37    1
    32    14    15   ar
    33    14    38    1
    34    15    16   ar
    35    15    39    1
    36    16    17   ar
    37    16    40    1
    38    18    28    2
    39    18    19   ar
    40    19    24   ar
    41    19    20   ar
    42    20    21   ar
    43    20    41    1
    44    21    22   ar
    45    21    42    1
    46    22    23   ar
    47    22    43    1
    48    23    24   ar
    49    23    44    1
