REMARK  Name = *****
REMARK  5 active torsions:
REMARK  status: ('A' for Active; 'I' for Inactive)
REMARK    1  A    between atoms: N_3  and  C_25
REMARK    2  A    between atoms: C_10  and  C_11
REMARK    3  A    between atoms: C_10  and  C_18
REMARK    4  A    between atoms: C_11  and  C_12
REMARK    5  A    between atoms: C_18  and  C_19
REMARK                            x       y       z     vdW  Elec       q    Type
REMARK                         _______ _______ _______ _____ _____    ______ ____
ROOT
ATOM      1  O   UNL     1       3.254   0.230  -0.119  0.00  0.00    +0.000 OA
ATOM      2  C   UNL     1       2.034   0.126  -0.086  0.00  0.00    +0.000 C 
ATOM      3  N   UNL     1       1.080   1.164  -0.065  0.00  0.00    +0.000 N 
ATOM      4  C   UNL     1      -0.230   0.646  -0.035  0.00  0.00    +0.000 A 
ATOM      5  C   UNL     1      -1.448   1.293   0.116  0.00  0.00    +0.000 A 
ATOM      6  C   UNL     1      -2.619   0.528   0.147  0.00  0.00    +0.000 A 
ATOM      7  C   UNL     1      -2.565  -0.868   0.054  0.00  0.00    +0.000 A 
ATOM      8  C   UNL     1      -1.338  -1.520  -0.052  0.00  0.00    +0.000 A 
ATOM      9  C   UNL     1      -0.180  -0.750  -0.085  0.00  0.00    +0.000 A 
ATOM     10  C   UNL     1       1.267  -1.218  -0.130  0.00  0.00    +0.000 C 
ENDROOT
BRANCH   3  11
ATOM     11  C   UNL     1       1.402   2.542  -0.128  0.00  0.00    +0.000 A 
ATOM     12  C   UNL     1       0.632   3.452  -0.867  0.00  0.00    +0.000 A 
ATOM     13  C   UNL     1       0.978   4.806  -0.931  0.00  0.00    +0.000 A 
ATOM     14  C   UNL     1       2.109   5.270  -0.267  0.00  0.00    +0.000 A 
ATOM     15  C   UNL     1       2.902   4.378   0.447  0.00  0.00    +0.000 A 
ATOM     16  C   UNL     1       2.556   3.024   0.507  0.00  0.00    +0.000 A 
ENDBRANCH   3  11
BRANCH  10  17
ATOM     17  C   UNL     1       1.600  -1.989  -1.431  0.00  0.00    +0.000 C 
BRANCH  17  18
ATOM     18  C   UNL     1       1.309  -1.264  -2.730  0.00  0.00    +0.000 A 
ATOM     19  C   UNL     1       2.257  -0.407  -3.295  0.00  0.00    +0.000 A 
ATOM     20  C   UNL     1       1.941   0.258  -4.470  0.00  0.00    +0.000 A 
ATOM     21  N   UNL     1       0.763   0.126  -5.115  0.00  0.00    +0.000 NA
ATOM     22  C   UNL     1      -0.137  -0.711  -4.559  0.00  0.00    +0.000 A 
ATOM     23  C   UNL     1       0.086  -1.420  -3.388  0.00  0.00    +0.000 A 
ENDBRANCH  17  18
ENDBRANCH  10  17
BRANCH  10  24
ATOM     24  C   UNL     1       1.559  -2.031   1.162  0.00  0.00    +0.000 C 
BRANCH  24  25
ATOM     25  C   UNL     1       2.896  -2.728   1.261  0.00  0.00    +0.000 A 
ATOM     26  C   UNL     1       4.019  -2.065   1.761  0.00  0.00    +0.000 A 
ATOM     27  C   UNL     1       5.224  -2.747   1.830  0.00  0.00    +0.000 A 
ATOM     28  N   UNL     1       5.383  -4.033   1.451  0.00  0.00    +0.000 NA
ATOM     29  C   UNL     1       4.288  -4.660   0.977  0.00  0.00    +0.000 A 
ATOM     30  C   UNL     1       3.041  -4.061   0.865  0.00  0.00    +0.000 A 
ENDBRANCH  24  25
ENDBRANCH  10  24
TORSDOF 5
