REMARK  Name = *****
REMARK  3 active torsions:
REMARK  status: ('A' for Active; 'I' for Inactive)
REMARK    1  A    between atoms: C_1  and  C_2
REMARK    2  A    between atoms: C_4  and  C_5
REMARK    3  A    between atoms: C_6  and  C_8
REMARK                            x       y       z     vdW  Elec       q    Type
REMARK                         _______ _______ _______ _____ _____    ______ ____
ROOT
ATOM      1  C   UNL     1      -1.515  -2.213   0.788  0.00  0.00    +0.000 C 
ATOM      2  C   UNL     1      -1.033  -3.356   1.305  0.00  0.00    +0.000 C 
ATOM      3  C   UNL     1       0.379  -3.781   1.632  0.00  0.00    +0.000 C 
ATOM      4  O   UNL     1       1.413  -3.156   1.485  0.00  0.00    +0.000 OA
ATOM      5  N   UNL     1       0.271  -5.062   2.147  0.00  0.00    +0.000 N 
ATOM      6  C   UNL     1      -1.050  -5.488   2.177  0.00  0.00    +0.000 A 
ATOM      7  C   UNL     1      -1.513  -6.708   2.627  0.00  0.00    +0.000 A 
ATOM      8  C   UNL     1      -2.889  -6.934   2.567  0.00  0.00    +0.000 A 
ATOM      9  C   UNL     1      -3.757  -5.947   2.066  0.00  0.00    +0.000 A 
ATOM     10  C   UNL     1      -3.263  -4.716   1.616  0.00  0.00    +0.000 A 
ATOM     11  C   UNL     1      -1.897  -4.495   1.677  0.00  0.00    +0.000 A 
ATOM     12  H   UNL     1       1.035  -5.602   2.453  0.00  0.00    +0.000 HD
ENDROOT
BRANCH   1  18
ATOM     13  C   UNL     1       2.371   0.711  -0.017  0.00  0.00    +0.000 C 
ATOM     14  C   UNL     1       0.940   0.324   0.007  0.00  0.00    +0.000 A 
ATOM     15  C   UNL     1      -0.191   1.008  -0.371  0.00  0.00    +0.000 A 
ATOM     16  C   UNL     1      -1.311   0.163  -0.137  0.00  0.00    +0.000 A 
ATOM     17  C   UNL     1      -2.731   0.516  -0.409  0.00  0.00    +0.000 C 
ATOM     18  C   UNL     1      -0.827  -1.034   0.384  0.00  0.00    +0.000 A 
ATOM     19  N   UNL     1       0.540  -0.909   0.461  0.00  0.00    +0.000 N 
ATOM     20  H   UNL     1       1.148  -1.607   0.795  0.00  0.00    +0.000 HD
ENDBRANCH   1  18
TORSDOF 1
