REMARK  Name = *****
REMARK  4 active torsions:
REMARK  status: ('A' for Active; 'I' for Inactive)
REMARK    1  A    between atoms: C_1  and  O_2
REMARK    2  A    between atoms: O_2  and  C_3
REMARK    3  A    between atoms: C_9  and  C_10
REMARK    4  A    between atoms: C_19  and  C_21
REMARK                            x       y       z     vdW  Elec       q    Type
REMARK                         _______ _______ _______ _____ _____    ______ ____
ROOT
ATOM      1  C   UNL     1       4.308   1.348  -1.260  0.00  0.00    +0.000 C 
ATOM      2  F   UNL     1       5.383   2.112  -1.653  0.00  0.00    +0.000 F 
ATOM      3  C   UNL     1       3.113   1.621  -2.240  0.00  0.00    +0.000 C 
ATOM      4  O   UNL     1       2.482   2.658  -2.391  0.00  0.00    +0.000 OA
ATOM      5  N   UNL     1       2.895   0.453  -2.974  0.00  0.00    +0.000 N 
ATOM      6  C   UNL     1       3.751  -0.560  -2.573  0.00  0.00    +0.000 A 
ATOM      7  C   UNL     1       4.599  -0.112  -1.561  0.00  0.00    +0.000 A 
ATOM      8  C   UNL     1       5.550  -0.956  -1.013  0.00  0.00    +0.000 A 
ATOM      9  C   UNL     1       5.617  -2.270  -1.490  0.00  0.00    +0.000 A 
ATOM     10  C   UNL     1       4.747  -2.727  -2.510  0.00  0.00    +0.000 A 
ATOM     11  C   UNL     1       3.797  -1.849  -3.061  0.00  0.00    +0.000 A 
ATOM     12  H   UNL     1       2.220   0.361  -3.685  0.00  0.00    +0.000 HD
ENDROOT
BRANCH   1  19
ATOM     13  C   UNL     1       2.811   1.056   0.830  0.00  0.00    +0.000 A 
ATOM     14  C   UNL     1       2.549   1.343   2.176  0.00  0.00    +0.000 A 
ATOM     15  C   UNL     1       3.388   2.193   2.900  0.00  0.00    +0.000 A 
ATOM     16  C   UNL     1       4.497   2.757   2.283  0.00  0.00    +0.000 A 
ATOM     17 CL   UNL     1       5.532   3.803   3.174  0.00  0.00    +0.000 Cl
ATOM     18  C   UNL     1       4.776   2.475   0.949  0.00  0.00    +0.000 A 
ATOM     19  C   UNL     1       3.941   1.619   0.200  0.00  0.00    +0.000 A 
BRANCH  13  21
ATOM     20  C   UNL     1       0.769  -0.158   0.579  0.00  0.00    +0.000 C 
ATOM     21  O   UNL     1       2.039   0.225   0.064  0.00  0.00    +0.000 OA
ENDBRANCH  13  21
ENDBRANCH   1  19
BRANCH  10  22
ATOM     22  C   UNL     1       4.821  -4.150  -3.010  0.00  0.00    +0.000 C 
ATOM     23  F   UNL     1       5.825  -4.877  -2.447  0.00  0.00    +0.000 F 
ATOM     24  F   UNL     1       3.674  -4.843  -2.766  0.00  0.00    +0.000 F 
ATOM     25  F   UNL     1       5.018  -4.218  -4.356  0.00  0.00    +0.000 F 
ENDBRANCH  10  22
TORSDOF 3
