REMARK  Name = *****
REMARK  3 active torsions:
REMARK  status: ('A' for Active; 'I' for Inactive)
REMARK    1  A    between atoms: C_2  and  C_5
REMARK    2  A    between atoms: C_8  and  C_9
REMARK    3  A    between atoms: C_9  and  N_10
REMARK                            x       y       z     vdW  Elec       q    Type
REMARK                         _______ _______ _______ _____ _____    ______ ____
ROOT
ATOM      1  N   UNL     1       4.454   4.672   3.711  0.00  0.00    +0.000 N 
ATOM      2  C   UNL     1       3.348   5.527   3.753  0.00  0.00    +0.000 C 
ATOM      3  O   UNL     1       2.199   5.230   3.460  0.00  0.00    +0.000 OA
ATOM      4  C   UNL     1       3.853   6.894   4.242  0.00  0.00    +0.000 C 
ATOM      5  C   UNL     1       3.125   7.314   5.527  0.00  0.00    +0.000 C 
ATOM      6  O   UNL     1       2.812   8.732   5.465  0.00  0.00    +0.000 OA
ATOM      7  C   UNL     1       2.916   9.046   4.135  0.00  0.00    +0.000 A 
ATOM      8  C   UNL     1       3.494   8.038   3.356  0.00  0.00    +0.000 A 
ATOM      9  C   UNL     1       3.691   8.210   1.992  0.00  0.00    +0.000 A 
ATOM     10  C   UNL     1       3.279   9.420   1.468  0.00  0.00    +0.000 A 
ATOM     11  O   UNL     1       3.382   9.789   0.162  0.00  0.00    +0.000 OA
ATOM     12  C   UNL     1       2.807  11.112   0.204  0.00  0.00    +0.000 C 
ATOM     13  O   UNL     1       2.391  11.518   1.524  0.00  0.00    +0.000 OA
ATOM     14  C   UNL     1       2.712  10.412   2.249  0.00  0.00    +0.000 A 
ATOM     15  C   UNL     1       2.517  10.259   3.606  0.00  0.00    +0.000 A 
ATOM     16  C   UNL     1       5.332   6.662   4.411  0.00  0.00    +0.000 A 
ATOM     17  C   UNL     1       6.329   7.536   4.819  0.00  0.00    +0.000 A 
ATOM     18  C   UNL     1       7.638   7.056   4.887  0.00  0.00    +0.000 A 
ATOM     19  C   UNL     1       7.932   5.723   4.552  0.00  0.00    +0.000 A 
ATOM     20  C   UNL     1       6.921   4.848   4.146  0.00  0.00    +0.000 A 
ATOM     21  C   UNL     1       5.629   5.337   4.083  0.00  0.00    +0.000 A 
ENDROOT
BRANCH   1  22
ATOM     22  C   UNL     1       4.379   3.291   3.293  0.00  0.00    +0.000 C 
BRANCH  22  26
ATOM     23  C   UNL     1       6.226   2.397   0.346  0.00  0.00    +0.000 A 
ATOM     24  C   UNL     1       5.263   3.140  -0.311  0.00  0.00    +0.000 A 
ATOM     25  C   UNL     1       4.374   3.621   0.680  0.00  0.00    +0.000 A 
ATOM     26  C   UNL     1       4.846   3.151   1.888  0.00  0.00    +0.000 A 
ATOM     27  O   UNL     1       5.970   2.404   1.691  0.00  0.00    +0.000 OA
BRANCH  23  29
ATOM     28  F   UNL     1       7.602   1.753  -1.456  0.00  0.00    +0.000 F 
ATOM     29  C   UNL     1       7.414   1.636  -0.114  0.00  0.00    +0.000 C 
ATOM     30  F   UNL     1       7.304   0.308   0.148  0.00  0.00    +0.000 F 
ATOM     31  F   UNL     1       8.559   2.064   0.478  0.00  0.00    +0.000 F 
ENDBRANCH  23  29
ENDBRANCH  22  26
ENDBRANCH   1  22
TORSDOF 3
