REMARK  Name = *****
REMARK  1 active torsions:
REMARK  status: ('A' for Active; 'I' for Inactive)
REMARK    1  A    between atoms: C_1  and  C_2
REMARK                            x       y       z     vdW  Elec       q    Type
REMARK                         _______ _______ _______ _____ _____    ______ ____
ROOT
ATOM      1  C   UNL     1       0.478  -0.134  -0.446  0.00  0.00    +0.000 C 
ATOM      2  C   UNL     1       1.862  -0.696  -0.120  0.00  0.00    +0.000 C 
ATOM      3  C   UNL     1       2.414  -1.491  -1.341  0.00  0.00    +0.000 C 
ATOM      4  C   UNL     1       3.873  -1.753  -1.170  0.00  0.00    +0.000 A 
ATOM      5  C   UNL     1       4.616  -1.068  -0.230  0.00  0.00    +0.000 A 
ATOM      6  N   UNL     1       5.904  -1.527  -0.292  0.00  0.00    +0.000 N 
ATOM      7  C   UNL     1       6.012  -2.482  -1.283  0.00  0.00    +0.000 A 
ATOM      8  C   UNL     1       7.131  -3.210  -1.711  0.00  0.00    +0.000 A 
ATOM      9  C   UNL     1       6.942  -4.129  -2.748  0.00  0.00    +0.000 A 
ATOM     10 CL   UNL     1       8.294  -5.043  -3.304  0.00  0.00    +0.000 Cl
ATOM     11  C   UNL     1       5.687  -4.307  -3.325  0.00  0.00    +0.000 A 
ATOM     12  F   UNL     1       5.514  -5.191  -4.320  0.00  0.00    +0.000 F 
ATOM     13  C   UNL     1       4.579  -3.577  -2.891  0.00  0.00    +0.000 A 
ATOM     14  C   UNL     1       4.743  -2.645  -1.849  0.00  0.00    +0.000 A 
ATOM     15  C   UNL     1       4.088  -0.034   0.720  0.00  0.00    +0.000 C 
ATOM     16  N   UNL     1       2.742   0.432   0.288  0.00  0.00    +0.000 N 
ATOM     17  C   UNL     1       4.033  -0.616   2.192  0.00  0.00    +0.000 C 
ATOM     18  O   UNL     1       3.446  -1.604   2.607  0.00  0.00    +0.000 OA
ATOM     19  N   UNL     1       4.831   0.207   2.990  0.00  0.00    +0.000 N 
ATOM     20  C   UNL     1       5.405   1.230   2.254  0.00  0.00    +0.000 A 
ATOM     21  C   UNL     1       6.252   2.212   2.724  0.00  0.00    +0.000 A 
ATOM     22  C   UNL     1       6.734   3.143   1.798  0.00  0.00    +0.000 A 
ATOM     23  C   UNL     1       6.360   3.064   0.445  0.00  0.00    +0.000 A 
ATOM     24 CL   UNL     1       6.977   4.221  -0.670  0.00  0.00    +0.000 Cl
ATOM     25  C   UNL     1       5.500   2.062  -0.012  0.00  0.00    +0.000 A 
ATOM     26  C   UNL     1       5.023   1.143   0.914  0.00  0.00    +0.000 A 
ATOM     27  H   UNL     1       6.643  -1.223   0.283  0.00  0.00    +0.000 HD
ATOM     28  H   UNL     1       2.302   0.928   1.062  0.00  0.00    +0.000 HD
ATOM     29  H   UNL     1       2.866   1.041  -0.521  0.00  0.00    +0.000 HD
ATOM     30  H   UNL     1       4.968   0.077   3.956  0.00  0.00    +0.000 HD
ENDROOT
TORSDOF 0
