REMARK  Name = *****
REMARK  3 active torsions:
REMARK  status: ('A' for Active; 'I' for Inactive)
REMARK    1  A    between atoms: C_1  and  O_2
REMARK    2  A    between atoms: O_2  and  C_3
REMARK    3  A    between atoms: C_11  and  C_12
REMARK                            x       y       z     vdW  Elec       q    Type
REMARK                         _______ _______ _______ _____ _____    ______ ____
ROOT
ATOM      1  C   UNL     1       3.082  -0.987   0.887  0.00  0.00    +0.000 A 
ATOM      2  C   UNL     1       4.139  -0.213   1.408  0.00  0.00    +0.000 A 
ATOM      3  C   UNL     1       4.948  -0.688   2.442  0.00  0.00    +0.000 A 
ATOM      4  C   UNL     1       4.669  -1.947   2.928  0.00  0.00    +0.000 A 
ATOM      5  N   UNL     1       5.341  -2.611   3.947  0.00  0.00    +0.000 N 
ATOM      6  C   UNL     1       4.796  -3.861   4.182  0.00  0.00    +0.000 C 
ATOM      7  O   UNL     1       5.172  -4.666   5.013  0.00  0.00    +0.000 OA
ATOM      8  C   UNL     1       3.656  -3.996   3.198  0.00  0.00    +0.000 C 
ATOM      9  C   UNL     1       2.796  -5.007   2.991  0.00  0.00    +0.000 C 
ATOM     10  C   UNL     1       3.630  -2.736   2.428  0.00  0.00    +0.000 A 
ATOM     11  C   UNL     1       2.824  -2.264   1.401  0.00  0.00    +0.000 A 
ATOM     12  H   UNL     1       6.108  -2.239   4.440  0.00  0.00    +0.000 HD
ENDROOT
BRANCH   9  13
ATOM     13  C   UNL     1       2.711  -6.259   3.651  0.00  0.00    +0.000 A 
ATOM     14  C   UNL     1       1.861  -7.338   3.481  0.00  0.00    +0.000 A 
ATOM     15  N   UNL     1       2.149  -8.352   4.356  0.00  0.00    +0.000 NA
ATOM     16  C   UNL     1       3.164  -7.912   5.060  0.00  0.00    +0.000 A 
ATOM     17  N   UNL     1       3.538  -6.657   4.672  0.00  0.00    +0.000 N 
ATOM     18  H   UNL     1       4.273  -6.128   5.058  0.00  0.00    +0.000 HD
ENDBRANCH   9  13
BRANCH   1  20
ATOM     19  C   UNL     1       1.294  -1.094  -0.683  0.00  0.00    +0.000 C 
ATOM     20  O   UNL     1       2.385  -0.376  -0.121  0.00  0.00    +0.000 OA
ENDBRANCH   1  20
TORSDOF 2
