REMARK  Name = *****
REMARK  2 active torsions:
REMARK  status: ('A' for Active; 'I' for Inactive)
REMARK    1  A    between atoms: O_1  and  C_2
REMARK    2  A    between atoms: C_5  and  N_8
REMARK                            x       y       z     vdW  Elec       q    Type
REMARK                         _______ _______ _______ _____ _____    ______ ____
ROOT
ATOM      1  N   UNL     1      -3.302  -0.305  -0.163  0.00  0.00    +0.000 NA
ATOM      2  C   UNL     1      -3.981  -0.605   0.899  0.00  0.00    +0.000 C 
ATOM      3  C   UNL     1      -3.509  -0.916   2.336  0.00  0.00    +0.000 C 
ATOM      4  O   UNL     1      -2.374  -0.952   2.753  0.00  0.00    +0.000 OA
ATOM      5  N   UNL     1      -4.666  -1.157   3.051  0.00  0.00    +0.000 N 
ATOM      6  C   UNL     1      -5.789  -1.040   2.241  0.00  0.00    +0.000 A 
ATOM      7  C   UNL     1      -7.107  -1.212   2.607  0.00  0.00    +0.000 A 
ATOM      8  C   UNL     1      -8.078  -1.041   1.613  0.00  0.00    +0.000 A 
ATOM      9  C   UNL     1      -7.717  -0.706   0.291  0.00  0.00    +0.000 A 
ATOM     10  C   UNL     1      -6.376  -0.535  -0.062  0.00  0.00    +0.000 A 
ATOM     11  C   UNL     1      -5.438  -0.710   0.935  0.00  0.00    +0.000 A 
ATOM     12  H   UNL     1      -4.692  -1.383   4.009  0.00  0.00    +0.000 HD
ENDROOT
BRANCH   1  16
ATOM     13  C   UNL     1       0.872  -0.031   0.012  0.00  0.00    +0.000 A 
ATOM     14  C   UNL     1       0.278  -1.266  -0.227  0.00  0.00    +0.000 A 
ATOM     15  C   UNL     1      -1.116  -1.356  -0.278  0.00  0.00    +0.000 A 
ATOM     16  C   UNL     1      -1.909  -0.222  -0.074  0.00  0.00    +0.000 A 
ATOM     17  C   UNL     1      -1.293   1.013   0.145  0.00  0.00    +0.000 A 
ATOM     18  C   UNL     1       0.099   1.110   0.194  0.00  0.00    +0.000 A 
BRANCH  13  19
ATOM     19  O   UNL     1       2.228   0.105   0.069  0.00  0.00    +0.000 OA
ATOM     20  H   UNL     1       2.779  -0.643  -0.049  0.00  0.00    +0.000 HD
ENDBRANCH  13  19
ENDBRANCH   1  16
TORSDOF 2
