REMARK  Name = *****
REMARK  5 active torsions:
REMARK  status: ('A' for Active; 'I' for Inactive)
REMARK    1  A    between atoms: N_1  and  C_2
REMARK    2  A    between atoms: C_3  and  C_5
REMARK    3  A    between atoms: C_6  and  C_7
REMARK    4  A    between atoms: C_9  and  C_10
REMARK    5  A    between atoms: C_22  and  C_23
REMARK                            x       y       z     vdW  Elec       q    Type
REMARK                         _______ _______ _______ _____ _____    ______ ____
ROOT
ATOM      1  C   UNL     1       4.072  -0.829   1.191  0.00  0.00    +0.000 A 
ATOM      2  C   UNL     1       4.780   0.199   1.802  0.00  0.00    +0.000 A 
ATOM      3  C   UNL     1       4.434   1.613   2.106  0.00  0.00    +0.000 C 
ATOM      4  N   UNL     1       5.994  -0.308   2.199  0.00  0.00    +0.000 N 
ATOM      5  C   UNL     1       6.093  -1.645   1.911  0.00  0.00    +0.000 A 
ATOM      6  C   UNL     1       4.908  -2.002   1.274  0.00  0.00    +0.000 A 
ATOM      7  C   UNL     1       4.528  -3.354   0.764  0.00  0.00    +0.000 C 
ATOM      8  H   UNL     1       6.701   0.220   2.635  0.00  0.00    +0.000 HD
ENDROOT
BRANCH   5   9
ATOM      9  C   UNL     1       7.241  -2.416   2.254  0.00  0.00    +0.000 C 
ATOM     10  C   UNL     1       8.351  -2.057   2.921  0.00  0.00    +0.000 C 
ATOM     11  C   UNL     1       8.764  -0.735   3.527  0.00  0.00    +0.000 C 
ATOM     12  O   UNL     1       8.165   0.324   3.512  0.00  0.00    +0.000 OA
ATOM     13  N   UNL     1       9.997  -0.964   4.112  0.00  0.00    +0.000 N 
ATOM     14  C   UNL     1      10.409  -2.278   3.934  0.00  0.00    +0.000 A 
ATOM     15  C   UNL     1       9.452  -2.998   3.211  0.00  0.00    +0.000 A 
ATOM     16  C   UNL     1       9.667  -4.334   2.914  0.00  0.00    +0.000 A 
ATOM     17  C   UNL     1      10.856  -4.922   3.359  0.00  0.00    +0.000 A 
ATOM     18 CL   UNL     1      11.161  -6.580   3.007  0.00  0.00    +0.000 Cl
ATOM     19  C   UNL     1      11.809  -4.187   4.086  0.00  0.00    +0.000 A 
ATOM     20  C   UNL     1      11.588  -2.840   4.383  0.00  0.00    +0.000 A 
ATOM     21  H   UNL     1      10.517  -0.282   4.595  0.00  0.00    +0.000 HD
ENDBRANCH   5   9
BRANCH   1  24
ATOM     22  N   UNL     1       2.396   0.443   0.043  0.00  0.00    +0.000 N 
ATOM     23  C   UNL     1       1.164   0.613  -0.680  0.00  0.00    +0.000 C 
ATOM     24  C   UNL     1       2.724  -0.768   0.613  0.00  0.00    +0.000 C 
ATOM     25  O   UNL     1       1.972  -1.738   0.589  0.00  0.00    +0.000 OA
ATOM     26  H   UNL     1       3.014   1.204   0.132  0.00  0.00    +0.000 HD
ENDBRANCH   1  24
TORSDOF 2
