REMARK  Name = *****
REMARK  3 active torsions:
REMARK  status: ('A' for Active; 'I' for Inactive)
REMARK    1  A    between atoms: C_7  and  C_24
REMARK    2  A    between atoms: C_10  and  C_11
REMARK    3  A    between atoms: N_12  and  C_13
REMARK                            x       y       z     vdW  Elec       q    Type
REMARK                         _______ _______ _______ _____ _____    ______ ____
ROOT
ATOM      1  O   UNL     1      -3.000   0.872   0.142  0.00  0.00    +0.000 OA
ATOM      2  C   UNL     1      -1.810   0.620   0.095  0.00  0.00    +0.000 C 
ATOM      3  N   UNL     1      -0.749   1.512   0.095  0.00  0.00    +0.000 N 
ATOM      4  C   UNL     1       0.472   0.843   0.029  0.00  0.00    +0.000 A 
ATOM      5  C   UNL     1       1.728   1.409   0.007  0.00  0.00    +0.000 A 
ATOM      6  C   UNL     1       2.823   0.539  -0.065  0.00  0.00    +0.000 A 
ATOM      7  C   UNL     1       2.656  -0.868  -0.115  0.00  0.00    +0.000 A 
ATOM      8  C   UNL     1       1.355  -1.405  -0.090  0.00  0.00    +0.000 A 
ATOM      9  C   UNL     1       0.277  -0.539  -0.018  0.00  0.00    +0.000 A 
ATOM     10  C   UNL     1      -1.171  -0.738   0.024  0.00  0.00    +0.000 C 
ATOM     11  H   UNL     1      -0.845   2.491   0.136  0.00  0.00    +0.000 HD
ENDROOT
BRANCH   7  12
ATOM     12  C   UNL     1       3.822  -1.740  -0.192  0.00  0.00    +0.000 A 
ATOM     13  C   UNL     1       5.190  -1.564  -0.233  0.00  0.00    +0.000 A 
ATOM     14  N   UNL     1       5.828  -2.777  -0.307  0.00  0.00    +0.000 NA
ATOM     15  C   UNL     1       4.838  -3.639  -0.309  0.00  0.00    +0.000 A 
ATOM     16  O   UNL     1       3.594  -3.093  -0.242  0.00  0.00    +0.000 OA
ENDBRANCH   7  12
BRANCH  10  17
ATOM     17  C   UNL     1      -1.858  -1.888   0.005  0.00  0.00    +0.000 C 
ATOM     18  N   UNL     1      -3.223  -2.027   0.038  0.00  0.00    +0.000 N 
ATOM     19  H   UNL     1      -3.728  -1.182   0.039  0.00  0.00    +0.000 HD
BRANCH  18  20
ATOM     20  C   UNL     1      -4.010  -3.189   0.071  0.00  0.00    +0.000 A 
ATOM     21  C   UNL     1      -5.407  -3.049   0.015  0.00  0.00    +0.000 A 
ATOM     22  C   UNL     1      -6.241  -4.170   0.024  0.00  0.00    +0.000 A 
ATOM     23  C   UNL     1      -5.692  -5.452   0.087  0.00  0.00    +0.000 A 
ATOM     24  C   UNL     1      -6.656  -6.594   0.095  0.00  0.00    +0.000 C 
ATOM     25  S   UNL     1      -8.253  -5.792  -0.003  0.00  0.00    +0.000 S 
ATOM     26  O   UNL     1      -8.968  -6.036   1.237  0.00  0.00    +0.000 OA
ATOM     27  O   UNL     1      -8.853  -6.115  -1.284  0.00  0.00    +0.000 OA
ATOM     28  C   UNL     1      -7.732  -4.080  -0.033  0.00  0.00    +0.000 C 
ATOM     29  C   UNL     1      -4.312  -5.614   0.139  0.00  0.00    +0.000 A 
ATOM     30  C   UNL     1      -3.481  -4.487   0.127  0.00  0.00    +0.000 A 
ENDBRANCH  18  20
ENDBRANCH  10  17
TORSDOF 3
