@<TRIPOS>MOLECULE
DrugBank_stilbene_8
 48 52 0 0 0
SMALL
GASTEIGER

@<TRIPOS>ATOM
      1 N          88.4690   62.2410   85.2960 N.pl3   1  UNL1       -0.2956
      2 N          87.9380   64.3710   86.0240 N.2     1  UNL1       -0.3312
      3 N          90.0040   67.3600   86.4210 N.2     1  UNL1       -0.2605
      4 N          87.3770   66.4540   86.7540 N.2     1  UNL1       -0.2251
      5 N          91.8430   65.4190   85.3920 N.pl3   1  UNL1       -0.2480
      6 N          90.1390   63.8420   85.3750 N.2     1  UNL1        0.0053
      7 N          88.6590   70.6310   86.4820 N.pl3   1  UNL1       -0.2937
      8 C          88.8660   63.5280   85.5880 C.cat   1  UNL1        0.3832
      9 C          88.3140   65.6160   86.2980 C.2     1  UNL1        0.2228
     10 C          89.6250   66.0770   86.1300 C.3     1  UNL1        0.2234
     11 C          89.0450   68.1830   86.9030 C.2     1  UNL1        0.0730
     12 C          87.7500   67.7210   87.0600 C.2     1  UNL1        0.0531
     13 C          90.4990   65.1020   85.6620 C.cat   1  UNL1        0.3232
     14 C          89.4160   69.6090   87.2660 C.3     1  UNL1        0.0605
     15 C          89.0530   70.6070   85.0940 C.ar    1  UNL1        0.0375
     16 C          90.4020   70.8150   84.7500 C.ar    1  UNL1       -0.0401
     17 C          90.8350   70.7490   83.4220 C.ar    1  UNL1       -0.0600
     18 C          89.9260   70.4850   82.3990 C.ar    1  UNL1       -0.0614
     19 C          88.5780   70.3080   82.6990 C.ar    1  UNL1       -0.0568
     20 C          88.1440   70.3820   84.0280 C.ar    1  UNL1       -0.0257
     21 C          86.7160   70.2580   84.3360 C.3     1  UNL1       -0.0219
     22 C          86.2720   71.4140   84.8540 C.3     1  UNL1       -0.0219
     23 C          86.2580   71.4260   86.3240 C.ar    1  UNL1       -0.0257
     24 C          85.0730   71.8540   86.9440 C.ar    1  UNL1       -0.0568
     25 C          84.9970   71.9390   88.3290 C.ar    1  UNL1       -0.0614
     26 C          86.1080   71.6150   89.0940 C.ar    1  UNL1       -0.0600
     27 C          87.2930   71.1910   88.4780 C.ar    1  UNL1       -0.0401
     28 C          87.4120   71.0560   87.0760 C.ar    1  UNL1        0.0375
     29 H          89.1267   61.5850   84.9700 H       1  UNL1        0.1483
     30 H          87.5277   61.9776   85.4134 H       1  UNL1        0.1483
     31 H          92.4559   64.7233   85.0609 H       1  UNL1        0.2882
     32 H          92.1705   66.3365   85.5342 H       1  UNL1        0.2882
     33 H          89.9636   67.0911   86.1734 H       1  UNL1        0.0765
     34 H          87.0362   68.3700   87.4264 H       1  UNL1        0.0849
     35 H          89.2132   69.7591   88.3058 H       1  UNL1        0.0533
     36 H          90.4534   69.7362   87.0368 H       1  UNL1        0.0533
     37 H          91.0866   71.0208   85.4943 H       1  UNL1        0.0636
     38 H          91.8317   70.8964   83.1985 H       1  UNL1        0.0618
     39 H          90.2513   70.4209   81.4217 H       1  UNL1        0.0618
     40 H          87.9001   70.1226   81.9433 H       1  UNL1        0.0621
     41 H          86.5703   69.4695   85.0445 H       1  UNL1        0.0317
     42 H          86.1742   70.0348   83.4407 H       1  UNL1        0.0317
     43 H          85.2751   71.5823   84.5036 H       1  UNL1        0.0317
     44 H          86.9461   72.1823   84.5375 H       1  UNL1        0.0317
     45 H          84.2546   72.1067   86.3683 H       1  UNL1        0.0621
     46 H          84.1215   72.2406   88.7846 H       1  UNL1        0.0618
     47 H          86.0615   71.6866   90.1225 H       1  UNL1        0.0618
     48 H          88.1089   70.9691   89.0697 H       1  UNL1        0.0636
@<TRIPOS>BOND
     1    18    19   ar
     2    18    17   ar
     3    19    20   ar
     4    17    16   ar
     5    20    21    1
     6    20    15   ar
     7    21    22    1
     8    16    15   ar
     9    22    23    1
    10    15     7    1
    11     1     8    1
    12     6     8    1
    13     6    13    2
    14     5    13    1
    15     8     2    2
    16    13    10    1
    17     2     9    2
    18    10     9    1
    19    10     3    1
    20     9     4    1
    21    23    24   ar
    22    23    28   ar
    23     3    11    2
    24     7    28    1
    25     7    14    1
    26     4    12    2
    27    11    12    1
    28    11    14    1
    29    24    25   ar
    30    28    27   ar
    31    25    26   ar
    32    27    26   ar
    33     1    29    1
    34     1    30    1
    35     5    31    1
    36     5    32    1
    37    10    33    1
    38    12    34    1
    39    14    35    1
    40    14    36    1
    41    16    37    1
    42    17    38    1
    43    18    39    1
    44    19    40    1
    45    21    41    1
    46    21    42    1
    47    22    43    1
    48    22    44    1
    49    24    45    1
    50    25    46    1
    51    26    47    1
    52    27    48    1
