@<TRIPOS>MOLECULE
TOP3
 43 45 0 0 0
SMALL
GASTEIGER

@<TRIPOS>ATOM
      1 C          87.6370   63.7460   88.5110 C.3     1  TOP3       -0.0359
      2 C          88.1200   65.0100   87.8440 C.ar    1  TOP3       -0.0024
      3 C          87.4880   66.2470   88.0910 C.ar    1  TOP3       -0.0021
      4 C          87.9390   67.4000   87.4160 C.ar    1  TOP3        0.1286
      5 C          89.0390   67.3520   86.5430 C.ar    1  TOP3        0.0011
      6 C          89.4800   68.6030   85.8310 C.3     1  TOP3       -0.0199
      7 C          88.3870   69.6560   85.8200 C.3     1  TOP3       -0.0048
      8 C          87.7530   69.8070   87.2090 C.3     1  TOP3        0.1330
      9 C          88.7490   70.2890   88.2830 C.3     1  TOP3       -0.0206
     10 C          89.7420   66.1360   86.3750 C.ar    1  TOP3       -0.0021
     11 C          89.2420   64.9780   87.0000 C.ar    1  TOP3        0.1234
     12 C          90.9770   66.0710   85.5130 C.3     1  TOP3       -0.0359
     13 C          86.2980   66.3350   89.0170 C.3     1  TOP3       -0.0359
     14 C          86.5850   70.8080   87.0920 C.ar    1  TOP3       -0.0046
     15 C          85.9110   71.2800   88.2330 C.ar    1  TOP3       -0.0548
     16 C          84.8410   72.1710   88.1240 C.ar    1  TOP3       -0.0614
     17 C          84.4170   72.6040   86.8720 C.ar    1  TOP3       -0.0617
     18 C          85.0600   72.1420   85.7260 C.ar    1  TOP3       -0.0614
     19 C          86.1300   71.2490   85.8350 C.ar    1  TOP3       -0.0548
     20 O          87.2240   68.5450   87.6570 O.3     1  TOP3       -0.4808
     21 O          89.8400   63.7600   86.8020 O.3     1  TOP3       -0.5062
     22 H          88.2430   62.9224   88.1957 H       1  TOP3        0.0279
     23 H          86.6186   63.5649   88.2371 H       1  TOP3        0.0279
     24 H          87.7068   63.8541   89.5732 H       1  TOP3        0.0279
     25 H          90.3399   69.0006   86.3284 H       1  TOP3        0.0316
     26 H          89.7082   68.3477   84.8173 H       1  TOP3        0.0316
     27 H          87.6308   69.3678   85.1200 H       1  TOP3        0.0310
     28 H          88.8204   70.5934   85.5400 H       1  TOP3        0.0310
     29 H          89.1664   71.2285   87.9864 H       1  TOP3        0.0271
     30 H          89.5329   69.5688   88.3914 H       1  TOP3        0.0271
     31 H          88.2389   70.4041   89.2165 H       1  TOP3        0.0271
     32 H          91.1964   67.0457   85.1300 H       1  TOP3        0.0279
     33 H          90.8086   65.3975   84.6988 H       1  TOP3        0.0279
     34 H          91.8026   65.7236   86.0983 H       1  TOP3        0.0279
     35 H          85.9641   67.3500   89.0732 H       1  TOP3        0.0279
     36 H          86.5795   65.9976   89.9926 H       1  TOP3        0.0279
     37 H          85.5074   65.7197   88.6412 H       1  TOP3        0.0279
     38 H          86.2126   70.9622   89.1674 H       1  TOP3        0.0622
     39 H          84.3638   72.5089   88.9744 H       1  TOP3        0.0618
     40 H          83.6287   73.2653   86.7924 H       1  TOP3        0.0618
     41 H          84.7462   72.4593   84.7955 H       1  TOP3        0.0618
     42 H          86.5944   70.9072   84.9791 H       1  TOP3        0.0622
     43 H          90.5915   63.6918   86.2465 H       1  TOP3        0.2922
@<TRIPOS>BOND
     1    12    10    1
     2    18    19   ar
     3    18    17   ar
     4     7     6    1
     5     7     8    1
     6     6     5    1
     7    19    14   ar
     8    10     5   ar
     9    10    11   ar
    10     5     4   ar
    11    21    11    1
    12    17    16   ar
    13    11     2   ar
    14    14     8    1
    15    14    15   ar
    16     8    20    1
    17     8     9    1
    18     4    20    1
    19     4     3   ar
    20     2     3   ar
    21     2     1    1
    22     3    13    1
    23    16    15   ar
    24     1    22    1
    25     1    23    1
    26     1    24    1
    27     6    25    1
    28     6    26    1
    29     7    27    1
    30     7    28    1
    31     9    29    1
    32     9    30    1
    33     9    31    1
    34    12    32    1
    35    12    33    1
    36    12    34    1
    37    13    35    1
    38    13    36    1
    39    13    37    1
    40    15    38    1
    41    16    39    1
    42    17    40    1
    43    18    41    1
    44    19    42    1
    45    21    43    1
