@<TRIPOS>MOLECULE
*****
 39 43 0 0 0
SMALL
GASTEIGER

@<TRIPOS>ATOM
      1 N          89.4650   63.9520   87.2150 N.am    1  UNL1       -0.2815
      2 N          88.8670   69.1290   85.0010 N.ar    1  UNL1       -0.2846
      3 N          90.4830   69.3570   83.2860 N.ar    1  UNL1       -0.2369
      4 C          87.2670   67.2590   85.1530 C.2     1  UNL1        0.3318
      5 C          88.3690   65.9960   86.6950 C.3     1  UNL1        0.2177
      6 C          89.0030   67.3710   86.7990 C.3     1  UNL1        0.0317
      7 C          88.1440   68.2350   85.9010 C.3     1  UNL1        0.1397
      8 C          89.4230   64.9450   86.2450 C.2     1  UNL1        0.2660
      9 C          88.5700   64.2150   88.2400 C.ar    1  UNL1        0.0410
     10 C          88.3390   63.4460   89.3610 C.ar    1  UNL1       -0.0401
     11 C          87.3800   63.9050   90.2660 C.ar    1  UNL1       -0.0600
     12 C          86.6810   65.1040   90.0290 C.ar    1  UNL1       -0.0612
     13 C          86.9310   65.8660   88.8840 C.ar    1  UNL1       -0.0525
     14 C          87.8890   65.4090   87.9950 C.ar    1  UNL1        0.0260
     15 C          89.8020   68.6410   84.1150 C.ar    1  UNL1        0.1000
     16 C          90.2380   70.7350   83.2580 C.ar    1  UNL1        0.0778
     17 C          90.9570   71.5320   82.3640 C.ar    1  UNL1       -0.0355
     18 C          90.7370   72.9110   82.3030 C.ar    1  UNL1       -0.0597
     19 C          89.7910   73.5060   83.1370 C.ar    1  UNL1       -0.0609
     20 C          89.0660   72.7220   84.0340 C.ar    1  UNL1       -0.0474
     21 C          89.2960   71.3420   84.0880 C.ar    1  UNL1        0.0649
     22 C          88.5570   70.4830   85.0310 C.ar    1  UNL1        0.2623
     23 O          86.5740   67.5110   84.1810 O.2     1  UNL1       -0.2485
     24 O          87.3070   66.0410   85.7520 O.3     1  UNL1       -0.4421
     25 O          90.1010   64.9880   85.2310 O.2     1  UNL1       -0.2707
     26 O          87.7430   70.9810   85.8050 O.2     1  UNL1       -0.2669
     27 H          90.0539   63.1638   87.1792 H       1  UNL1        0.1549
     28 H          88.9776   67.7269   87.8078 H       1  UNL1        0.0338
     29 H          90.0338   67.3736   86.5120 H       1  UNL1        0.0338
     30 H          87.5900   68.9301   86.4967 H       1  UNL1        0.0647
     31 H          88.8541   62.5668   89.5244 H       1  UNL1        0.0636
     32 H          87.1811   63.3589   91.1188 H       1  UNL1        0.0618
     33 H          85.9746   65.4246   90.7097 H       1  UNL1        0.0618
     34 H          86.4168   66.7430   88.7066 H       1  UNL1        0.0622
     35 H          89.9708   67.6229   84.1144 H       1  UNL1        0.1030
     36 H          91.6575   71.0984   81.7425 H       1  UNL1        0.0639
     37 H          91.2756   73.4897   81.6397 H       1  UNL1        0.0618
     38 H          89.6278   74.5240   83.0906 H       1  UNL1        0.0618
     39 H          88.3645   73.1562   84.6540 H       1  UNL1        0.0626
@<TRIPOS>BOND
     1    18    17   ar
     2    18    19   ar
     3    17    16   ar
     4    19    20   ar
     5    16     3   ar
     6    16    21   ar
     7     3    15   ar
     8    20    21   ar
     9    21    22   ar
    10    15     2   ar
    11    23     4    2
    12     2    22   ar
    13     2     7    1
    14    22    26    2
    15     4    24    1
    16     4     7    1
    17    25     8    2
    18    24     5    1
    19     7     6    1
    20     8     5    1
    21     8     1   am
    22     5     6    1
    23     5    14    1
    24     1     9    1
    25    14     9   ar
    26    14    13   ar
    27     9    10   ar
    28    13    12   ar
    29    10    11   ar
    30    12    11   ar
    31     1    27    1
    32     6    28    1
    33     6    29    1
    34     7    30    1
    35    10    31    1
    36    11    32    1
    37    12    33    1
    38    13    34    1
    39    15    35    1
    40    17    36    1
    41    18    37    1
    42    19    38    1
    43    20    39    1
