@<TRIPOS>MOLECULE
TOP6
 41 46 0 0 0
SMALL
GASTEIGER

@<TRIPOS>ATOM
      1 N          89.5780   64.7030   87.0780 N.am    1  TOP6       -0.3025
      2 N          89.0380   67.9860   86.7410 N.ar    1  TOP6       -0.2315
      3 N          89.0870   66.3520   85.0150 N.ar    1  TOP6       -0.2826
      4 N          85.0540   65.5360   87.5720 N.am    1  TOP6       -0.2844
      5 C          89.7750   64.1920   85.7940 C.2     1  TOP6        0.2367
      6 C          88.4400   65.6220   87.2240 C.3     1  TOP6        0.0994
      7 C          88.8650   66.7780   86.3200 C.ar    1  TOP6        0.1354
      8 C          89.4460   68.9380   85.7890 C.ar    1  TOP6        0.0782
      9 C          89.6040   70.2640   86.1970 C.ar    1  TOP6       -0.0355
     10 C          90.0120   71.2450   85.2880 C.ar    1  TOP6       -0.0597
     11 C          90.2660   70.9070   83.9590 C.ar    1  TOP6       -0.0609
     12 C          90.1140   69.5870   83.5370 C.ar    1  TOP6       -0.0474
     13 C          89.7050   68.6120   84.4530 C.ar    1  TOP6        0.0649
     14 C          89.5300   67.2060   84.0300 C.ar    1  TOP6        0.2625
     15 C          88.8720   64.9200   84.7750 C.3     1  TOP6        0.1162
     16 C          87.4230   64.5600   85.1500 C.3     1  TOP6       -0.0032
     17 C          87.1610   64.9910   86.6200 C.3     1  TOP6        0.1013
     18 C          86.0070   66.0240   86.6940 C.2     1  TOP6        0.2301
     19 C          85.3850   64.2730   88.0290 C.ar    1  TOP6        0.0377
     20 C          84.6430   63.4730   88.8710 C.ar    1  TOP6       -0.0402
     21 C          85.1610   62.2140   89.1790 C.ar    1  TOP6       -0.0600
     22 C          86.3890   61.7920   88.6390 C.ar    1  TOP6       -0.0614
     23 C          87.1230   62.6230   87.7860 C.ar    1  TOP6       -0.0557
     24 C          86.6090   63.8760   87.4890 C.ar    1  TOP6       -0.0090
     25 O          90.4160   63.1730   85.5870 O.2     1  TOP6       -0.2735
     26 O          89.7700   66.8590   82.8790 O.2     1  TOP6       -0.2669
     27 O          85.9270   67.0770   86.0830 O.2     1  TOP6       -0.2744
     28 H          90.1614   64.4642   87.8342 H       1  TOP6        0.1495
     29 H          84.2427   66.0263   87.8377 H       1  TOP6        0.1548
     30 H          88.2271   65.8813   88.2400 H       1  TOP6        0.0593
     31 H          89.4179   70.5224   87.1786 H       1  TOP6        0.0639
     32 H          90.1255   72.2217   85.6014 H       1  TOP6        0.0618
     33 H          90.5659   71.6326   83.2892 H       1  TOP6        0.0618
     34 H          90.3020   69.3308   82.5551 H       1  TOP6        0.0626
     35 H          89.0724   64.6620   83.7561 H       1  TOP6        0.0626
     36 H          87.2791   63.5040   85.0543 H       1  TOP6        0.0304
     37 H          86.7432   65.0667   84.4972 H       1  TOP6        0.0304
     38 H          83.7410   63.7919   89.2580 H       1  TOP6        0.0636
     39 H          84.6376   61.5865   89.8093 H       1  TOP6        0.0618
     40 H          86.7538   60.8560   88.8753 H       1  TOP6        0.0618
     41 H          88.0230   62.3117   87.3884 H       1  TOP6        0.0621
@<TRIPOS>BOND
     1    26    14    2
     2    12    11   ar
     3    12    13   ar
     4    11    10   ar
     5    14    13   ar
     6    14     3   ar
     7    13     8   ar
     8    15     3    1
     9    15    16    1
    10    15     5    1
    11     3     7   ar
    12    16    17    1
    13    10     9   ar
    14    25     5    2
    15     8     9   ar
    16     8     2   ar
    17     5     1   am
    18    27    18    2
    19     7     2   ar
    20     7     6    1
    21    17    18    1
    22    17     6    1
    23    17    24    1
    24    18     4   am
    25     1     6    1
    26    24    23   ar
    27    24    19   ar
    28     4    19    1
    29    23    22   ar
    30    19    20   ar
    31    22    21   ar
    32    20    21   ar
    33     1    28    1
    34     4    29    1
    35     6    30    1
    36     9    31    1
    37    10    32    1
    38    11    33    1
    39    12    34    1
    40    15    35    1
    41    16    36    1
    42    16    37    1
    43    20    38    1
    44    21    39    1
    45    22    40    1
    46    23    41    1
