MODEL 1
REMARK VINA RESULT:      -4.3      0.000      0.000
REMARK  Name = *****
REMARK  0 active torsions:
REMARK  status: ('A' for Active; 'I' for Inactive)
REMARK                            x       y       z     vdW  Elec       q    Type
REMARK                         _______ _______ _______ _____ _____    ______ ____
ROOT
ATOM      1  C   UNL     1     103.461 126.749  82.237  0.00  0.00    +0.000 A 
ATOM      2  C   UNL     1     102.277 126.136  81.817  0.00  0.00    +0.000 A 
ATOM      3  C   UNL     1     101.092 126.639  82.310  0.00  0.00    +0.000 A 
ATOM      4  C   UNL     1     101.042 127.720  83.194  0.00  0.00    +0.000 A 
ATOM      5  C   UNL     1     102.212 128.335  83.616  0.00  0.00    +0.000 A 
ATOM      6  C   UNL     1     103.423 127.838  83.127  0.00  0.00    +0.000 A 
ATOM      7 BR   UNL     1     105.045 128.645  83.673  0.00  0.00    +0.000 Br
ATOM      8  C   UNL     1      99.605 128.016  83.535  0.00  0.00    +0.000 C 
ATOM      9  C   UNL     1      98.850 126.942  82.708  0.00  0.00    +0.000 C 
ATOM     10  O   UNL     1      97.646 126.745  82.628  0.00  0.00    +0.000 OA
ATOM     11  N   UNL     1      99.813 126.189  82.028  0.00  0.00    +0.000 N 
ATOM     12 CL   UNL     1      99.283 127.767  85.255  0.00  0.00    +0.000 Cl
ATOM     13 CL   UNL     1      99.127 129.625  82.984  0.00  0.00    +0.000 Cl
ATOM     14  H   UNL     1      99.607 125.437  81.428  0.00  0.00    +0.000 HD
ENDROOT
TORSDOF 0
ENDMDL
