MODEL 1
REMARK VINA RESULT:      -3.8      0.000      0.000
REMARK  Name = *****
REMARK  0 active torsions:
REMARK  status: ('A' for Active; 'I' for Inactive)
REMARK                            x       y       z     vdW  Elec       q    Type
REMARK                         _______ _______ _______ _____ _____    ______ ____
ROOT
ATOM      1  C   UNL     1      99.195 129.005  83.996  0.00  0.00    +0.000 A 
ATOM      2  C   UNL     1      98.347 127.987  83.567  0.00  0.00    +0.000 A 
ATOM      3  C   UNL     1      98.834 126.901  82.836  0.00  0.00    +0.000 A 
ATOM      4  C   UNL     1     100.205 126.874  82.551  0.00  0.00    +0.000 A 
ATOM      5  C   UNL     1     101.086 127.881  82.967  0.00  0.00    +0.000 A 
ATOM      6  C   UNL     1     100.564 128.965  83.704  0.00  0.00    +0.000 A 
ATOM      7  C   UNL     1     102.386 127.521  82.501  0.00  0.00    +0.000 A 
ATOM      8  C   UNL     1     102.252 126.335  81.834  0.00  0.00    +0.000 A 
ATOM      9  N   UNL     1     100.951 125.943  81.860  0.00  0.00    +0.000 N 
ATOM     10 CL   UNL     1     103.359 125.329  81.029  0.00  0.00    +0.000 Cl
ATOM     11 CL   UNL     1     103.806 128.422  82.751  0.00  0.00    +0.000 Cl
ATOM     12  H   UNL     1     100.596 125.122  81.448  0.00  0.00    +0.000 HD
ENDROOT
TORSDOF 0
ENDMDL
