REMARK  Name = *****
REMARK  1 active torsions:
REMARK  status: ('A' for Active; 'I' for Inactive)
REMARK    1  A    between atoms: C_6  and  C_7
REMARK                            x       y       z     vdW  Elec       q    Type
REMARK                         _______ _______ _______ _____ _____    ______ ____
ROOT
ATOM      1  C   UNL     1       1.949   1.111  -0.002  0.00  0.00    +0.000 A 
ATOM      2  C   UNL     1       2.248  -0.266  -0.001  0.00  0.00    +0.000 A 
ATOM      3  C   UNL     1       1.226  -1.222  -0.000  0.00  0.00    +0.000 A 
ATOM      4  C   UNL     1      -0.079  -0.768  -0.001  0.00  0.00    +0.000 A 
ATOM      5  C   UNL     1      -0.383   0.599  -0.002  0.00  0.00    +0.000 A 
ATOM      6  C   UNL     1       0.620   1.557  -0.003  0.00  0.00    +0.000 A 
ATOM      7  N   UNL     1      -1.764   0.810  -0.002  0.00  0.00    +0.000 N 
ATOM      8  C   UNL     1      -2.453  -0.384  -0.001  0.00  0.00    +0.000 C 
ATOM      9  O   UNL     1      -3.650  -0.554  -0.000  0.00  0.00    +0.000 OA
ATOM     10  C   UNL     1      -1.363  -1.485   0.000  0.00  0.00    +0.000 C 
ATOM     11  O   UNL     1      -1.558  -2.678   0.001  0.00  0.00    +0.000 OA
ATOM     12 BR   UNL     1       1.685  -3.051   0.001  0.00  0.00    +0.000 Br
ATOM     13  H   UNL     1      -2.190   1.698  -0.003  0.00  0.00    +0.000 HD
ENDROOT
BRANCH   6  14
ATOM     14  C   UNL     1       0.325   2.957  -0.004  0.00  0.00    +0.000 C 
ATOM     15  N   UNL     1       0.066   4.087  -0.006  0.00  0.00    +0.000 NA
ENDBRANCH   6  14
TORSDOF 1
