MODEL 1
REMARK VINA RESULT:      -2.3      0.000      0.000
REMARK  Name = *****
REMARK  0 active torsions:
REMARK  status: ('A' for Active; 'I' for Inactive)
REMARK                            x       y       z     vdW  Elec       q    Type
REMARK                         _______ _______ _______ _____ _____    ______ ____
ROOT
ATOM      1  C   UNL     1      88.029  68.244  87.384  0.00  0.00    +0.000 C 
ATOM      2  S   UNL     1      87.540  66.512  87.648  0.00  0.00    +0.000 S 
ATOM      3  C   UNL     1      88.845  65.817  86.762  0.00  0.00    +0.000 A 
ATOM      4  C   UNL     1      89.756  66.629  86.218  0.00  0.00    +0.000 A 
ATOM      5  S   UNL     1      89.578  68.331  86.430  0.00  0.00    +0.000 S 
ATOM      6  S   UNL     1      91.054  65.906  85.338  0.00  0.00    +0.000 S 
ATOM      7  C   UNL     1      90.530  64.238  85.583  0.00  0.00    +0.000 A 
ATOM      8  S   UNL     1      91.347  62.918  84.978  0.00  0.00    +0.000 S 
ATOM      9  S   UNL     1      89.049  64.117  86.536  0.00  0.00    +0.000 S 
ENDROOT
TORSDOF 0
ENDMDL
