MODEL 1
REMARK VINA RESULT:      -3.0      0.000      0.000
REMARK  Name = *****
REMARK  0 active torsions:
REMARK  status: ('A' for Active; 'I' for Inactive)
REMARK                            x       y       z     vdW  Elec       q    Type
REMARK                         _______ _______ _______ _____ _____    ______ ____
ROOT
ATOM      1  C   UNL     1     103.917 127.827  80.475  0.00  0.00    +0.000 C 
ATOM      2  C   UNL     1     103.179 127.925  81.806  0.00  0.00    +0.000 C 
ATOM      3  C   UNL     1     102.209 126.759  81.997  0.00  0.00    +0.000 C 
ATOM      4  C   UNL     1     102.853 125.383  81.802  0.00  0.00    +0.000 C 
ATOM      5  C   UNL     1     103.700 125.309  80.531  0.00  0.00    +0.000 C 
ATOM      6  C   UNL     1     104.653 126.497  80.339  0.00  0.00    +0.000 C 
ATOM      7  S   UNL     1     104.636 123.750  80.604  0.00  0.00    +0.000 S 
ATOM      8  C   UNL     1     104.886 123.744  82.343  0.00  0.00    +0.000 C 
ATOM      9  S   UNL     1     105.949 122.709  83.103  0.00  0.00    +0.000 S 
ATOM     10  S   UNL     1     103.922 124.929  83.210  0.00  0.00    +0.000 S 
ENDROOT
TORSDOF 0
ENDMDL
