REMARK  Name = *****
REMARK  0 active torsions:
REMARK  status: ('A' for Active; 'I' for Inactive)
REMARK                            x       y       z     vdW  Elec       q    Type
REMARK                         _______ _______ _______ _____ _____    ______ ____
ROOT
ATOM      1  C   UNL     1       0.889   1.383  -0.024  0.00  0.00    +0.000 A 
ATOM      2  C   UNL     1      -0.266   0.631  -0.019  0.00  0.00    +0.000 A 
ATOM      3  C   UNL     1      -0.234  -0.763  -0.003  0.00  0.00    +0.000 A 
ATOM      4  C   UNL     1       0.958  -1.467   0.008  0.00  0.00    +0.000 A 
ATOM      5  C   UNL     1       2.154  -0.722   0.002  0.00  0.00    +0.000 A 
ATOM      6  C   UNL     1       2.109   0.695  -0.013  0.00  0.00    +0.000 A 
ATOM      7 CL   UNL     1       3.544   1.665  -0.020  0.00  0.00    +0.000 Cl
ATOM      8 CL   UNL     1       3.690  -1.537   0.015  0.00  0.00    +0.000 Cl
ATOM      9 CL   UNL     1       0.953  -3.192   0.027  0.00  0.00    +0.000 Cl
ATOM     10  C   UNL     1      -1.637  -1.208  -0.002  0.00  0.00    +0.000 C 
ATOM     11  O   UNL     1      -2.067  -2.336   0.011  0.00  0.00    +0.000 OA
ATOM     12  C   UNL     1      -2.484   0.093  -0.020  0.00  0.00    +0.000 C 
ATOM     13  O   UNL     1      -3.691   0.170  -0.026  0.00  0.00    +0.000 OA
ATOM     14  N   UNL     1      -1.566   1.122  -0.029  0.00  0.00    +0.000 N 
ATOM     15  H   UNL     1      -1.801   2.078  -0.040  0.00  0.00    +0.000 HD
ENDROOT
TORSDOF 0
