MODEL 1
REMARK VINA RESULT:      -4.2      0.000      0.000
REMARK  Name = *****
REMARK  4 active torsions:
REMARK  status: ('A' for Active; 'I' for Inactive)
REMARK    1  A    between atoms: C_1  and  C_2
REMARK    2  A    between atoms: C_2  and  O_3
REMARK    3  A    between atoms: O_3  and  C_4
REMARK    4  A    between atoms: C_13  and  C_14
REMARK                            x       y       z     vdW  Elec       q    Type
REMARK                         _______ _______ _______ _____ _____    ______ ____
ROOT
ATOM      1  C   UNL     1      88.102  70.698  87.030  0.00  0.00    +0.000 A 
ATOM      2  C   UNL     1      87.372  71.063  85.893  0.00  0.00    +0.000 A 
ATOM      3  C   UNL     1      86.095  71.642  86.005  0.00  0.00    +0.000 A 
ATOM      4  C   UNL     1      85.356  72.011  84.869  0.00  0.00    +0.000 A 
ATOM      5  C   UNL     1      84.089  72.586  84.993  0.00  0.00    +0.000 A 
ATOM      6  C   UNL     1      83.546  72.800  86.256  0.00  0.00    +0.000 A 
ATOM      7  C   UNL     1      84.267  72.439  87.395  0.00  0.00    +0.000 A 
ATOM      8  C   UNL     1      85.542  71.860  87.284  0.00  0.00    +0.000 A 
ATOM      9  C   UNL     1      86.279  71.492  88.420  0.00  0.00    +0.000 A 
ATOM     10  C   UNL     1      87.553  70.914  88.304  0.00  0.00    +0.000 A 
ATOM     11  C   UNL     1      88.314  70.530  89.544  0.00  0.00    +0.000 C 
ENDROOT
BRANCH   1  12
ATOM     12  O   UNL     1      89.349  70.129  87.012  0.00  0.00    +0.000 OA
BRANCH  12  14
ATOM     13  C   UNL     1      89.763  67.876  86.363  0.00  0.00    +0.000 C 
ATOM     14  C   UNL     1      89.692  69.317  85.892  0.00  0.00    +0.000 C 
ENDBRANCH  12  14
ENDBRANCH   1  12
TORSDOF 2
ENDMDL
