MODEL 1
REMARK VINA RESULT:      -4.1      0.000      0.000
REMARK  Name = *****
REMARK  1 active torsions:
REMARK  status: ('A' for Active; 'I' for Inactive)
REMARK    1  A    between atoms: C_3  and  C_4
REMARK                            x       y       z     vdW  Elec       q    Type
REMARK                         _______ _______ _______ _____ _____    ______ ____
ROOT
ATOM      1  C   UNL     1     101.096 127.071  82.612  0.00  0.00    +0.000 A 
ATOM      2  N   UNL     1     102.070 127.954  82.616  0.00  0.00    +0.000 NA
ATOM      3  C   UNL     1     103.047 127.428  81.811  0.00  0.00    +0.000 A 
ATOM      4  C   UNL     1     104.300 127.953  81.466  0.00  0.00    +0.000 A 
ATOM      5  C   UNL     1     105.128 127.209  80.614  0.00  0.00    +0.000 A 
ATOM      6  C   UNL     1     104.712 125.964  80.114  0.00  0.00    +0.000 A 
ATOM      7  C   UNL     1     103.460 125.428  80.453  0.00  0.00    +0.000 A 
ATOM      8  C   UNL     1     102.660 126.193  81.305  0.00  0.00    +0.000 A 
ATOM      9  N   UNL     1     101.410 125.989  81.832  0.00  0.00    +0.000 N 
ATOM     10 CL   UNL     1     105.708 125.019  79.059  0.00  0.00    +0.000 Cl
ATOM     11 CL   UNL     1     106.666 127.893  80.212  0.00  0.00    +0.000 Cl
ATOM     12  H   UNL     1     100.838 125.202  81.678  0.00  0.00    +0.000 HD
ENDROOT
BRANCH   1  15
ATOM     13  C   UNL     1      98.514 126.769  82.695  0.00  0.00    +0.000 C 
ATOM     14  C   UNL     1      98.778 128.227  82.850  0.00  0.00    +0.000 C 
ATOM     15  C   UNL     1      99.789 127.227  83.372  0.00  0.00    +0.000 C 
ENDBRANCH   1  15
TORSDOF 1
ENDMDL
