MODEL 1
REMARK VINA RESULT:      -4.5      0.000      0.000
REMARK  Name = *****
REMARK  5 active torsions:
REMARK  status: ('A' for Active; 'I' for Inactive)
REMARK    1  A    between atoms: C_1  and  C_2
REMARK    2  A    between atoms: C_2  and  C_3
REMARK    3  A    between atoms: C_4  and  O_14
REMARK    4  A    between atoms: C_11  and  C_13
REMARK    5  A    between atoms: O_14  and  C_15
REMARK                            x       y       z     vdW  Elec       q    Type
REMARK                         _______ _______ _______ _____ _____    ______ ____
ROOT
ATOM      1  C   UNL     1      87.412  70.846  88.052  0.00  0.00    +0.000 A 
ATOM      2  C   UNL     1      88.224  70.501  86.929  0.00  0.00    +0.000 A 
ATOM      3  C   UNL     1      87.807  70.782  85.631  0.00  0.00    +0.000 A 
ATOM      4  C   UNL     1      86.585  71.405  85.415  0.00  0.00    +0.000 A 
ATOM      5  C   UNL     1      85.755  71.758  86.480  0.00  0.00    +0.000 A 
ATOM      6  C   UNL     1      86.141  71.488  87.824  0.00  0.00    +0.000 A 
ATOM      7  C   UNL     1      85.202  71.893  88.807  0.00  0.00    +0.000 A 
ATOM      8  C   UNL     1      83.984  72.517  88.498  0.00  0.00    +0.000 A 
ATOM      9  C   UNL     1      83.638  72.769  87.179  0.00  0.00    +0.000 A 
ATOM     10  C   UNL     1      84.532  72.384  86.179  0.00  0.00    +0.000 A 
ATOM     11  C   UNL     1      82.344  73.434  86.823  0.00  0.00    +0.000 C 
ENDROOT
BRANCH   1  13
ATOM     12  C   UNL     1      88.593  71.470  90.391  0.00  0.00    +0.000 C 
ATOM     13  C   UNL     1      88.026  70.468  89.401  0.00  0.00    +0.000 C 
ENDBRANCH   1  13
BRANCH   2  14
ATOM     14  O   UNL     1      89.421  69.884  87.217  0.00  0.00    +0.000 OA
ATOM     15  C   UNL     1      89.738  68.681  86.528  0.00  0.00    +0.000 C 
ENDBRANCH   2  14
TORSDOF 2
ENDMDL
