MODEL 1
REMARK VINA RESULT:      -4.3      0.000      0.000
REMARK  Name = *****
REMARK  3 active torsions:
REMARK  status: ('A' for Active; 'I' for Inactive)
REMARK    1  A    between atoms: C_1  and  C_2
REMARK    2  A    between atoms: C_3  and  C_13
REMARK    3  A    between atoms: C_4  and  C_12
REMARK                            x       y       z     vdW  Elec       q    Type
REMARK                         _______ _______ _______ _____ _____    ______ ____
ROOT
ATOM      1  C   UNL     1      88.520  71.427  89.622  0.00  0.00    +0.000 C 
ATOM      2  C   UNL     1      87.614  70.600  88.717  0.00  0.00    +0.000 C 
ATOM      3  C   UNL     1      88.193  70.384  87.321  0.00  0.00    +0.000 C 
ATOM      4  C   UNL     1      87.401  70.885  86.350  0.00  0.00    +0.000 C 
ATOM      5  C   UNL     1      86.226  71.474  86.995  0.00  0.00    +0.000 A 
ATOM      6  C   UNL     1      86.333  71.315  88.383  0.00  0.00    +0.000 A 
ATOM      7  C   UNL     1      85.342  71.773  89.241  0.00  0.00    +0.000 A 
ATOM      8  C   UNL     1      84.233  72.407  88.680  0.00  0.00    +0.000 A 
ATOM      9  C   UNL     1      84.120  72.575  87.292  0.00  0.00    +0.000 A 
ATOM     10  C   UNL     1      85.123  72.104  86.439  0.00  0.00    +0.000 A 
ATOM     11 CL   UNL     1      82.982  72.992  89.709  0.00  0.00    +0.000 Cl
ATOM     12  C   UNL     1      87.575  70.891  84.874  0.00  0.00    +0.000 C 
ATOM     13  C   UNL     1      89.482  69.650  87.166  0.00  0.00    +0.000 C 
ENDROOT
TORSDOF 0
ENDMDL
