MODEL 1
REMARK VINA RESULT:      -4.0      0.000      0.000
REMARK  Name = *****
REMARK  2 active torsions:
REMARK  status: ('A' for Active; 'I' for Inactive)
REMARK    1  A    between atoms: C_1  and  O_2
REMARK    2  A    between atoms: O_2  and  C_3
REMARK                            x       y       z     vdW  Elec       q    Type
REMARK                         _______ _______ _______ _____ _____    ______ ____
ROOT
ATOM      1  C   UNL     1     103.115 128.729  83.381  0.00  0.00    +0.000 A 
ATOM      2  C   UNL     1     103.525 127.651  82.557  0.00  0.00    +0.000 A 
ATOM      3  C   UNL     1     102.571 126.754  82.046  0.00  0.00    +0.000 A 
ATOM      4  C   UNL     1     101.242 126.956  82.389  0.00  0.00    +0.000 A 
ATOM      5  C   UNL     1     100.868 128.014  83.215  0.00  0.00    +0.000 A 
ATOM      6  C   UNL     1     101.775 128.912  83.735  0.00  0.00    +0.000 A 
ATOM      7  C   UNL     1      99.415 127.942  83.386  0.00  0.00    +0.000 C 
ATOM      8  O   UNL     1      98.724 128.695  84.031  0.00  0.00    +0.000 OA
ATOM      9  C   UNL     1      98.966 126.708  82.558  0.00  0.00    +0.000 C 
ATOM     10  O   UNL     1      97.836 126.297  82.434  0.00  0.00    +0.000 OA
ATOM     11  N   UNL     1     100.127 126.202  82.010  0.00  0.00    +0.000 N 
ATOM     12 CL   UNL     1     102.982 125.425  81.024  0.00  0.00    +0.000 Cl
ATOM     13 CL   UNL     1     105.209 127.467  82.186  0.00  0.00    +0.000 Cl
ATOM     14  H   UNL     1     100.166 125.410  81.426  0.00  0.00    +0.000 HD
ENDROOT
BRANCH   1  16
ATOM     15  C   UNL     1     103.478 130.366  84.969  0.00  0.00    +0.000 C 
ATOM     16  O   UNL     1     104.052 129.573  83.927  0.00  0.00    +0.000 OA
ENDBRANCH   1  16
TORSDOF 1
ENDMDL
