MODEL 1
REMARK VINA RESULT:      -3.4      0.000      0.000
REMARK  Name = *****
REMARK  0 active torsions:
REMARK  status: ('A' for Active; 'I' for Inactive)
REMARK                            x       y       z     vdW  Elec       q    Type
REMARK                         _______ _______ _______ _____ _____    ______ ____
ROOT
ATOM      1  C   UNL     1     104.275 123.957  81.390  0.00  0.00    +0.000 C 
ATOM      2  C   UNL     1     104.580 125.059  80.394  0.00  0.00    +0.000 C 
ATOM      3  C   UNL     1     103.314 125.934  80.393  0.00  0.00    +0.000 C 
ATOM      4  C   UNL     1     103.623 127.390  80.030  0.00  0.00    +0.000 C 
ATOM      5  C   UNL     1     103.997 128.231  81.213  0.00  0.00    +0.000 C 
ATOM      6  C   UNL     1     103.430 128.034  82.410  0.00  0.00    +0.000 C 
ATOM      7  C   UNL     1     102.399 126.967  82.615  0.00  0.00    +0.000 C 
ATOM      8  C   UNL     1     102.659 125.706  81.783  0.00  0.00    +0.000 C 
ATOM      9  C   UNL     1     103.587 124.716  82.509  0.00  0.00    +0.000 C 
ENDROOT
TORSDOF 0
ENDMDL
