MODEL 1
REMARK VINA RESULT:      -3.3      0.000      0.000
REMARK  Name = *****
REMARK  0 active torsions:
REMARK  status: ('A' for Active; 'I' for Inactive)
REMARK                            x       y       z     vdW  Elec       q    Type
REMARK                         _______ _______ _______ _____ _____    ______ ____
ROOT
ATOM      1  C   UNL     1      89.554  70.265  85.919  0.00  0.00    +0.000 C 
ATOM      2  C   UNL     1      89.396  69.693  87.334  0.00  0.00    +0.000 C 
ATOM      3  C   UNL     1      88.420  70.501  88.199  0.00  0.00    +0.000 C 
ATOM      4  C   UNL     1      87.101  70.662  87.461  0.00  0.00    +0.000 C 
ATOM      5  C   UNL     1      86.046  71.547  88.109  0.00  0.00    +0.000 C 
ATOM      6  C   UNL     1      85.133  71.948  86.941  0.00  0.00    +0.000 C 
ATOM      7  C   UNL     1      85.891  71.598  85.651  0.00  0.00    +0.000 C 
ATOM      8  C   UNL     1      87.318  71.355  86.119  0.00  0.00    +0.000 C 
ATOM      9  C   UNL     1      88.209  70.512  85.221  0.00  0.00    +0.000 C 
ENDROOT
TORSDOF 0
ENDMDL
