MODEL 1
REMARK VINA RESULT:      -3.8      0.000      0.000
REMARK  Name = *****
REMARK  0 active torsions:
REMARK  status: ('A' for Active; 'I' for Inactive)
REMARK                            x       y       z     vdW  Elec       q    Type
REMARK                         _______ _______ _______ _____ _____    ______ ____
ROOT
ATOM      1  C   UNL     1     100.113 129.434  83.956  0.00  0.00    +0.000 A 
ATOM      2  C   UNL     1      99.061 128.701  83.380  0.00  0.00    +0.000 A 
ATOM      3  C   UNL     1      99.314 127.523  82.675  0.00  0.00    +0.000 A 
ATOM      4  C   UNL     1     100.628 127.118  82.571  0.00  0.00    +0.000 A 
ATOM      5  C   UNL     1     101.688 127.831  83.136  0.00  0.00    +0.000 A 
ATOM      6  C   UNL     1     101.438 129.003  83.837  0.00  0.00    +0.000 A 
ATOM      7  C   UNL     1     102.981 127.115  82.836  0.00  0.00    +0.000 C 
ATOM      8  C   UNL     1     102.489 125.891  82.019  0.00  0.00    +0.000 C 
ATOM      9  O   UNL     1     103.145 124.983  81.529  0.00  0.00    +0.000 OA
ATOM     10  N   UNL     1     101.101 125.989  81.922  0.00  0.00    +0.000 N 
ATOM     11  I   UNL     1     103.964 126.449  84.560  0.00  0.00    +0.000 I 
ATOM     12  I   UNL     1     104.287 128.252  81.659  0.00  0.00    +0.000 I 
ATOM     13  H   UNL     1     100.530 125.338  81.453  0.00  0.00    +0.000 HD
ENDROOT
TORSDOF 0
ENDMDL
