REMARK  Name = *****
REMARK  0 active torsions:
REMARK  status: ('A' for Active; 'I' for Inactive)
REMARK                            x       y       z     vdW  Elec       q    Type
REMARK                         _______ _______ _______ _____ _____    ______ ____
ROOT
ATOM      1  C   UNL     1      -2.078  -0.739  -0.004  0.00  0.00    +0.000 A 
ATOM      2  C   UNL     1      -0.899  -1.515  -0.002  0.00  0.00    +0.000 A 
ATOM      3  C   UNL     1       0.252  -0.719  -0.001  0.00  0.00    +0.000 A 
ATOM      4  C   UNL     1       1.534  -1.206   0.000  0.00  0.00    +0.000 A 
ATOM      5  S   UNL     1       2.704   0.033   0.001  0.00  0.00    +0.000 S 
ATOM      6  C   UNL     1       1.506   1.245   0.000  0.00  0.00    +0.000 A 
ATOM      7  C   UNL     1       0.235   0.728  -0.001  0.00  0.00    +0.000 A 
ATOM      8  C   UNL     1      -0.934   1.497  -0.003  0.00  0.00    +0.000 A 
ATOM      9  C   UNL     1      -2.095   0.693  -0.004  0.00  0.00    +0.000 A 
ATOM     10 CL   UNL     1       2.006   2.892   0.000  0.00  0.00    +0.000 Cl
ATOM     11 CL   UNL     1       2.073  -2.841  -0.001  0.00  0.00    +0.000 Cl
ENDROOT
TORSDOF 0
