MODEL 1
REMARK VINA RESULT:      -4.2      0.000      0.000
REMARK  Name = *****
REMARK  0 active torsions:
REMARK  status: ('A' for Active; 'I' for Inactive)
REMARK                            x       y       z     vdW  Elec       q    Type
REMARK                         _______ _______ _______ _____ _____    ______ ____
ROOT
ATOM      1  C   UNL     1     102.613 125.708  81.627  0.00  0.00    +0.000 A 
ATOM      2  C   UNL     1     103.950 126.093  81.741  0.00  0.00    +0.000 A 
ATOM      3  C   UNL     1     104.300 127.282  82.380  0.00  0.00    +0.000 A 
ATOM      4  C   UNL     1     103.301 128.097  82.912  0.00  0.00    +0.000 A 
ATOM      5  C   UNL     1     101.955 127.723  82.806  0.00  0.00    +0.000 A 
ATOM      6  C   UNL     1     101.619 126.527  82.161  0.00  0.00    +0.000 A 
ATOM      7  N   UNL     1     100.279 126.145  82.050  0.00  0.00    +0.000 N 
ATOM      8  C   UNL     1      99.231 126.892  82.547  0.00  0.00    +0.000 A 
ATOM      9  O   UNL     1      98.071 126.525  82.430  0.00  0.00    +0.000 OA
ATOM     10  C   UNL     1      99.598 128.217  83.259  0.00  0.00    +0.000 A 
ATOM     11  O   UNL     1      98.737 128.947  83.731  0.00  0.00    +0.000 OA
ATOM     12  N   UNL     1     100.936 128.529  83.334  0.00  0.00    +0.000 N 
ATOM     13 CL   UNL     1     103.761 129.563  83.699  0.00  0.00    +0.000 Cl
ATOM     14 CL   UNL     1     105.180 125.088  81.083  0.00  0.00    +0.000 Cl
ATOM     15  H   UNL     1     100.071 125.298  81.593  0.00  0.00    +0.000 HD
ATOM     16  H   UNL     1     101.193 129.367  83.783  0.00  0.00    +0.000 HD
ENDROOT
TORSDOF 0
ENDMDL
