REMARK  Name = *****
REMARK  3 active torsions:
REMARK  status: ('A' for Active; 'I' for Inactive)
REMARK    1  A    between atoms: C_1  and  C_2
REMARK    2  A    between atoms: C_2  and  O_3
REMARK    3  A    between atoms: O_3  and  C_4
REMARK                            x       y       z     vdW  Elec       q    Type
REMARK                         _______ _______ _______ _____ _____    ______ ____
ROOT
ATOM      1  C   UNL     1       4.396   0.019   1.447  0.00  0.00    +0.000 A 
ATOM      2  C   UNL     1       4.925  -0.835   2.416  0.00  0.00    +0.000 A 
ATOM      3  C   UNL     1       6.289  -0.797   2.696  0.00  0.00    +0.000 A 
ATOM      4  C   UNL     1       7.147   0.075   2.031  0.00  0.00    +0.000 A 
ATOM      5  C   UNL     1       6.617   0.927   1.061  0.00  0.00    +0.000 A 
ATOM      6  C   UNL     1       5.246   0.899   0.770  0.00  0.00    +0.000 A 
ATOM      7  C   UNL     1       8.561   0.068   2.368  0.00  0.00    +0.000 A 
ATOM      8  C   UNL     1       9.016  -0.769   3.306  0.00  0.00    +0.000 A 
ATOM      9  C   UNL     1       8.115  -1.694   4.013  0.00  0.00    +0.000 A 
ATOM     10  S   UNL     1       8.560  -2.781   5.198  0.00  0.00    +0.000 S 
ATOM     11  O   UNL     1       6.772  -1.678   3.683  0.00  0.00    +0.000 OA
ENDROOT
BRANCH   1  12
ATOM     12  O   UNL     1       3.047  -0.103   1.255  0.00  0.00    +0.000 OA
BRANCH  12  14
ATOM     13  C   UNL     1       0.957   0.457   0.259  0.00  0.00    +0.000 C 
ATOM     14  C   UNL     1       2.445   0.757   0.290  0.00  0.00    +0.000 C 
ENDBRANCH  12  14
ENDBRANCH   1  12
TORSDOF 2
