REMARK  Name = *****
REMARK  0 active torsions:
REMARK  status: ('A' for Active; 'I' for Inactive)
REMARK                            x       y       z     vdW  Elec       q    Type
REMARK                         _______ _______ _______ _____ _____    ______ ____
ROOT
ATOM      1  C   UNL     1       0.879   0.068  -0.271  0.00  0.00    +0.000 C 
ATOM      2  C   UNL     1       2.211   0.010  -0.101  0.00  0.00    +0.000 C 
ATOM      3  C   UNL     1       3.001  -1.223  -0.423  0.00  0.00    +0.000 C 
ATOM      4  S   UNL     1       3.710  -1.891   1.096  0.00  0.00    +0.000 S 
ATOM      5  C   UNL     1       4.632  -0.520   1.628  0.00  0.00    +0.000 A 
ATOM      6  C   UNL     1       4.365   0.775   1.360  0.00  0.00    +0.000 A 
ATOM      7  S   UNL     1       3.044   1.437   0.437  0.00  0.00    +0.000 S 
ATOM      8  S   UNL     1       5.480   1.949   2.041  0.00  0.00    +0.000 S 
ATOM      9  C   UNL     1       6.528   0.809   2.857  0.00  0.00    +0.000 A 
ATOM     10  S   UNL     1       7.859   1.258   3.753  0.00  0.00    +0.000 S 
ATOM     11  S   UNL     1       6.031  -0.852   2.624  0.00  0.00    +0.000 S 
ENDROOT
TORSDOF 0
