MODEL 1
REMARK VINA RESULT:      -4.2      0.000      0.000
REMARK  Name = *****
REMARK  3 active torsions:
REMARK  status: ('A' for Active; 'I' for Inactive)
REMARK    1  A    between atoms: C_1  and  O_2
REMARK    2  A    between atoms: O_2  and  C_3
REMARK    3  A    between atoms: C_9  and  C_11
REMARK                            x       y       z     vdW  Elec       q    Type
REMARK                         _______ _______ _______ _____ _____    ______ ____
ROOT
ATOM      1  C   UNL     1      98.755 127.517  82.893  0.00  0.00    +0.000 A 
ATOM      2  C   UNL     1      99.785 126.717  82.387  0.00  0.00    +0.000 A 
ATOM      3  C   UNL     1     101.134 127.077  82.546  0.00  0.00    +0.000 A 
ATOM      4  C   UNL     1     101.452 128.268  83.230  0.00  0.00    +0.000 A 
ATOM      5  C   UNL     1     102.798 128.625  83.396  0.00  0.00    +0.000 A 
ATOM      6  C   UNL     1     103.820 127.820  82.889  0.00  0.00    +0.000 A 
ATOM      7  C   UNL     1     103.517 126.641  82.198  0.00  0.00    +0.000 A 
ATOM      8  C   UNL     1     102.172 126.275  82.041  0.00  0.00    +0.000 A 
ATOM      9  C   UNL     1     100.413 129.066  83.734  0.00  0.00    +0.000 A 
ATOM     10  C   UNL     1      99.074 128.694  83.566  0.00  0.00    +0.000 A 
ENDROOT
BRANCH   1  12
ATOM     11  C   UNL     1      96.703 126.733  83.801  0.00  0.00    +0.000 C 
ATOM     12  O   UNL     1      97.494 127.039  82.661  0.00  0.00    +0.000 OA
ENDBRANCH   1  12
BRANCH   7  13
ATOM     13  C   UNL     1     104.615 125.765  81.662  0.00  0.00    +0.000 C 
ATOM     14 CL   UNL     1     103.951 124.521  80.585  0.00  0.00    +0.000 Cl
ENDBRANCH   7  13
TORSDOF 2
ENDMDL
