MODEL 1
REMARK VINA RESULT:      -4.3      0.000      0.000
REMARK  Name = *****
REMARK  5 active torsions:
REMARK  status: ('A' for Active; 'I' for Inactive)
REMARK    1  A    between atoms: C_1  and  C_2
REMARK    2  A    between atoms: C_6  and  C_7
REMARK    3  A    between atoms: C_6  and  C_8
REMARK    4  A    between atoms: C_10  and  O_13
REMARK    5  A    between atoms: O_13  and  C_14
REMARK                            x       y       z     vdW  Elec       q    Type
REMARK                         _______ _______ _______ _____ _____    ______ ____
ROOT
ATOM      1  C   UNL     1     105.253 127.695  82.840  0.00  0.00    +0.000 C 
ATOM      2  C   UNL     1     103.763 127.751  82.907  0.00  0.00    +0.000 C 
ATOM      3  C   UNL     1     103.005 128.721  83.449  0.00  0.00    +0.000 C 
ATOM      4  C   UNL     1     101.601 128.374  83.295  0.00  0.00    +0.000 A 
ATOM      5  C   UNL     1     101.511 127.145  82.632  0.00  0.00    +0.000 A 
ATOM      6  C   UNL     1     102.901 126.625  82.317  0.00  0.00    +0.000 C 
ATOM      7  C   UNL     1     103.100 126.488  80.803  0.00  0.00    +0.000 C 
ATOM      8  C   UNL     1     103.152 125.287  83.024  0.00  0.00    +0.000 C 
ATOM      9  C   UNL     1     100.277 126.573  82.351  0.00  0.00    +0.000 A 
ATOM     10  C   UNL     1      99.113 127.242  82.743  0.00  0.00    +0.000 A 
ATOM     11  C   UNL     1      99.205 128.474  83.409  0.00  0.00    +0.000 A 
ATOM     12  C   UNL     1     100.454 129.047  83.687  0.00  0.00    +0.000 A 
ATOM     13 CL   UNL     1     103.532 130.144  84.207  0.00  0.00    +0.000 Cl
ENDROOT
BRANCH  10  14
ATOM     14  O   UNL     1      97.952 126.592  82.420  0.00  0.00    +0.000 OA
ATOM     15  C   UNL     1      97.112 126.198  83.499  0.00  0.00    +0.000 C 
ENDBRANCH  10  14
TORSDOF 1
ENDMDL
