MODEL 1
REMARK VINA RESULT:      -4.0      0.000      0.000
REMARK  Name = *****
REMARK  2 active torsions:
REMARK  status: ('A' for Active; 'I' for Inactive)
REMARK    1  A    between atoms: C_1  and  O_2
REMARK    2  A    between atoms: O_2  and  C_3
REMARK                            x       y       z     vdW  Elec       q    Type
REMARK                         _______ _______ _______ _____ _____    ______ ____
ROOT
ATOM      1  C   UNL     1      89.007  70.318  86.188  0.00  0.00    +0.000 A 
ATOM      2  C   UNL     1      87.799  70.865  85.744  0.00  0.00    +0.000 A 
ATOM      3  C   UNL     1      86.783  71.281  86.649  0.00  0.00    +0.000 A 
ATOM      4  C   UNL     1      87.038  71.123  88.035  0.00  0.00    +0.000 A 
ATOM      5  C   UNL     1      86.077  71.511  88.982  0.00  0.00    +0.000 A 
ATOM      6  C   UNL     1      84.859  72.057  88.588  0.00  0.00    +0.000 A 
ATOM      7  C   UNL     1      84.585  72.225  87.236  0.00  0.00    +0.000 A 
ATOM      8  C   UNL     1      85.530  71.843  86.275  0.00  0.00    +0.000 A 
ATOM      9  I   UNL     1      84.962  72.163  84.265  0.00  0.00    +0.000 I 
ATOM     10  C   UNL     1      88.255  70.576  88.468  0.00  0.00    +0.000 A 
ATOM     11  C   UNL     1      89.228  70.180  87.553  0.00  0.00    +0.000 A 
ENDROOT
BRANCH   1  13
ATOM     12  C   UNL     1      90.457  70.758  84.352  0.00  0.00    +0.000 C 
ATOM     13  O   UNL     1      90.038  69.889  85.397  0.00  0.00    +0.000 OA
ENDBRANCH   1  13
TORSDOF 1
ENDMDL
