MODEL 1
REMARK VINA RESULT:      -4.0      0.000      0.000
REMARK  Name = *****
REMARK  1 active torsions:
REMARK  status: ('A' for Active; 'I' for Inactive)
REMARK    1  A    between atoms: C_1  and  C_2
REMARK                            x       y       z     vdW  Elec       q    Type
REMARK                         _______ _______ _______ _____ _____    ______ ____
ROOT
ATOM      1  C   UNL     1     103.405 125.034  81.585  0.00  0.00    +0.000 C 
ATOM      2  C   UNL     1     102.458 126.051  82.104  0.00  0.00    +0.000 A 
ATOM      3  C   UNL     1     102.680 127.223  82.796  0.00  0.00    +0.000 A 
ATOM      4  C   UNL     1     101.418 127.835  83.061  0.00  0.00    +0.000 A 
ATOM      5  C   UNL     1     100.447 126.995  82.510  0.00  0.00    +0.000 A 
ATOM      6  N   UNL     1     101.102 125.928  81.937  0.00  0.00    +0.000 N 
ATOM      7  C   UNL     1      99.075 127.274  82.576  0.00  0.00    +0.000 A 
ATOM      8  C   UNL     1      98.680 128.448  83.228  0.00  0.00    +0.000 A 
ATOM      9  C   UNL     1      99.619 129.311  83.792  0.00  0.00    +0.000 A 
ATOM     10  C   UNL     1     100.983 129.010  83.712  0.00  0.00    +0.000 A 
ATOM     11 CL   UNL     1     102.230 129.990  84.365  0.00  0.00    +0.000 Cl
ATOM     12 CL   UNL     1      99.041 130.737  84.578  0.00  0.00    +0.000 Cl
ATOM     13  H   UNL     1     100.660 125.180  81.473  0.00  0.00    +0.000 HD
ENDROOT
TORSDOF 0
ENDMDL
