MODEL 1
REMARK VINA RESULT:      -4.0      0.000      0.000
REMARK  Name = *****
REMARK  0 active torsions:
REMARK  status: ('A' for Active; 'I' for Inactive)
REMARK                            x       y       z     vdW  Elec       q    Type
REMARK                         _______ _______ _______ _____ _____    ______ ____
ROOT
ATOM      1  C   UNL     1     101.645 128.857  83.740  0.00  0.00    +0.000 A 
ATOM      2  C   UNL     1     100.789 127.936  83.189  0.00  0.00    +0.000 A 
ATOM      3  C   UNL     1     101.232 126.911  82.357  0.00  0.00    +0.000 A 
ATOM      4  C   UNL     1     102.564 126.756  82.031  0.00  0.00    +0.000 A 
ATOM      5  C   UNL     1     103.473 127.682  82.576  0.00  0.00    +0.000 A 
ATOM      6  C   UNL     1     103.006 128.723  83.425  0.00  0.00    +0.000 A 
ATOM      7 CL   UNL     1     104.080 129.890  84.123  0.00  0.00    +0.000 Cl
ATOM      8 CL   UNL     1     105.167 127.552  82.210  0.00  0.00    +0.000 Cl
ATOM      9 CL   UNL     1     103.034 125.462  80.993  0.00  0.00    +0.000 Cl
ATOM     10  N   UNL     1     100.113 126.167  81.978  0.00  0.00    +0.000 N 
ATOM     11  C   UNL     1      98.972 126.722  82.571  0.00  0.00    +0.000 A 
ATOM     12  O   UNL     1      97.826 126.331  82.459  0.00  0.00    +0.000 OA
ATOM     13  N   UNL     1      99.410 127.823  83.323  0.00  0.00    +0.000 N 
ATOM     14  H   UNL     1     100.124 125.378  81.389  0.00  0.00    +0.000 HD
ATOM     15  H   UNL     1      98.835 128.418  83.856  0.00  0.00    +0.000 HD
ENDROOT
TORSDOF 0
ENDMDL
