MODEL 1
REMARK VINA RESULT:      -4.1      0.000      0.000
REMARK  Name = *****
REMARK  2 active torsions:
REMARK  status: ('A' for Active; 'I' for Inactive)
REMARK    1  A    between atoms: C_1  and  C_2
REMARK    2  A    between atoms: C_2  and  N_3
REMARK                            x       y       z     vdW  Elec       q    Type
REMARK                         _______ _______ _______ _____ _____    ______ ____
ROOT
ATOM      1  N   UNL     1      99.793 127.968  83.328  0.00  0.00    +0.000 N 
ATOM      2  C   UNL     1     101.124 127.541  83.229  0.00  0.00    +0.000 A 
ATOM      3  C   UNL     1     102.274 128.034  83.805  0.00  0.00    +0.000 A 
ATOM      4  C   UNL     1     103.476 127.374  83.504  0.00  0.00    +0.000 A 
ATOM      5  C   UNL     1     103.493 126.246  82.645  0.00  0.00    +0.000 A 
ATOM      6  C   UNL     1     102.308 125.761  82.075  0.00  0.00    +0.000 A 
ATOM      7  C   UNL     1     101.148 126.430  82.387  0.00  0.00    +0.000 A 
ATOM      8  N   UNL     1      99.847 126.164  81.979  0.00  0.00    +0.000 N 
ATOM      9  C   UNL     1      98.981 127.102  82.566  0.00  0.00    +0.000 A 
ATOM     10  O   UNL     1      97.770 127.132  82.433  0.00  0.00    +0.000 OA
ATOM     11 BR   UNL     1     105.092 125.314  82.207  0.00  0.00    +0.000 Br
ATOM     12 BR   UNL     1     105.053 128.072  84.308  0.00  0.00    +0.000 Br
ATOM     13  H   UNL     1      99.575 125.435  81.375  0.00  0.00    +0.000 HD
ENDROOT
BRANCH   1  15
ATOM     14  C   UNL     1      99.367 130.383  83.432  0.00  0.00    +0.000 C 
ATOM     15  C   UNL     1      99.304 129.045  84.150  0.00  0.00    +0.000 C 
ENDBRANCH   1  15
TORSDOF 1
ENDMDL
