MODEL 1
REMARK VINA RESULT:      -4.1      0.000      0.000
REMARK  Name = *****
REMARK  0 active torsions:
REMARK  status: ('A' for Active; 'I' for Inactive)
REMARK                            x       y       z     vdW  Elec       q    Type
REMARK                         _______ _______ _______ _____ _____    ______ ____
ROOT
ATOM      1  C   UNL     1     102.446 129.113  83.882  0.00  0.00    +0.000 A 
ATOM      2  C   UNL     1     103.747 128.743  83.533  0.00  0.00    +0.000 A 
ATOM      3  C   UNL     1     103.971 127.635  82.709  0.00  0.00    +0.000 A 
ATOM      4  C   UNL     1     102.890 126.885  82.226  0.00  0.00    +0.000 A 
ATOM      5  C   UNL     1     101.584 127.261  82.580  0.00  0.00    +0.000 A 
ATOM      6  C   UNL     1     101.361 128.375  83.408  0.00  0.00    +0.000 A 
ATOM      7  C   UNL     1      99.989 128.745  83.761  0.00  0.00    +0.000 A 
ATOM      8  C   UNL     1      98.958 128.028  83.297  0.00  0.00    +0.000 A 
ATOM      9  C   UNL     1      99.170 126.852  82.422  0.00  0.00    +0.000 A 
ATOM     10  O   UNL     1      98.220 126.202  82.003  0.00  0.00    +0.000 OA
ATOM     11  N   UNL     1     100.466 126.539  82.118  0.00  0.00    +0.000 N 
ATOM     12 BR   UNL     1     103.155 125.367  81.101  0.00  0.00    +0.000 Br
ATOM     13 CL   UNL     1     105.617 127.256  82.332  0.00  0.00    +0.000 Cl
ATOM     14  H   UNL     1     100.628 125.760  81.540  0.00  0.00    +0.000 HD
ENDROOT
TORSDOF 0
ENDMDL
