REMARK  Name = *****
REMARK  2 active torsions:
REMARK  status: ('A' for Active; 'I' for Inactive)
REMARK    1  A    between atoms: C_1  and  S_2
REMARK    2  A    between atoms: S_2  and  P_3
REMARK                            x       y       z     vdW  Elec       q    Type
REMARK                         _______ _______ _______ _____ _____    ______ ____
ROOT
ATOM      1  P   UNL     1       4.158  -1.411   1.106  0.00  0.00    +0.000 P 
ATOM      2  S   UNL     1       5.926  -0.610   0.856  0.00  0.00    +0.000 S 
ATOM      3  O   UNL     1       4.132  -2.301   2.484  0.00  0.00    +0.000 OA
ATOM      4  C   UNL     1       3.661  -3.578   2.310  0.00  0.00    +0.000 A 
ATOM      5  C   UNL     1       3.537  -4.420   3.406  0.00  0.00    +0.000 A 
ATOM      6  C   UNL     1       3.059  -5.716   3.208  0.00  0.00    +0.000 A 
ATOM      7  C   UNL     1       2.714  -6.153   1.924  0.00  0.00    +0.000 A 
ATOM      8  C   UNL     1       2.845  -5.298   0.826  0.00  0.00    +0.000 A 
ATOM      9  C   UNL     1       3.321  -4.004   1.020  0.00  0.00    +0.000 A 
ATOM     10  S   UNL     1       3.527  -2.849  -0.315  0.00  0.00    +0.000 S 
ENDROOT
BRANCH   1  12
ATOM     11  C   UNL     1       2.950   0.903   2.766  0.00  0.00    +0.000 C 
ATOM     12  S   UNL     1       2.523  -0.072   1.312  0.00  0.00    +0.000 S 
ENDBRANCH   1  12
TORSDOF 1
