MODEL 1
REMARK VINA RESULT:      -4.3      0.000      0.000
REMARK  Name = *****
REMARK  4 active torsions:
REMARK  status: ('A' for Active; 'I' for Inactive)
REMARK    1  A    between atoms: C_1  and  C_2
REMARK    2  A    between atoms: C_10  and  C_12
REMARK    3  A    between atoms: C_12  and  O_14
REMARK    4  A    between atoms: O_14  and  C_15
REMARK                            x       y       z     vdW  Elec       q    Type
REMARK                         _______ _______ _______ _____ _____    ______ ____
ROOT
ATOM      1  C   UNL     1      99.596 130.897  84.614  0.00  0.00    +0.000 C 
ATOM      2  C   UNL     1      99.904 129.566  83.992  0.00  0.00    +0.000 A 
ATOM      3  C   UNL     1     101.235 129.212  83.707  0.00  0.00    +0.000 A 
ATOM      4  C   UNL     1     101.518 127.974  83.094  0.00  0.00    +0.000 A 
ATOM      5  C   UNL     1     100.459 127.129  82.769  0.00  0.00    +0.000 A 
ATOM      6  C   UNL     1      99.129 127.469  83.029  0.00  0.00    +0.000 A 
ATOM      7  C   UNL     1      98.865 128.698  83.638  0.00  0.00    +0.000 A 
ATOM      8 CL   UNL     1      97.844 126.408  82.607  0.00  0.00    +0.000 Cl
ATOM      9  N   UNL     1     101.005 126.007  82.190  0.00  0.00    +0.000 N 
ATOM     10  C   UNL     1     102.377 126.100  82.129  0.00  0.00    +0.000 A 
ATOM     11  C   UNL     1     102.712 127.321  82.687  0.00  0.00    +0.000 A 
ATOM     12  H   UNL     1     100.483 125.239  81.863  0.00  0.00    +0.000 HD
ENDROOT
BRANCH  10  13
ATOM     13  C   UNL     1     103.249 125.091  81.579  0.00  0.00    +0.000 C 
ATOM     14  O   UNL     1     103.811 124.212  82.216  0.00  0.00    +0.000 OA
BRANCH  13  15
ATOM     15  O   UNL     1     103.353 125.269  80.230  0.00  0.00    +0.000 OA
ATOM     16  C   UNL     1     104.664 125.637  79.799  0.00  0.00    +0.000 C 
ENDBRANCH  13  15
ENDBRANCH  10  13
TORSDOF 2
ENDMDL
