MODEL 1
REMARK VINA RESULT:      -4.1      0.000      0.000
REMARK  Name = *****
REMARK  0 active torsions:
REMARK  status: ('A' for Active; 'I' for Inactive)
REMARK                            x       y       z     vdW  Elec       q    Type
REMARK                         _______ _______ _______ _____ _____    ______ ____
ROOT
ATOM      1  C   UNL     1     102.202 126.474  81.933  0.00  0.00    +0.000 A 
ATOM      2  C   UNL     1     103.264 127.275  82.359  0.00  0.00    +0.000 A 
ATOM      3  C   UNL     1     103.051 128.385  83.206  0.00  0.00    +0.000 A 
ATOM      4  C   UNL     1     101.757 128.721  83.651  0.00  0.00    +0.000 A 
ATOM      5  C   UNL     1     100.717 127.911  83.216  0.00  0.00    +0.000 A 
ATOM      6  C   UNL     1     100.942 126.813  82.376  0.00  0.00    +0.000 A 
ATOM      7  N   UNL     1      99.767 126.140  82.064  0.00  0.00    +0.000 N 
ATOM      8  C   UNL     1      98.682 126.734  82.666  0.00  0.00    +0.000 C 
ATOM      9  O   UNL     1      97.520 126.402  82.603  0.00  0.00    +0.000 OA
ATOM     10  C   UNL     1      99.260 127.935  83.458  0.00  0.00    +0.000 C 
ATOM     11  O   UNL     1      98.613 128.709  84.124  0.00  0.00    +0.000 OA
ATOM     12  I   UNL     1     101.403 130.359  84.908  0.00  0.00    +0.000 I 
ATOM     13 CL   UNL     1     104.467 129.281  83.647  0.00  0.00    +0.000 Cl
ATOM     14  H   UNL     1      99.718 125.344  81.487  0.00  0.00    +0.000 HD
ENDROOT
TORSDOF 0
ENDMDL
