MODEL 1
REMARK VINA RESULT:      -4.1      0.000      0.000
REMARK  Name = *****
REMARK  2 active torsions:
REMARK  status: ('A' for Active; 'I' for Inactive)
REMARK    1  A    between atoms: C_1  and  C_2
REMARK    2  A    between atoms: C_2  and  C_3
REMARK                            x       y       z     vdW  Elec       q    Type
REMARK                         _______ _______ _______ _____ _____    ______ ____
ROOT
ATOM      1  C   UNL     1      87.522  64.120  88.468  0.00  0.00    +0.000 C 
ATOM      2  C   UNL     1      87.233  62.688  87.986  0.00  0.00    +0.000 C 
ATOM      3  O   UNL     1      86.684  61.821  88.659  0.00  0.00    +0.000 OA
ATOM      4  N   UNL     1      87.531  62.466  86.665  0.00  0.00    +0.000 N 
ATOM      5  C   UNL     1      88.239  63.402  85.907  0.00  0.00    +0.000 A 
ATOM      6  C   UNL     1      88.770  64.543  86.521  0.00  0.00    +0.000 A 
ATOM      7  O   UNL     1      88.644  64.766  87.868  0.00  0.00    +0.000 OA
ATOM      8  C   UNL     1      89.520  65.447  85.757  0.00  0.00    +0.000 A 
ATOM      9  C   UNL     1      89.719  65.222  84.393  0.00  0.00    +0.000 A 
ATOM     10  C   UNL     1      89.181  64.082  83.799  0.00  0.00    +0.000 A 
ATOM     11  C   UNL     1      88.446  63.165  84.549  0.00  0.00    +0.000 A 
ATOM     12 CL   UNL     1      89.432  63.799  82.120  0.00  0.00    +0.000 Cl
ATOM     13 CL   UNL     1      90.212  66.861  86.465  0.00  0.00    +0.000 Cl
ATOM     14  H   UNL     1      87.239  61.628  86.242  0.00  0.00    +0.000 HD
ENDROOT
BRANCH   1  16
ATOM     15  C   UNL     1      89.132  63.799  90.411  0.00  0.00    +0.000 C 
ATOM     16  C   UNL     1      87.709  64.141  89.991  0.00  0.00    +0.000 C 
ENDBRANCH   1  16
TORSDOF 1
ENDMDL
