MODEL 1
REMARK VINA RESULT:      -4.3      0.000      0.000
REMARK  Name = *****
REMARK  4 active torsions:
REMARK  status: ('A' for Active; 'I' for Inactive)
REMARK    1  A    between atoms: C_1  and  C_2
REMARK    2  A    between atoms: C_4  and  O_13
REMARK    3  A    between atoms: C_5  and  C_12
REMARK    4  A    between atoms: O_13  and  C_14
REMARK                            x       y       z     vdW  Elec       q    Type
REMARK                         _______ _______ _______ _____ _____    ______ ____
ROOT
ATOM      1  C   UNL     1      85.884  71.801  84.209  0.00  0.00    +0.000 C 
ATOM      2  C   UNL     1      86.386  71.501  85.600  0.00  0.00    +0.000 A 
ATOM      3  C   UNL     1      87.645  70.894  85.733  0.00  0.00    +0.000 A 
ATOM      4  C   UNL     1      88.174  70.588  86.986  0.00  0.00    +0.000 A 
ATOM      5  C   UNL     1      87.435  70.896  88.146  0.00  0.00    +0.000 A 
ATOM      6  C   UNL     1      86.152  71.511  88.038  0.00  0.00    +0.000 A 
ATOM      7  C   UNL     1      85.368  71.838  89.171  0.00  0.00    +0.000 A 
ATOM      8  C   UNL     1      84.113  72.440  89.060  0.00  0.00    +0.000 A 
ATOM      9  C   UNL     1      83.605  72.735  87.807  0.00  0.00    +0.000 A 
ATOM     10  C   UNL     1      84.352  72.426  86.671  0.00  0.00    +0.000 A 
ATOM     11  C   UNL     1      85.626  71.816  86.754  0.00  0.00    +0.000 A 
ATOM     12  C   UNL     1      88.006  70.569  89.509  0.00  0.00    +0.000 C 
ENDROOT
BRANCH   4  13
ATOM     13  O   UNL     1      89.395  69.995  87.179  0.00  0.00    +0.000 OA
ATOM     14  C   UNL     1      89.628  68.733  86.569  0.00  0.00    +0.000 C 
ENDBRANCH   4  13
TORSDOF 1
ENDMDL
