REMARK  Name = *****
REMARK  0 active torsions:
REMARK  status: ('A' for Active; 'I' for Inactive)
REMARK                            x       y       z     vdW  Elec       q    Type
REMARK                         _______ _______ _______ _____ _____    ______ ____
ROOT
ATOM      1  C   UNL     1      -1.382  -1.539  -0.240  0.00  0.00    +0.000 C 
ATOM      2  C   UNL     1      -0.102  -0.763  -0.088  0.00  0.00    +0.000 A 
ATOM      3  C   UNL     1      -0.364   0.616  -0.017  0.00  0.00    +0.000 A 
ATOM      4  C   UNL     1       0.663   1.537   0.108  0.00  0.00    +0.000 A 
ATOM      5  C   UNL     1       1.974   1.056   0.173  0.00  0.00    +0.000 A 
ATOM      6  C   UNL     1       2.233  -0.322   0.098  0.00  0.00    +0.000 A 
ATOM      7  C   UNL     1       1.195  -1.247  -0.038  0.00  0.00    +0.000 A 
ATOM      8 CL   UNL     1       3.860  -0.882   0.171  0.00  0.00    +0.000 Cl
ATOM      9  C   UNL     1      -1.839   0.867  -0.171  0.00  0.00    +0.000 C 
ATOM     10  C   UNL     1      -2.405  -0.506   0.247  0.00  0.00    +0.000 C 
ATOM     11  F   UNL     1      -3.636  -0.749  -0.255  0.00  0.00    +0.000 F 
ATOM     12  F   UNL     1      -2.510  -0.604   1.603  0.00  0.00    +0.000 F 
ATOM     13  F   UNL     1      -2.153   1.129  -1.471  0.00  0.00    +0.000 F 
ATOM     14  F   UNL     1      -2.348   1.884   0.564  0.00  0.00    +0.000 F 
ENDROOT
TORSDOF 0
