REMARK  Name = *****
REMARK  0 active torsions:
REMARK  status: ('A' for Active; 'I' for Inactive)
REMARK                            x       y       z     vdW  Elec       q    Type
REMARK                         _______ _______ _______ _____ _____    ______ ____
ROOT
ATOM      1  C   UNL     1       1.214   1.399  -0.006  0.00  0.00    +0.000 A 
ATOM      2  C   UNL     1       2.419   0.695  -0.011  0.00  0.00    +0.000 A 
ATOM      3  C   UNL     1       2.433  -0.700  -0.012  0.00  0.00    +0.000 A 
ATOM      4  C   UNL     1       1.226  -1.399  -0.007  0.00  0.00    +0.000 A 
ATOM      5  C   UNL     1       0.009  -0.705  -0.002  0.00  0.00    +0.000 A 
ATOM      6  C   UNL     1       0.011   0.694  -0.001  0.00  0.00    +0.000 A 
ATOM      7  N   UNL     1      -1.198   1.396   0.004  0.00  0.00    +0.000 N 
ATOM      8  C   UNL     1      -2.433   0.782   0.010  0.00  0.00    +0.000 A 
ATOM      9  O   UNL     1      -3.470   1.430   0.014  0.00  0.00    +0.000 OA
ATOM     10  C   UNL     1      -2.441  -0.766   0.011  0.00  0.00    +0.000 A 
ATOM     11  O   UNL     1      -3.488  -1.399   0.017  0.00  0.00    +0.000 OA
ATOM     12  N   UNL     1      -1.215  -1.390   0.004  0.00  0.00    +0.000 N 
ATOM     13 CL   UNL     1       1.270  -3.125  -0.008  0.00  0.00    +0.000 Cl
ATOM     14 CL   UNL     1       3.906   1.559  -0.016  0.00  0.00    +0.000 Cl
ATOM     15  H   UNL     1      -1.167   2.380   0.003  0.00  0.00    +0.000 HD
ATOM     16  H   UNL     1      -1.195  -2.375   0.004  0.00  0.00    +0.000 HD
ENDROOT
TORSDOF 0
