MODEL 1
REMARK VINA RESULT:      -3.5      0.000      0.000
REMARK  Name = *****
REMARK  1 active torsions:
REMARK  status: ('A' for Active; 'I' for Inactive)
REMARK    1  A    between atoms: N_9  and  N_10
REMARK                            x       y       z     vdW  Elec       q    Type
REMARK                         _______ _______ _______ _____ _____    ______ ____
ROOT
ATOM      1  C   UNL     1      91.866  90.769  86.375  0.00  0.00    +0.000 A 
ATOM      2  C   UNL     1      92.805  90.794  87.410  0.00  0.00    +0.000 A 
ATOM      3  C   UNL     1      93.725  91.841  87.500  0.00  0.00    +0.000 A 
ATOM      4  C   UNL     1      93.696  92.857  86.549  0.00  0.00    +0.000 A 
ATOM      5  C   UNL     1      92.758  92.832  85.516  0.00  0.00    +0.000 A 
ATOM      6  C   UNL     1      91.839  91.790  85.423  0.00  0.00    +0.000 A 
ATOM      7  S   UNL     1      92.821  94.184  84.368  0.00  0.00    +0.000 S 
ATOM      8  C   UNL     1      94.171  95.034  85.126  0.00  0.00    +0.000 A 
ATOM      9  N   UNL     1      94.577  96.141  84.596  0.00  0.00    +0.000 NA
ATOM     10  S   UNL     1      94.812  94.236  86.562  0.00  0.00    +0.000 S 
ENDROOT
BRANCH   9  11
ATOM     11  N   UNL     1      95.643  96.800  85.208  0.00  0.00    +0.000 NA
ATOM     12  O   UNL     1      96.125  97.649  84.452  0.00  0.00    +0.000 OA
ENDBRANCH   9  11
TORSDOF 1
ENDMDL
