MODEL 1
REMARK VINA RESULT:      -4.4      0.000      0.000
REMARK  Name = *****
REMARK  1 active torsions:
REMARK  status: ('A' for Active; 'I' for Inactive)
REMARK    1  A    between atoms: C_1  and  N_2
REMARK                            x       y       z     vdW  Elec       q    Type
REMARK                         _______ _______ _______ _____ _____    ______ ____
ROOT
ATOM      1  C   UNL     1      89.691  69.747  85.334  0.00  0.00    +0.000 C 
ATOM      2  N   UNL     1      88.468  70.358  85.782  0.00  0.00    +0.000 N 
ATOM      3  C   UNL     1      88.081  70.577  87.104  0.00  0.00    +0.000 A 
ATOM      4  C   UNL     1      86.845  71.187  87.068  0.00  0.00    +0.000 A 
ATOM      5  C   UNL     1      86.120  71.568  88.159  0.00  0.00    +0.000 A 
ATOM      6  C   UNL     1      86.731  71.291  89.406  0.00  0.00    +0.000 A 
ATOM      7  C   UNL     1      87.997  70.667  89.471  0.00  0.00    +0.000 A 
ATOM      8  C   UNL     1      88.703  70.294  88.310  0.00  0.00    +0.000 A 
ATOM      9 CL   UNL     1      85.953  71.706  90.892  0.00  0.00    +0.000 Cl
ATOM     10  C   UNL     1      84.875  72.177  87.870  0.00  0.00    +0.000 A 
ATOM     11  C   UNL     1      84.455  72.356  86.536  0.00  0.00    +0.000 A 
ATOM     12  C   UNL     1      85.243  71.945  85.446  0.00  0.00    +0.000 A 
ATOM     13  C   UNL     1      86.464  71.347  85.746  0.00  0.00    +0.000 A 
ATOM     14  C   UNL     1      87.492  70.821  84.869  0.00  0.00    +0.000 C 
ATOM     15  O   UNL     1      87.566  70.761  83.648  0.00  0.00    +0.000 OA
ENDROOT
TORSDOF 0
ENDMDL
