MODEL 1
REMARK VINA RESULT:      -3.9      0.000      0.000
REMARK  Name = *****
REMARK  0 active torsions:
REMARK  status: ('A' for Active; 'I' for Inactive)
REMARK                            x       y       z     vdW  Elec       q    Type
REMARK                         _______ _______ _______ _____ _____    ______ ____
ROOT
ATOM      1  C   UNL     1      98.262 127.926  83.662  0.00  0.00    +0.000 A 
ATOM      2  C   UNL     1      98.779 126.882  82.892  0.00  0.00    +0.000 A 
ATOM      3  C   UNL     1     100.153 126.888  82.606  0.00  0.00    +0.000 A 
ATOM      4  C   UNL     1     101.030 127.894  83.060  0.00  0.00    +0.000 A 
ATOM      5  C   UNL     1     100.453 128.925  83.835  0.00  0.00    +0.000 A 
ATOM      6  C   UNL     1      99.087 128.941  84.132  0.00  0.00    +0.000 A 
ATOM      7 CL   UNL     1     101.469 130.173  84.412  0.00  0.00    +0.000 Cl
ATOM      8  C   UNL     1     102.332 127.546  82.565  0.00  0.00    +0.000 A 
ATOM      9  C   UNL     1     102.193 126.383  81.857  0.00  0.00    +0.000 A 
ATOM     10  N   UNL     1     100.896 125.986  81.877  0.00  0.00    +0.000 N 
ATOM     11 CL   UNL     1     103.293 125.406  81.006  0.00  0.00    +0.000 Cl
ATOM     12 CL   UNL     1     103.788 128.397  82.799  0.00  0.00    +0.000 Cl
ATOM     13  H   UNL     1     100.541 125.178  81.441  0.00  0.00    +0.000 HD
ENDROOT
TORSDOF 0
ENDMDL
