MODEL 1
REMARK VINA RESULT:      -4.7      0.000      0.000
REMARK  Name = *****
REMARK  4 active torsions:
REMARK  status: ('A' for Active; 'I' for Inactive)
REMARK    1  A    between atoms: C_1  and  C_2
REMARK    2  A    between atoms: C_4  and  C_13
REMARK    3  A    between atoms: C_6  and  C_12
REMARK    4  A    between atoms: C_9  and  C_11
REMARK                            x       y       z     vdW  Elec       q    Type
REMARK                         _______ _______ _______ _____ _____    ______ ____
ROOT
ATOM      1  C   UNL     1      87.831  71.697  84.890  0.00  0.00    +0.000 C 
ATOM      2  C   UNL     1      86.866  70.908  85.768  0.00  0.00    +0.000 C 
ATOM      3  C   UNL     1      85.514  71.574  85.800  0.00  0.00    +0.000 C 
ATOM      4  C   UNL     1      85.139  71.950  87.035  0.00  0.00    +0.000 C 
ATOM      5  C   UNL     1      86.202  71.557  87.972  0.00  0.00    +0.000 A 
ATOM      6  C   UNL     1      86.319  71.705  89.355  0.00  0.00    +0.000 A 
ATOM      7  C   UNL     1      87.470  71.188  89.973  0.00  0.00    +0.000 A 
ATOM      8  C   UNL     1      88.468  70.533  89.235  0.00  0.00    +0.000 A 
ATOM      9  C   UNL     1      88.351  70.370  87.852  0.00  0.00    +0.000 A 
ATOM     10  C   UNL     1      87.226  70.915  87.233  0.00  0.00    +0.000 A 
ATOM     11  C   UNL     1      89.434  69.667  87.091  0.00  0.00    +0.000 C 
ATOM     12  C   UNL     1      85.284  72.380  90.203  0.00  0.00    +0.000 C 
ATOM     13  C   UNL     1      83.866  72.626  87.387  0.00  0.00    +0.000 C 
ENDROOT
TORSDOF 0
ENDMDL
