REMARK  Name = *****
REMARK  3 active torsions:
REMARK  status: ('A' for Active; 'I' for Inactive)
REMARK    1  A    between atoms: C_1  and  O_2
REMARK    2  A    between atoms: O_2  and  C_3
REMARK    3  A    between atoms: C_10  and  C_12
REMARK                            x       y       z     vdW  Elec       q    Type
REMARK                         _______ _______ _______ _____ _____    ______ ____
ROOT
ATOM      1  C   UNL     1       3.046   0.833  -0.689  0.00  0.00    +0.000 A 
ATOM      2  C   UNL     1       4.194   0.307  -1.291  0.00  0.00    +0.000 A 
ATOM      3  C   UNL     1       5.024   1.148  -2.057  0.00  0.00    +0.000 A 
ATOM      4  C   UNL     1       4.728   2.500  -2.231  0.00  0.00    +0.000 A 
ATOM      5  C   UNL     1       3.562   3.012  -1.615  0.00  0.00    +0.000 A 
ATOM      6  C   UNL     1       2.734   2.177  -0.852  0.00  0.00    +0.000 A 
ATOM      7  C   UNL     1       5.717   3.148  -3.045  0.00  0.00    +0.000 A 
ATOM      8  C   UNL     1       6.715   2.294  -3.460  0.00  0.00    +0.000 A 
ATOM      9  S   UNL     1       6.474   0.712  -2.877  0.00  0.00    +0.000 S 
ENDROOT
BRANCH   1  11
ATOM     10  C   UNL     1       1.151   0.398   0.685  0.00  0.00    +0.000 C 
ATOM     11  O   UNL     1       2.320  -0.078   0.030  0.00  0.00    +0.000 OA
ENDBRANCH   1  11
BRANCH   8  12
ATOM     12  C   UNL     1       7.825   2.668  -4.277  0.00  0.00    +0.000 C 
ATOM     13  N   UNL     1       8.720   2.991  -4.941  0.00  0.00    +0.000 NA
ENDBRANCH   8  12
TORSDOF 2
