MODEL 1
REMARK VINA RESULT:      -4.2      0.000      0.000
REMARK  Name = *****
REMARK  3 active torsions:
REMARK  status: ('A' for Active; 'I' for Inactive)
REMARK    1  A    between atoms: C_1  and  C_2
REMARK    2  A    between atoms: C_3  and  O_12
REMARK    3  A    between atoms: O_12  and  C_13
REMARK                            x       y       z     vdW  Elec       q    Type
REMARK                         _______ _______ _______ _____ _____    ______ ____
ROOT
ATOM      1  C   UNL     1      88.119  70.534  89.497  0.00  0.00    +0.000 C 
ATOM      2  C   UNL     1      87.622  70.813  88.101  0.00  0.00    +0.000 A 
ATOM      3  C   UNL     1      88.404  70.454  86.991  0.00  0.00    +0.000 A 
ATOM      4  C   UNL     1      87.987  70.738  85.692  0.00  0.00    +0.000 A 
ATOM      5  C   UNL     1      86.752  71.345  85.480  0.00  0.00    +0.000 A 
ATOM      6  C   UNL     1      85.925  71.684  86.559  0.00  0.00    +0.000 A 
ATOM      7  C   UNL     1      84.678  72.286  86.325  0.00  0.00    +0.000 A 
ATOM      8  C   UNL     1      83.839  72.634  87.382  0.00  0.00    +0.000 A 
ATOM      9  C   UNL     1      84.238  72.386  88.687  0.00  0.00    +0.000 A 
ATOM     10  C   UNL     1      85.476  71.789  88.936  0.00  0.00    +0.000 A 
ATOM     11  C   UNL     1      86.352  71.422  87.888  0.00  0.00    +0.000 A 
ENDROOT
BRANCH   3  12
ATOM     12  O   UNL     1      89.634  69.877  87.184  0.00  0.00    +0.000 OA
ATOM     13  C   UNL     1      89.734  68.648  86.462  0.00  0.00    +0.000 C 
ENDBRANCH   3  12
TORSDOF 1
ENDMDL
