MODEL 1
REMARK VINA RESULT:      -3.9      0.000      0.000
REMARK  Name = *****
REMARK  0 active torsions:
REMARK  status: ('A' for Active; 'I' for Inactive)
REMARK                            x       y       z     vdW  Elec       q    Type
REMARK                         _______ _______ _______ _____ _____    ______ ____
ROOT
ATOM      1  C   UNL     1      98.987 128.609  83.584  0.00  0.00    +0.000 C 
ATOM      2  C   UNL     1     100.322 128.545  83.529  0.00  0.00    +0.000 A 
ATOM      3  C   UNL     1     100.745 127.374  82.772  0.00  0.00    +0.000 A 
ATOM      4  C   UNL     1      99.684 126.687  82.342  0.00  0.00    +0.000 C 
ATOM      5  C   UNL     1      98.521 127.435  82.835  0.00  0.00    +0.000 C 
ATOM      6  O   UNL     1      97.359 127.133  82.653  0.00  0.00    +0.000 OA
ATOM      7  C   UNL     1     102.160 127.105  82.585  0.00  0.00    +0.000 A 
ATOM      8  C   UNL     1     103.063 127.962  83.126  0.00  0.00    +0.000 A 
ATOM      9  C   UNL     1     102.630 129.158  83.899  0.00  0.00    +0.000 A 
ATOM     10  C   UNL     1     101.317 129.440  84.093  0.00  0.00    +0.000 A 
ATOM     11 CL   UNL     1     100.760 130.818  84.986  0.00  0.00    +0.000 Cl
ATOM     12 CL   UNL     1     103.859 130.207  84.560  0.00  0.00    +0.000 Cl
ATOM     13 CL   UNL     1     104.774 127.677  82.925  0.00  0.00    +0.000 Cl
ATOM     14 CL   UNL     1     102.608 125.699  81.677  0.00  0.00    +0.000 Cl
ENDROOT
TORSDOF 0
ENDMDL
