MODEL 1
REMARK VINA RESULT:      -4.6      0.000      0.000
REMARK  Name = *****
REMARK  3 active torsions:
REMARK  status: ('A' for Active; 'I' for Inactive)
REMARK    1  A    between atoms: C_1  and  C_2
REMARK    2  A    between atoms: C_4  and  O_12
REMARK    3  A    between atoms: O_12  and  C_13
REMARK                            x       y       z     vdW  Elec       q    Type
REMARK                         _______ _______ _______ _____ _____    ______ ____
ROOT
ATOM      1  C   UNL     1      87.591  70.703  90.122  0.00  0.00    +0.000 C 
ATOM      2  C   UNL     1      87.640  70.771  88.616  0.00  0.00    +0.000 A 
ATOM      3  C   UNL     1      88.784  70.275  87.961  0.00  0.00    +0.000 A 
ATOM      4  C   UNL     1      88.880  70.311  86.571  0.00  0.00    +0.000 A 
ATOM      5  C   UNL     1      87.816  70.818  85.826  0.00  0.00    +0.000 A 
ATOM      6  C   UNL     1      86.665  71.321  86.447  0.00  0.00    +0.000 A 
ATOM      7  C   UNL     1      85.611  71.840  85.674  0.00  0.00    +0.000 A 
ATOM      8  C   UNL     1      84.461  72.347  86.275  0.00  0.00    +0.000 A 
ATOM      9  C   UNL     1      84.348  72.342  87.659  0.00  0.00    +0.000 A 
ATOM     10  C   UNL     1      85.386  71.828  88.441  0.00  0.00    +0.000 A 
ATOM     11  C   UNL     1      86.564  71.308  87.860  0.00  0.00    +0.000 A 
ENDROOT
BRANCH   4  12
ATOM     12  O   UNL     1      89.936  69.857  85.832  0.00  0.00    +0.000 OA
BRANCH  12  13
ATOM     13  C   UNL     1      90.058  70.398  84.527  0.00  0.00    +0.000 C 
ATOM     14  F   UNL     1      91.070  71.300  84.512  0.00  0.00    +0.000 F 
ATOM     15  F   UNL     1      90.432  69.385  83.703  0.00  0.00    +0.000 F 
ENDBRANCH  12  13
ENDBRANCH   4  12
TORSDOF 2
ENDMDL
