MODEL 1
REMARK VINA RESULT:      -3.7      0.000      0.000
REMARK  Name = *****
REMARK  1 active torsions:
REMARK  status: ('A' for Active; 'I' for Inactive)
REMARK    1  A    between atoms: C_1  and  N_2
REMARK                            x       y       z     vdW  Elec       q    Type
REMARK                         _______ _______ _______ _____ _____    ______ ____
ROOT
ATOM      1  C   UNL     1      89.279  65.899  86.785  0.00  0.00    +0.000 C 
ATOM      2  N   UNL     1      88.599  64.628  86.836  0.00  0.00    +0.000 N 
ATOM      3  C   UNL     1      87.920  64.114  87.957  0.00  0.00    +0.000 A 
ATOM      4  C   UNL     1      87.726  64.634  89.218  0.00  0.00    +0.000 A 
ATOM      5  C   UNL     1      86.991  63.860  90.128  0.00  0.00    +0.000 A 
ATOM      6  C   UNL     1      86.472  62.595  89.758  0.00  0.00    +0.000 A 
ATOM      7  C   UNL     1      86.679  62.082  88.472  0.00  0.00    +0.000 A 
ATOM      8  C   UNL     1      87.404  62.865  87.603  0.00  0.00    +0.000 A 
ATOM      9  N   UNL     1      87.752  62.603  86.283  0.00  0.00    +0.000 N 
ATOM     10  C   UNL     1      88.496  63.686  85.787  0.00  0.00    +0.000 A 
ATOM     11  S   UNL     1      89.100  63.760  84.248  0.00  0.00    +0.000 S 
ATOM     12 CL   UNL     1      85.562  61.619  90.861  0.00  0.00    +0.000 Cl
ATOM     13 CL   UNL     1      86.751  64.517  91.711  0.00  0.00    +0.000 Cl
ATOM     14  H   UNL     1      87.517  61.791  85.778  0.00  0.00    +0.000 HD
ENDROOT
TORSDOF 0
ENDMDL
