MODEL 1
REMARK VINA RESULT:      -3.4      0.000      0.000
REMARK  Name = *****
REMARK  0 active torsions:
REMARK  status: ('A' for Active; 'I' for Inactive)
REMARK                            x       y       z     vdW  Elec       q    Type
REMARK                         _______ _______ _______ _____ _____    ______ ____
ROOT
ATOM      1  C   UNL     1     103.299 128.035  81.880  0.00  0.00    +0.000 C 
ATOM      2  C   UNL     1     104.055 127.971  80.557  0.00  0.00    +0.000 C 
ATOM      3  C   UNL     1     104.687 126.600  80.349  0.00  0.00    +0.000 C 
ATOM      4  C   UNL     1     103.638 125.481  80.405  0.00  0.00    +0.000 C 
ATOM      5  C   UNL     1     104.284 124.101  80.532  0.00  0.00    +0.000 C 
ATOM      6  C   UNL     1     104.468 123.868  82.034  0.00  0.00    +0.000 C 
ATOM      7  C   UNL     1     103.625 124.927  82.746  0.00  0.00    +0.000 C 
ATOM      8  C   UNL     1     102.752 125.548  81.653  0.00  0.00    +0.000 C 
ATOM      9  C   UNL     1     102.232 126.948  81.971  0.00  0.00    +0.000 C 
ENDROOT
TORSDOF 0
ENDMDL
