REMARK  Name = *****
REMARK  0 active torsions:
REMARK  status: ('A' for Active; 'I' for Inactive)
REMARK                            x       y       z     vdW  Elec       q    Type
REMARK                         _______ _______ _______ _____ _____    ______ ____
ROOT
ATOM      1  C   UNL     1       1.226   1.399   0.003  0.00  0.00    +0.000 A 
ATOM      2  C   UNL     1       2.442   0.712   0.012  0.00  0.00    +0.000 A 
ATOM      3  C   UNL     1       2.466  -0.687   0.003  0.00  0.00    +0.000 A 
ATOM      4  C   UNL     1       1.267  -1.412  -0.014  0.00  0.00    +0.000 A 
ATOM      5  C   UNL     1       0.046  -0.717  -0.023  0.00  0.00    +0.000 A 
ATOM      6  C   UNL     1       0.025   0.689  -0.015  0.00  0.00    +0.000 A 
ATOM      7  C   UNL     1      -1.261   1.388  -0.025  0.00  0.00    +0.000 A 
ATOM      8  C   UNL     1      -2.405   0.693  -0.044  0.00  0.00    +0.000 A 
ATOM      9  C   UNL     1      -2.406  -0.788  -0.054  0.00  0.00    +0.000 A 
ATOM     10  O   UNL     1      -3.458  -1.415  -0.071  0.00  0.00    +0.000 OA
ATOM     11  N   UNL     1      -1.184  -1.402  -0.042  0.00  0.00    +0.000 N 
ATOM     12 BR   UNL     1       1.258  -3.320  -0.025  0.00  0.00    +0.000 Br
ATOM     13 CL   UNL     1       4.021  -1.446   0.015  0.00  0.00    +0.000 Cl
ATOM     14  H   UNL     1      -1.163  -2.386  -0.047  0.00  0.00    +0.000 HD
ENDROOT
TORSDOF 0
