REMARK  Name = *****
REMARK  0 active torsions:
REMARK  status: ('A' for Active; 'I' for Inactive)
REMARK                            x       y       z     vdW  Elec       q    Type
REMARK                         _______ _______ _______ _____ _____    ______ ____
ROOT
ATOM      1  C   UNL     1       1.995  -1.131  -0.610  0.00  0.00    +0.000 C 
ATOM      2  O   UNL     1       2.771  -0.138   0.049  0.00  0.00    +0.000 OA
ATOM      3  C   UNL     1       2.033   0.893   0.695  0.00  0.00    +0.000 C 
ATOM      4  S   UNL     1       0.761   1.659  -0.318  0.00  0.00    +0.000 S 
ATOM      5  C   UNL     1      -0.614   0.612  -0.112  0.00  0.00    +0.000 A 
ATOM      6  C   UNL     1      -0.650  -0.716   0.138  0.00  0.00    +0.000 A 
ATOM      7  S   UNL     1       0.666  -1.830   0.377  0.00  0.00    +0.000 S 
ATOM      8  S   UNL     1      -2.248  -1.436   0.283  0.00  0.00    +0.000 S 
ATOM      9  C   UNL     1      -3.179   0.010  -0.022  0.00  0.00    +0.000 A 
ATOM     10  S   UNL     1      -4.844   0.051  -0.048  0.00  0.00    +0.000 S 
ATOM     11  S   UNL     1      -2.171   1.410  -0.297  0.00  0.00    +0.000 S 
ENDROOT
TORSDOF 0
