REMARK  Name = *****
REMARK  0 active torsions:
REMARK  status: ('A' for Active; 'I' for Inactive)
REMARK                            x       y       z     vdW  Elec       q    Type
REMARK                         _______ _______ _______ _____ _____    ______ ____
ROOT
ATOM      1  C   UNL     1       1.196  -1.382   0.008  0.00  0.00    +0.000 A 
ATOM      2  C   UNL     1       2.390  -0.664   0.026  0.00  0.00    +0.000 A 
ATOM      3  C   UNL     1       2.383   0.728   0.015  0.00  0.00    +0.000 A 
ATOM      4  C   UNL     1       1.164   1.412  -0.016  0.00  0.00    +0.000 A 
ATOM      5  C   UNL     1      -0.058   0.717  -0.035  0.00  0.00    +0.000 A 
ATOM      6  C   UNL     1      -0.016  -0.690  -0.022  0.00  0.00    +0.000 A 
ATOM      7  N   UNL     1      -1.212  -1.415  -0.030  0.00  0.00    +0.000 N 
ATOM      8  C   UNL     1      -2.431  -0.791  -0.044  0.00  0.00    +0.000 A 
ATOM      9  O   UNL     1      -3.503  -1.379   0.005  0.00  0.00    +0.000 OA
ATOM     10  C   UNL     1      -2.399   0.751  -0.098  0.00  0.00    +0.000 A 
ATOM     11  N   UNL     1      -1.283   1.419  -0.072  0.00  0.00    +0.000 NA
ATOM     12  N   UNL     1      -3.596   1.420  -0.151  0.00  0.00    +0.000 N 
ATOM     13 CL   UNL     1       1.212   3.141  -0.026  0.00  0.00    +0.000 Cl
ATOM     14 CL   UNL     1       3.889  -1.508   0.064  0.00  0.00    +0.000 Cl
ATOM     15  H   UNL     1      -1.177  -2.399  -0.025  0.00  0.00    +0.000 HD
ATOM     16  H   UNL     1      -4.441   0.916  -0.171  0.00  0.00    +0.000 HD
ATOM     17  H   UNL     1      -3.608   2.404  -0.170  0.00  0.00    +0.000 HD
ENDROOT
TORSDOF 0
