REMARK  Name = *****
REMARK  0 active torsions:
REMARK  status: ('A' for Active; 'I' for Inactive)
REMARK                            x       y       z     vdW  Elec       q    Type
REMARK                         _______ _______ _______ _____ _____    ______ ____
ROOT
ATOM      1  C   UNL     1       0.900   1.363  -0.007  0.00  0.00    +0.000 A 
ATOM      2  C   UNL     1       2.140   0.724  -0.007  0.00  0.00    +0.000 A 
ATOM      3  C   UNL     1       2.226  -0.682  -0.006  0.00  0.00    +0.000 A 
ATOM      4  C   UNL     1       1.064  -1.472  -0.004  0.00  0.00    +0.000 A 
ATOM      5  C   UNL     1      -0.167  -0.824  -0.003  0.00  0.00    +0.000 A 
ATOM      6  C   UNL     1      -0.235   0.572  -0.005  0.00  0.00    +0.000 A 
ATOM      7  N   UNL     1      -1.538   1.068  -0.003  0.00  0.00    +0.000 N 
ATOM      8  C   UNL     1      -2.535   0.118  -0.001  0.00  0.00    +0.000 A 
ATOM      9  S   UNL     1      -4.149   0.483   0.001  0.00  0.00    +0.000 S 
ATOM     10  S   UNL     1      -1.819  -1.493  -0.001  0.00  0.00    +0.000 S 
ATOM     11 CL   UNL     1       1.138  -3.198  -0.002  0.00  0.00    +0.000 Cl
ATOM     12 CL   UNL     1       3.812  -1.374  -0.007  0.00  0.00    +0.000 Cl
ATOM     13  H   UNL     1      -1.733   2.033  -0.004  0.00  0.00    +0.000 HD
ENDROOT
TORSDOF 0
