MODEL 1
REMARK VINA RESULT:      -4.0      0.000      0.000
REMARK  Name = *****
REMARK  2 active torsions:
REMARK  status: ('A' for Active; 'I' for Inactive)
REMARK    1  A    between atoms: C_6  and  O_11
REMARK    2  A    between atoms: O_11  and  C_12
REMARK                            x       y       z     vdW  Elec       q    Type
REMARK                         _______ _______ _______ _____ _____    ______ ____
ROOT
ATOM      1  C   UNL     1      84.834  72.086  88.272  0.00  0.00    +0.000 A 
ATOM      2  C   UNL     1      84.694  72.205  86.893  0.00  0.00    +0.000 A 
ATOM      3  C   UNL     1      85.723  71.786  86.049  0.00  0.00    +0.000 A 
ATOM      4  C   UNL     1      86.906  71.242  86.575  0.00  0.00    +0.000 A 
ATOM      5  C   UNL     1      87.953  70.813  85.741  0.00  0.00    +0.000 A 
ATOM      6  C   UNL     1      89.129  70.272  86.269  0.00  0.00    +0.000 A 
ATOM      7  C   UNL     1      89.264  70.156  87.651  0.00  0.00    +0.000 A 
ATOM      8  C   UNL     1      88.232  70.578  88.496  0.00  0.00    +0.000 A 
ATOM      9  C   UNL     1      87.049  71.121  87.974  0.00  0.00    +0.000 A 
ATOM     10  C   UNL     1      86.004  71.549  88.811  0.00  0.00    +0.000 A 
ENDROOT
BRANCH   6  11
ATOM     11  O   UNL     1      90.056  69.900  85.335  0.00  0.00    +0.000 OA
ATOM     12  C   UNL     1      90.471  70.895  84.409  0.00  0.00    +0.000 C 
ENDBRANCH   6  11
TORSDOF 1
ENDMDL
