REMARK  Name = *****
REMARK  0 active torsions:
REMARK  status: ('A' for Active; 'I' for Inactive)
REMARK                            x       y       z     vdW  Elec       q    Type
REMARK                         _______ _______ _______ _____ _____    ______ ____
ROOT
ATOM      1  C   UNL     1       1.006  -0.013   0.024  0.00  0.00    +0.000 C 
ATOM      2  C   UNL     1       2.344  -0.010   0.035  0.00  0.00    +0.000 C 
ATOM      3  C   UNL     1       3.208  -1.250  -0.035  0.00  0.00    +0.000 C 
ATOM      4  C   UNL     1       4.567  -0.701   0.380  0.00  0.00    +0.000 C 
ATOM      5  C   UNL     1       5.794  -1.490  -0.053  0.00  0.00    +0.000 C 
ATOM      6  C   UNL     1       7.063  -0.726   0.346  0.00  0.00    +0.000 C 
ATOM      7  C   UNL     1       7.067   0.726  -0.152  0.00  0.00    +0.000 C 
ATOM      8  C   UNL     1       5.784   1.486   0.211  0.00  0.00    +0.000 C 
ATOM      9  C   UNL     1       4.573   0.691  -0.256  0.00  0.00    +0.000 C 
ATOM     10  C   UNL     1       3.200   1.235   0.121  0.00  0.00    +0.000 C 
ENDROOT
TORSDOF 0
