MODEL 1
REMARK VINA RESULT:      -4.2      0.000      0.000
REMARK  Name = *****
REMARK  4 active torsions:
REMARK  status: ('A' for Active; 'I' for Inactive)
REMARK    1  A    between atoms: C_1  and  C_2
REMARK    2  A    between atoms: C_2  and  O_3
REMARK    3  A    between atoms: O_3  and  C_4
REMARK    4  A    between atoms: C_5  and  C_14
REMARK                            x       y       z     vdW  Elec       q    Type
REMARK                         _______ _______ _______ _____ _____    ______ ____
ROOT
ATOM      1  C   UNL     1      88.397  70.528  86.331  0.00  0.00    +0.000 A 
ATOM      2  C   UNL     1      87.781  70.767  87.577  0.00  0.00    +0.000 A 
ATOM      3  C   UNL     1      86.484  71.360  87.626  0.00  0.00    +0.000 A 
ATOM      4  C   UNL     1      85.771  71.587  88.827  0.00  0.00    +0.000 A 
ATOM      5  C   UNL     1      84.501  72.170  88.831  0.00  0.00    +0.000 A 
ATOM      6  C   UNL     1      83.906  72.545  87.635  0.00  0.00    +0.000 A 
ATOM      7  C   UNL     1      84.581  72.334  86.434  0.00  0.00    +0.000 A 
ATOM      8  C   UNL     1      85.858  71.745  86.415  0.00  0.00    +0.000 A 
ATOM      9  C   UNL     1      86.513  71.537  85.197  0.00  0.00    +0.000 A 
ATOM     10  C   UNL     1      87.770  70.934  85.153  0.00  0.00    +0.000 A 
ATOM     11  C   UNL     1      88.478  70.354  88.853  0.00  0.00    +0.000 C 
ENDROOT
BRANCH   1  12
ATOM     12  O   UNL     1      89.629  69.925  86.352  0.00  0.00    +0.000 OA
BRANCH  12  14
ATOM     13  C   UNL     1      89.824  67.551  86.373  0.00  0.00    +0.000 C 
ATOM     14  C   UNL     1      89.796  68.793  85.499  0.00  0.00    +0.000 C 
ENDBRANCH  12  14
ENDBRANCH   1  12
TORSDOF 2
ENDMDL
