REMARK  Name = *****
REMARK  2 active torsions:
REMARK  status: ('A' for Active; 'I' for Inactive)
REMARK    1  A    between atoms: C_1  and  O_2
REMARK    2  A    between atoms: O_2  and  C_3
REMARK                            x       y       z     vdW  Elec       q    Type
REMARK                         _______ _______ _______ _____ _____    ______ ____
ROOT
ATOM      1  C   UNL     1       2.978   0.241  -1.174  0.00  0.00    +0.000 A 
ATOM      2  C   UNL     1       2.610   1.346  -1.937  0.00  0.00    +0.000 A 
ATOM      3  C   UNL     1       3.337   1.705  -3.092  0.00  0.00    +0.000 A 
ATOM      4  C   UNL     1       4.449   0.936  -3.500  0.00  0.00    +0.000 A 
ATOM      5  C   UNL     1       4.793  -0.183  -2.726  0.00  0.00    +0.000 A 
ATOM      6  C   UNL     1       4.071  -0.520  -1.576  0.00  0.00    +0.000 A 
ATOM      7  C   UNL     1       5.202   1.309  -4.728  0.00  0.00    +0.000 C 
ATOM      8  C   UNL     1       6.444   0.862  -4.995  0.00  0.00    +0.000 C 
ATOM      9  C   UNL     1       4.517   2.306  -5.637  0.00  0.00    +0.000 C 
ATOM     10  C   UNL     1       3.884   3.437  -4.851  0.00  0.00    +0.000 C 
ATOM     11  C   UNL     1       2.840   2.883  -3.897  0.00  0.00    +0.000 C 
ATOM     12  F   UNL     1       3.559   1.698  -6.390  0.00  0.00    +0.000 F 
ATOM     13  F   UNL     1       5.390   2.857  -6.531  0.00  0.00    +0.000 F 
ENDROOT
BRANCH   1  15
ATOM     14  C   UNL     1       1.219   0.528   0.400  0.00  0.00    +0.000 C 
ATOM     15  O   UNL     1       2.358  -0.202  -0.039  0.00  0.00    +0.000 OA
ENDBRANCH   1  15
TORSDOF 1
