MODEL 1
REMARK VINA RESULT:      -4.2      0.000      0.000
REMARK  Name = *****
REMARK  0 active torsions:
REMARK  status: ('A' for Active; 'I' for Inactive)
REMARK                            x       y       z     vdW  Elec       q    Type
REMARK                         _______ _______ _______ _____ _____    ______ ____
ROOT
ATOM      1  C   UNL     1     101.762 128.974  83.850  0.00  0.00    +0.000 A 
ATOM      2  C   UNL     1     103.113 128.820  83.538  0.00  0.00    +0.000 A 
ATOM      3  C   UNL     1     103.559 127.785  82.691  0.00  0.00    +0.000 A 
ATOM      4  C   UNL     1     102.645 126.879  82.141  0.00  0.00    +0.000 A 
ATOM      5  C   UNL     1     101.307 127.031  82.449  0.00  0.00    +0.000 A 
ATOM      6  C   UNL     1     100.890 128.062  83.288  0.00  0.00    +0.000 A 
ATOM      7  C   UNL     1      99.435 127.955  83.418  0.00  0.00    +0.000 C 
ATOM      8  O   UNL     1      98.709 128.672  84.064  0.00  0.00    +0.000 OA
ATOM      9  C   UNL     1      99.037 126.729  82.550  0.00  0.00    +0.000 C 
ATOM     10  O   UNL     1      97.920 126.295  82.385  0.00  0.00    +0.000 OA
ATOM     11  N   UNL     1     100.224 126.260  82.025  0.00  0.00    +0.000 N 
ATOM     12 BR   UNL     1     103.249 125.496  81.009  0.00  0.00    +0.000 Br
ATOM     13 BR   UNL     1     104.375 130.027  84.266  0.00  0.00    +0.000 Br
ATOM     14  H   UNL     1     100.297 125.481  81.426  0.00  0.00    +0.000 HD
ENDROOT
TORSDOF 0
ENDMDL
