MODEL 1
REMARK VINA RESULT:      -4.4      0.000      0.000
REMARK  Name = *****
REMARK  4 active torsions:
REMARK  status: ('A' for Active; 'I' for Inactive)
REMARK    1  A    between atoms: C_1  and  C_2
REMARK    2  A    between atoms: C_3  and  C_14
REMARK    3  A    between atoms: C_9  and  O_12
REMARK    4  A    between atoms: O_12  and  C_13
REMARK                            x       y       z     vdW  Elec       q    Type
REMARK                         _______ _______ _______ _____ _____    ______ ____
ROOT
ATOM      1  C   UNL     1      83.588  72.675  88.851  0.00  0.00    +0.000 C 
ATOM      2  C   UNL     1      84.765  72.170  88.060  0.00  0.00    +0.000 A 
ATOM      3  C   UNL     1      85.911  71.613  88.677  0.00  0.00    +0.000 A 
ATOM      4  C   UNL     1      87.001  71.154  87.874  0.00  0.00    +0.000 A 
ATOM      5  C   UNL     1      86.915  71.260  86.466  0.00  0.00    +0.000 A 
ATOM      6  C   UNL     1      85.770  71.809  85.880  0.00  0.00    +0.000 A 
ATOM      7  C   UNL     1      84.712  72.258  86.664  0.00  0.00    +0.000 A 
ATOM      8  C   UNL     1      87.974  70.814  85.656  0.00  0.00    +0.000 A 
ATOM      9  C   UNL     1      89.132  70.261  86.205  0.00  0.00    +0.000 A 
ATOM     10  C   UNL     1      89.235  70.151  87.585  0.00  0.00    +0.000 A 
ATOM     11  C   UNL     1      88.186  70.592  88.404  0.00  0.00    +0.000 A 
ATOM     12  C   UNL     1      85.998  71.501  90.182  0.00  0.00    +0.000 C 
ENDROOT
BRANCH   9  13
ATOM     13  O   UNL     1      90.073  69.874  85.291  0.00  0.00    +0.000 OA
ATOM     14  C   UNL     1      90.496  70.853  84.350  0.00  0.00    +0.000 C 
ENDBRANCH   9  13
TORSDOF 1
ENDMDL
