MODEL 1
REMARK VINA RESULT:      -4.0      0.000      0.000
REMARK  Name = *****
REMARK  4 active torsions:
REMARK  status: ('A' for Active; 'I' for Inactive)
REMARK    1  A    between atoms: C_1  and  O_2
REMARK    2  A    between atoms: O_2  and  C_3
REMARK    3  A    between atoms: C_10  and  O_13
REMARK    4  A    between atoms: O_13  and  C_14
REMARK                            x       y       z     vdW  Elec       q    Type
REMARK                         _______ _______ _______ _____ _____    ______ ____
ROOT
ATOM      1  C   UNL     1      98.661 127.616  82.850  0.00  0.00    +0.000 A 
ATOM      2  C   UNL     1      99.615 126.696  82.410  0.00  0.00    +0.000 A 
ATOM      3  C   UNL     1     100.993 126.940  82.547  0.00  0.00    +0.000 A 
ATOM      4  C   UNL     1     101.443 128.145  83.142  0.00  0.00    +0.000 A 
ATOM      5  C   UNL     1     100.455 129.060  83.580  0.00  0.00    +0.000 A 
ATOM      6  C   UNL     1      99.086 128.801  83.435  0.00  0.00    +0.000 A 
ATOM      7  C   UNL     1     102.844 128.354  83.264  0.00  0.00    +0.000 A 
ATOM      8  C   UNL     1     103.750 127.397  82.783  0.00  0.00    +0.000 A 
ATOM      9  C   UNL     1     103.290 126.208  82.223  0.00  0.00    +0.000 A 
ATOM     10  C   UNL     1     101.921 125.987  82.100  0.00  0.00    +0.000 A 
ATOM     11 CL   UNL     1     103.461 129.790  84.029  0.00  0.00    +0.000 Cl
ENDROOT
BRANCH   1  13
ATOM     12  C   UNL     1      96.619 126.851  83.798  0.00  0.00    +0.000 C 
ATOM     13  O   UNL     1      97.363 127.235  82.648  0.00  0.00    +0.000 OA
ENDBRANCH   1  13
BRANCH   8  14
ATOM     14  O   UNL     1     105.109 127.537  82.897  0.00  0.00    +0.000 OA
ATOM     15  C   UNL     1     105.790 126.780  81.893  0.00  0.00    +0.000 C 
ENDBRANCH   8  14
TORSDOF 2
ENDMDL
