REMARK  Name = *****
REMARK  1 active torsions:
REMARK  status: ('A' for Active; 'I' for Inactive)
REMARK    1  A    between atoms: C_3  and  C_4
REMARK                            x       y       z     vdW  Elec       q    Type
REMARK                         _______ _______ _______ _____ _____    ______ ____
ROOT
ATOM      1  C   UNL     1      -1.560  -0.940  -1.244  0.00  0.00    +0.000 A 
ATOM      2  N   UNL     1      -1.032  -1.068  -2.441  0.00  0.00    +0.000 NA
ATOM      3  C   UNL     1      -2.027  -1.588  -3.228  0.00  0.00    +0.000 A 
ATOM      4  C   UNL     1      -2.008  -1.922  -4.589  0.00  0.00    +0.000 A 
ATOM      5  C   UNL     1      -3.173  -2.445  -5.168  0.00  0.00    +0.000 A 
ATOM      6  C   UNL     1      -4.335  -2.630  -4.403  0.00  0.00    +0.000 A 
ATOM      7  C   UNL     1      -4.366  -2.300  -3.039  0.00  0.00    +0.000 A 
ATOM      8  C   UNL     1      -3.190  -1.782  -2.492  0.00  0.00    +0.000 A 
ATOM      9  N   UNL     1      -2.864  -1.360  -1.228  0.00  0.00    +0.000 N 
ATOM     10 CL   UNL     1      -5.791  -3.272  -5.085  0.00  0.00    +0.000 Cl
ATOM     11 CL   UNL     1      -3.107  -2.844  -6.851  0.00  0.00    +0.000 Cl
ATOM     12  H   UNL     1      -3.462  -1.360  -0.446  0.00  0.00    +0.000 HD
ENDROOT
BRANCH   1  15
ATOM     13  C   UNL     1       0.207   0.693  -0.255  0.00  0.00    +0.000 C 
ATOM     14  C   UNL     1       0.660  -0.684   0.088  0.00  0.00    +0.000 C 
ATOM     15  C   UNL     1      -0.822  -0.395  -0.031  0.00  0.00    +0.000 C 
ENDBRANCH   1  15
TORSDOF 1
