MODEL 1
REMARK VINA RESULT:      -4.4      0.000      0.000
REMARK  Name = *****
REMARK  3 active torsions:
REMARK  status: ('A' for Active; 'I' for Inactive)
REMARK    1  A    between atoms: C_1  and  C_2
REMARK    2  A    between atoms: C_2  and  C_4
REMARK    3  A    between atoms: C_11  and  C_13
REMARK                            x       y       z     vdW  Elec       q    Type
REMARK                         _______ _______ _______ _____ _____    ______ ____
ROOT
ATOM      1  C   UNL     1     102.613 126.066  82.114  0.00  0.00    +0.000 A 
ATOM      2  C   UNL     1     102.769 127.220  82.860  0.00  0.00    +0.000 A 
ATOM      3  C   UNL     1     101.486 127.780  83.108  0.00  0.00    +0.000 A 
ATOM      4  C   UNL     1     100.553 126.945  82.499  0.00  0.00    +0.000 A 
ATOM      5  N   UNL     1     101.258 125.919  81.909  0.00  0.00    +0.000 N 
ATOM      6  C   UNL     1      99.176 127.189  82.537  0.00  0.00    +0.000 A 
ATOM      7  C   UNL     1      98.742 128.329  83.224  0.00  0.00    +0.000 A 
ATOM      8  C   UNL     1      99.654 129.187  83.848  0.00  0.00    +0.000 A 
ATOM      9  C   UNL     1     101.031 128.922  83.795  0.00  0.00    +0.000 A 
ATOM     10  H   UNL     1     100.847 125.178  81.407  0.00  0.00    +0.000 HD
ENDROOT
BRANCH   1  12
ATOM     11  C   UNL     1     104.134 123.958  82.361  0.00  0.00    +0.000 C 
ATOM     12  C   UNL     1     103.501 125.083  81.567  0.00  0.00    +0.000 C 
ATOM     13  C   UNL     1     103.795 125.175  80.257  0.00  0.00    +0.000 C 
ENDBRANCH   1  12
BRANCH   8  14
ATOM     14  C   UNL     1      99.181 130.347  84.545  0.00  0.00    +0.000 C 
ATOM     15  N   UNL     1      98.801 131.288  85.109  0.00  0.00    +0.000 NA
ENDBRANCH   8  14
TORSDOF 2
ENDMDL
