MODEL 1
REMARK VINA RESULT:      -4.4      0.000      0.000
REMARK  Name = *****
REMARK  4 active torsions:
REMARK  status: ('A' for Active; 'I' for Inactive)
REMARK    1  A    between atoms: C_1  and  C_2
REMARK    2  A    between atoms: C_2  and  C_3
REMARK    3  A    between atoms: C_10  and  O_13
REMARK    4  A    between atoms: O_13  and  C_14
REMARK                            x       y       z     vdW  Elec       q    Type
REMARK                         _______ _______ _______ _____ _____    ______ ____
ROOT
ATOM      1  C   UNL     1     103.444 126.655  81.821  0.00  0.00    +0.000 C 
ATOM      2  C   UNL     1     103.771 127.450  83.092  0.00  0.00    +0.000 C 
ATOM      3  C   UNL     1     102.774 128.581  83.337  0.00  0.00    +0.000 C 
ATOM      4  C   UNL     1     101.338 128.154  83.168  0.00  0.00    +0.000 A 
ATOM      5  C   UNL     1     100.993 126.969  82.494  0.00  0.00    +0.000 A 
ATOM      6  C   UNL     1     102.050 126.019  81.980  0.00  0.00    +0.000 C 
ATOM      7  C   UNL     1      99.637 126.622  82.347  0.00  0.00    +0.000 A 
ATOM      8  C   UNL     1      98.629 127.454  82.836  0.00  0.00    +0.000 A 
ATOM      9  C   UNL     1      98.979 128.638  83.482  0.00  0.00    +0.000 A 
ATOM     10  C   UNL     1     100.319 128.989  83.646  0.00  0.00    +0.000 A 
ENDROOT
BRANCH   1  12
ATOM     11  C   UNL     1     104.819 128.277  80.390  0.00  0.00    +0.000 C 
ATOM     12  C   UNL     1     103.531 127.476  80.517  0.00  0.00    +0.000 C 
ENDBRANCH   1  12
BRANCH   8  13
ATOM     13  O   UNL     1      97.282 127.226  82.750  0.00  0.00    +0.000 OA
ATOM     14  C   UNL     1      96.613 126.872  83.953  0.00  0.00    +0.000 C 
ENDBRANCH   8  13
TORSDOF 2
ENDMDL
