MODEL 1
REMARK VINA RESULT:      -4.1      0.000      0.000
REMARK  Name = *****
REMARK  2 active torsions:
REMARK  status: ('A' for Active; 'I' for Inactive)
REMARK    1  A    between atoms: C_1  and  C_2
REMARK    2  A    between atoms: C_2  and  N_3
REMARK                            x       y       z     vdW  Elec       q    Type
REMARK                         _______ _______ _______ _____ _____    ______ ____
ROOT
ATOM      1  N   UNL     1      99.815 127.944  83.321  0.00  0.00    +0.000 N 
ATOM      2  C   UNL     1     101.155 127.547  83.215  0.00  0.00    +0.000 A 
ATOM      3  C   UNL     1     102.297 128.067  83.781  0.00  0.00    +0.000 A 
ATOM      4  C   UNL     1     103.509 127.432  83.474  0.00  0.00    +0.000 A 
ATOM      5  C   UNL     1     103.545 126.304  82.616  0.00  0.00    +0.000 A 
ATOM      6  C   UNL     1     102.370 125.790  82.053  0.00  0.00    +0.000 A 
ATOM      7  C   UNL     1     101.198 126.434  82.373  0.00  0.00    +0.000 A 
ATOM      8  N   UNL     1      99.900 126.139  81.974  0.00  0.00    +0.000 N 
ATOM      9  C   UNL     1      99.018 127.058  82.566  0.00  0.00    +0.000 A 
ATOM     10  O   UNL     1      97.805 127.062  82.440  0.00  0.00    +0.000 OA
ATOM     11 CL   UNL     1     105.027 125.503  82.221  0.00  0.00    +0.000 Cl
ATOM     12 CL   UNL     1     104.945 128.086  84.184  0.00  0.00    +0.000 Cl
ATOM     13  H   UNL     1      99.640 125.403  81.374  0.00  0.00    +0.000 HD
ENDROOT
BRANCH   1  15
ATOM     14  C   UNL     1      99.367 130.354  83.436  0.00  0.00    +0.000 C 
ATOM     15  C   UNL     1      99.307 129.011  84.145  0.00  0.00    +0.000 C 
ENDBRANCH   1  15
TORSDOF 1
ENDMDL
