REMARK  Name = *****
REMARK  3 active torsions:
REMARK  status: ('A' for Active; 'I' for Inactive)
REMARK    1  A    between atoms: C_1  and  O_2
REMARK    2  A    between atoms: O_2  and  C_3
REMARK    3  A    between atoms: C_10  and  C_13
REMARK                            x       y       z     vdW  Elec       q    Type
REMARK                         _______ _______ _______ _____ _____    ______ ____
ROOT
ATOM      1  C   UNL     1       3.363  -0.683  -0.924  0.00  0.00    +0.000 A 
ATOM      2  C   UNL     1       3.023  -0.810  -2.287  0.00  0.00    +0.000 A 
ATOM      3  C   UNL     1       3.591  -1.829  -3.104  0.00  0.00    +0.000 A 
ATOM      4  C   UNL     1       4.509  -2.726  -2.509  0.00  0.00    +0.000 A 
ATOM      5  C   UNL     1       4.833  -2.592  -1.152  0.00  0.00    +0.000 A 
ATOM      6  C   UNL     1       4.268  -1.585  -0.367  0.00  0.00    +0.000 A 
ATOM      7  C   UNL     1       5.097  -3.748  -3.275  0.00  0.00    +0.000 A 
ATOM      8  C   UNL     1       4.797  -3.912  -4.635  0.00  0.00    +0.000 A 
ATOM      9  C   UNL     1       3.901  -3.025  -5.232  0.00  0.00    +0.000 A 
ATOM     10  C   UNL     1       3.307  -2.007  -4.480  0.00  0.00    +0.000 A 
ATOM     11 CL   UNL     1       1.881   0.320  -2.970  0.00  0.00    +0.000 Cl
ENDROOT
BRANCH   1  13
ATOM     12  C   UNL     1       3.214   0.583   1.100  0.00  0.00    +0.000 C 
ATOM     13  O   UNL     1       2.761   0.332  -0.223  0.00  0.00    +0.000 OA
ENDBRANCH   1  13
BRANCH   8  14
ATOM     14  C   UNL     1       5.450  -5.001  -5.438  0.00  0.00    +0.000 C 
ATOM     15 CL   UNL     1       7.053  -4.486  -5.999  0.00  0.00    +0.000 Cl
ENDBRANCH   8  14
TORSDOF 2
