MODEL 1
REMARK VINA RESULT:      -3.2      0.000      0.000
REMARK  Name = *****
REMARK  1 active torsions:
REMARK  status: ('A' for Active; 'I' for Inactive)
REMARK    1  A    between atoms: C_1  and  C_2
REMARK                            x       y       z     vdW  Elec       q    Type
REMARK                         _______ _______ _______ _____ _____    ______ ____
ROOT
ATOM      1  C   UNL     1     102.040 127.130  82.275  0.00  0.00    +0.000 C 
ATOM      2  C   UNL     1     102.913 125.981  81.861  0.00  0.00    +0.000 A 
ATOM      3  C   UNL     1     103.273 124.985  82.779  0.00  0.00    +0.000 A 
ATOM      4  C   UNL     1     104.085 123.930  82.369  0.00  0.00    +0.000 A 
ATOM      5  C   UNL     1     104.542 123.857  81.053  0.00  0.00    +0.000 A 
ATOM      6  C   UNL     1     104.191 124.839  80.133  0.00  0.00    +0.000 A 
ATOM      7  C   UNL     1     103.377 125.899  80.538  0.00  0.00    +0.000 A 
ATOM      8  S   UNL     1     105.568 122.466  80.655  0.00  0.00    +0.000 S 
ATOM      9  C   UNL     1     105.549 121.729  82.259  0.00  0.00    +0.000 A 
ATOM     10  S   UNL     1     106.357 120.313  82.616  0.00  0.00    +0.000 S 
ATOM     11  S   UNL     1     104.598 122.619  83.451  0.00  0.00    +0.000 S 
ENDROOT
TORSDOF 0
ENDMDL
