MODEL 1
REMARK VINA RESULT:      -3.7      0.000      0.000
REMARK  Name = *****
REMARK  1 active torsions:
REMARK  status: ('A' for Active; 'I' for Inactive)
REMARK    1  A    between atoms: C_8  and  C_10
REMARK                            x       y       z     vdW  Elec       q    Type
REMARK                         _______ _______ _______ _____ _____    ______ ____
ROOT
ATOM      1  C   UNL     1     103.429 125.341  80.651  0.00  0.00    +0.000 A 
ATOM      2  C   UNL     1     104.705 125.870  80.403  0.00  0.00    +0.000 A 
ATOM      3  C   UNL     1     105.102 127.108  80.909  0.00  0.00    +0.000 A 
ATOM      4  C   UNL     1     104.208 127.844  81.686  0.00  0.00    +0.000 A 
ATOM      5  C   UNL     1     102.919 127.357  81.962  0.00  0.00    +0.000 A 
ATOM      6  C   UNL     1     102.567 126.116  81.436  0.00  0.00    +0.000 A 
ATOM      7  N   UNL     1     101.281 125.913  81.867  0.00  0.00    +0.000 N 
ATOM      8  C   UNL     1     100.891 127.002  82.610  0.00  0.00    +0.000 A 
ATOM      9  N   UNL     1     101.870 127.881  82.688  0.00  0.00    +0.000 NA
ATOM     10 CL   UNL     1     104.611 129.367  82.345  0.00  0.00    +0.000 Cl
ATOM     11  I   UNL     1     106.042 124.769  79.241  0.00  0.00    +0.000 I 
ATOM     12  H   UNL     1     100.730 125.120  81.675  0.00  0.00    +0.000 HD
ENDROOT
BRANCH   8  13
ATOM     13  C   UNL     1      99.553 127.115  83.256  0.00  0.00    +0.000 C 
ATOM     14 CL   UNL     1      98.919 128.778  83.205  0.00  0.00    +0.000 Cl
ENDBRANCH   8  13
TORSDOF 1
ENDMDL
