REMARK  Name = *****
REMARK  3 active torsions:
REMARK  status: ('A' for Active; 'I' for Inactive)
REMARK    1  A    between atoms: C_1  and  C_2
REMARK    2  A    between atoms: C_9  and  O_12
REMARK    3  A    between atoms: O_12  and  C_13
REMARK                            x       y       z     vdW  Elec       q    Type
REMARK                         _______ _______ _______ _____ _____    ______ ____
ROOT
ATOM      1  C   UNL     1       0.954   0.063   0.016  0.00  0.00    +0.000 C 
ATOM      2  C   UNL     1       2.453   0.083  -0.004  0.00  0.00    +0.000 A 
ATOM      3  C   UNL     1       3.192  -1.102  -0.068  0.00  0.00    +0.000 A 
ATOM      4  C   UNL     1       4.599  -1.091  -0.101  0.00  0.00    +0.000 A 
ATOM      5  C   UNL     1       5.306   0.135  -0.073  0.00  0.00    +0.000 A 
ATOM      6  C   UNL     1       4.534   1.322  -0.011  0.00  0.00    +0.000 A 
ATOM      7  C   UNL     1       3.136   1.297   0.020  0.00  0.00    +0.000 A 
ATOM      8  C   UNL     1       6.731   0.086  -0.111  0.00  0.00    +0.000 A 
ATOM      9  C   UNL     1       7.426  -1.140  -0.179  0.00  0.00    +0.000 A 
ATOM     10  C   UNL     1       6.698  -2.327  -0.203  0.00  0.00    +0.000 A 
ATOM     11  C   UNL     1       5.303  -2.300  -0.164  0.00  0.00    +0.000 A 
ATOM     12 BR   UNL     1       7.756   1.710  -0.073  0.00  0.00    +0.000 Br
ENDROOT
BRANCH   9  13
ATOM     13  O   UNL     1       8.796  -1.082  -0.213  0.00  0.00    +0.000 OA
ATOM     14  C   UNL     1       9.511  -2.300  -0.368  0.00  0.00    +0.000 C 
ENDBRANCH   9  13
TORSDOF 1
