REMARK  Name = *****
REMARK  0 active torsions:
REMARK  status: ('A' for Active; 'I' for Inactive)
REMARK                            x       y       z     vdW  Elec       q    Type
REMARK                         _______ _______ _______ _____ _____    ______ ____
ROOT
ATOM      1  C   UNL     1      -1.284   1.405  -0.029  0.00  0.00    +0.000 A 
ATOM      2  C   UNL     1      -2.413   0.685  -0.050  0.00  0.00    +0.000 A 
ATOM      3  C   UNL     1      -2.384  -0.794  -0.064  0.00  0.00    +0.000 A 
ATOM      4  O   UNL     1      -3.421  -1.446  -0.084  0.00  0.00    +0.000 OA
ATOM      5  N   UNL     1      -1.149  -1.381  -0.055  0.00  0.00    +0.000 N 
ATOM      6  C   UNL     1       0.056  -0.662  -0.034  0.00  0.00    +0.000 A 
ATOM      7  C   UNL     1       0.031   0.745  -0.021  0.00  0.00    +0.000 A 
ATOM      8  C   UNL     1       1.255   1.433  -0.001  0.00  0.00    +0.000 A 
ATOM      9  C   UNL     1       2.467   0.732   0.005  0.00  0.00    +0.000 A 
ATOM     10  C   UNL     1       2.463  -0.662  -0.009  0.00  0.00    +0.000 A 
ATOM     11  C   UNL     1       1.262  -1.367  -0.028  0.00  0.00    +0.000 A 
ATOM     12  I   UNL     1       4.266  -1.697  -0.002  0.00  0.00    +0.000 I 
ATOM     13 CL   UNL     1       1.344   3.161   0.018  0.00  0.00    +0.000 Cl
ATOM     14  H   UNL     1      -1.102  -2.364  -0.064  0.00  0.00    +0.000 HD
ENDROOT
TORSDOF 0
