MODEL 1
REMARK VINA RESULT:      -3.6      0.000      0.000
REMARK  Name = *****
REMARK  0 active torsions:
REMARK  status: ('A' for Active; 'I' for Inactive)
REMARK                            x       y       z     vdW  Elec       q    Type
REMARK                         _______ _______ _______ _____ _____    ______ ____
ROOT
ATOM      1  C   UNL     1     103.812 125.673  80.095  0.00  0.00    +0.000 A 
ATOM      2  C   UNL     1     104.842 124.730  80.099  0.00  0.00    +0.000 A 
ATOM      3  C   UNL     1     105.073 123.898  81.213  0.00  0.00    +0.000 A 
ATOM      4  C   UNL     1     104.264 124.003  82.348  0.00  0.00    +0.000 A 
ATOM      5  C   UNL     1     103.248 124.936  82.338  0.00  0.00    +0.000 A 
ATOM      6  C   UNL     1     103.042 125.740  81.232  0.00  0.00    +0.000 A 
ATOM      7  N   UNL     1     101.978 126.545  81.533  0.00  0.00    +0.000 N 
ATOM      8  C   UNL     1     101.571 126.210  82.799  0.00  0.00    +0.000 A 
ATOM      9  S   UNL     1     100.325 126.877  83.648  0.00  0.00    +0.000 S 
ATOM     10  O   UNL     1     102.340 125.196  83.358  0.00  0.00    +0.000 OA
ATOM     11 CL   UNL     1     104.546 122.990  83.704  0.00  0.00    +0.000 Cl
ATOM     12 CL   UNL     1     105.854 124.582  78.714  0.00  0.00    +0.000 Cl
ATOM     13  H   UNL     1     101.578 127.232  80.951  0.00  0.00    +0.000 HD
ENDROOT
TORSDOF 0
ENDMDL
