REMARK  Name = *****
REMARK  4 active torsions:
REMARK  status: ('A' for Active; 'I' for Inactive)
REMARK    1  A    between atoms: C_1  and  C_2
REMARK    2  A    between atoms: C_3  and  C_14
REMARK    3  A    between atoms: C_4  and  C_13
REMARK    4  A    between atoms: C_7  and  C_8
REMARK                            x       y       z     vdW  Elec       q    Type
REMARK                         _______ _______ _______ _____ _____    ______ ____
ROOT
ATOM      1  C   UNL     1       0.915  -0.029   0.085  0.00  0.00    +0.000 C 
ATOM      2  C   UNL     1       2.429  -0.011   0.053  0.00  0.00    +0.000 A 
ATOM      3  C   UNL     1       3.156  -1.256   0.079  0.00  0.00    +0.000 A 
ATOM      4  C   UNL     1       4.571  -1.272  -0.027  0.00  0.00    +0.000 A 
ATOM      5  C   UNL     1       5.197  -0.041  -0.060  0.00  0.00    +0.000 A 
ATOM      6  C   UNL     1       4.495   1.168  -0.025  0.00  0.00    +0.000 A 
ATOM      7  C   UNL     1       3.116   1.231   0.043  0.00  0.00    +0.000 A 
ATOM      8  C   UNL     1       2.401   2.548   0.068  0.00  0.00    +0.000 C 
ATOM      9  N   UNL     1       5.433   2.204  -0.073  0.00  0.00    +0.000 N 
ATOM     10  C   UNL     1       6.710   1.648  -0.134  0.00  0.00    +0.000 A 
ATOM     11  S   UNL     1       8.133   2.476  -0.204  0.00  0.00    +0.000 S 
ATOM     12  N   UNL     1       6.561   0.262  -0.125  0.00  0.00    +0.000 N 
ATOM     13  C   UNL     1       5.365  -2.544  -0.055  0.00  0.00    +0.000 C 
ATOM     14  C   UNL     1       2.401  -2.566   0.170  0.00  0.00    +0.000 C 
ATOM     15  H   UNL     1       5.225   3.167  -0.066  0.00  0.00    +0.000 HD
ATOM     16  H   UNL     1       7.294  -0.395  -0.159  0.00  0.00    +0.000 HD
ENDROOT
TORSDOF 0
