MODEL 1
REMARK VINA RESULT:      -4.2      0.000      0.000
REMARK  Name = *****
REMARK  2 active torsions:
REMARK  status: ('A' for Active; 'I' for Inactive)
REMARK    1  A    between atoms: C_1  and  O_2
REMARK    2  A    between atoms: O_2  and  C_3
REMARK                            x       y       z     vdW  Elec       q    Type
REMARK                         _______ _______ _______ _____ _____    ______ ____
ROOT
ATOM      1  C   UNL     1      99.979 128.297  83.166  0.00  0.00    +0.000 A 
ATOM      2  N   UNL     1     101.235 128.517  83.411  0.00  0.00    +0.000 NA
ATOM      3  C   UNL     1     102.159 127.558  82.963  0.00  0.00    +0.000 A 
ATOM      4  C   UNL     1     103.515 127.773  83.214  0.00  0.00    +0.000 A 
ATOM      5  C   UNL     1     104.473 126.847  82.786  0.00  0.00    +0.000 A 
ATOM      6  C   UNL     1     104.073 125.694  82.098  0.00  0.00    +0.000 A 
ATOM      7  C   UNL     1     102.717 125.467  81.840  0.00  0.00    +0.000 A 
ATOM      8  C   UNL     1     101.771 126.396  82.272  0.00  0.00    +0.000 A 
ATOM      9  N   UNL     1     100.415 126.172  82.015  0.00  0.00    +0.000 N 
ATOM     10  C   UNL     1      99.446 127.061  82.421  0.00  0.00    +0.000 A 
ATOM     11  O   UNL     1      98.256 126.883  82.206  0.00  0.00    +0.000 OA
ATOM     12 CL   UNL     1     105.202 124.510  81.542  0.00  0.00    +0.000 Cl
ATOM     13 CL   UNL     1     106.130 127.186  83.136  0.00  0.00    +0.000 Cl
ATOM     14  H   UNL     1     100.146 125.358  81.532  0.00  0.00    +0.000 HD
ENDROOT
BRANCH   1  16
ATOM     15  C   UNL     1      99.350 130.490  83.761  0.00  0.00    +0.000 C 
ATOM     16  O   UNL     1      98.984 129.126  83.534  0.00  0.00    +0.000 OA
ENDBRANCH   1  16
TORSDOF 1
ENDMDL
