MODEL 1
REMARK VINA RESULT:      -4.0      0.000      0.000
REMARK  Name = *****
REMARK  1 active torsions:
REMARK  status: ('A' for Active; 'I' for Inactive)
REMARK    1  A    between atoms: N_2  and  C_3
REMARK                            x       y       z     vdW  Elec       q    Type
REMARK                         _______ _______ _______ _____ _____    ______ ____
ROOT
ATOM      1  C   UNL     1      88.967  70.328  86.179  0.00  0.00    +0.000 A 
ATOM      2  C   UNL     1      87.779  70.883  85.697  0.00  0.00    +0.000 A 
ATOM      3  C   UNL     1      86.764  71.297  86.575  0.00  0.00    +0.000 A 
ATOM      4  C   UNL     1      85.562  71.848  86.099  0.00  0.00    +0.000 A 
ATOM      5  C   UNL     1      84.564  72.253  86.986  0.00  0.00    +0.000 A 
ATOM      6  C   UNL     1      84.754  72.116  88.357  0.00  0.00    +0.000 A 
ATOM      7  C   UNL     1      85.942  71.573  88.847  0.00  0.00    +0.000 A 
ATOM      8  C   UNL     1      86.956  71.159  87.969  0.00  0.00    +0.000 A 
ATOM      9  C   UNL     1      88.161  70.617  88.444  0.00  0.00    +0.000 A 
ATOM     10  C   UNL     1      89.158  70.211  87.555  0.00  0.00    +0.000 A 
ENDROOT
BRANCH   1  12
ATOM     11  C   UNL     1      90.405  70.839  84.485  0.00  0.00    +0.000 C 
ATOM     12  N   UNL     1      89.973  69.926  85.289  0.00  0.00    +0.000 NA
ENDBRANCH   1  12
TORSDOF 1
ENDMDL
