REMARK  Name = *****
REMARK  4 active torsions:
REMARK  status: ('A' for Active; 'I' for Inactive)
REMARK    1  A    between atoms: C_1  and  C_2
REMARK    2  A    between atoms: C_2  and  O_3
REMARK    3  A    between atoms: O_3  and  C_4
REMARK    4  A    between atoms: C_9  and  S_13
REMARK                            x       y       z     vdW  Elec       q    Type
REMARK                         _______ _______ _______ _____ _____    ______ ____
ROOT
ATOM      1  C   UNL     1       4.222  -0.216   1.360  0.00  0.00    +0.000 A 
ATOM      2  C   UNL     1       5.245   0.598   0.937  0.00  0.00    +0.000 A 
ATOM      3  C   UNL     1       6.503   0.395   1.574  0.00  0.00    +0.000 A 
ATOM      4  C   UNL     1       6.417  -0.626   2.527  0.00  0.00    +0.000 A 
ATOM      5  S   UNL     1       4.809  -1.267   2.580  0.00  0.00    +0.000 S 
ATOM      6  C   UNL     1       7.549  -1.006   3.289  0.00  0.00    +0.000 A 
ATOM      7  C   UNL     1       8.763  -0.341   3.074  0.00  0.00    +0.000 A 
ATOM      8  C   UNL     1       8.864   0.673   2.133  0.00  0.00    +0.000 A 
ATOM      9  C   UNL     1       7.747   1.045   1.384  0.00  0.00    +0.000 A 
ATOM     10  F   UNL     1       5.079   1.504   0.007  0.00  0.00    +0.000 F 
ENDROOT
BRANCH   6  11
ATOM     11  S   UNL     1       7.466  -2.301   4.508  0.00  0.00    +0.000 S 
ATOM     12  H   UNL     1       6.203  -2.803   4.550  0.00  0.00    +0.000 HD
ENDBRANCH   6  11
BRANCH   1  13
ATOM     13  O   UNL     1       2.964  -0.188   0.891  0.00  0.00    +0.000 OA
BRANCH  13  15
ATOM     14  C   UNL     1       0.693  -0.884   0.715  0.00  0.00    +0.000 C 
ATOM     15  C   UNL     1       2.019  -1.118   1.416  0.00  0.00    +0.000 C 
ENDBRANCH  13  15
ENDBRANCH   1  13
TORSDOF 3
