MODEL 1
REMARK VINA RESULT:      -2.8      0.000      0.000
REMARK  Name = *****
REMARK  0 active torsions:
REMARK  status: ('A' for Active; 'I' for Inactive)
REMARK                            x       y       z     vdW  Elec       q    Type
REMARK                         _______ _______ _______ _____ _____    ______ ____
ROOT
ATOM      1  C   UNL     1     102.167 126.430  82.052  0.00  0.00    +0.000 C 
ATOM      2  C   UNL     1     103.042 127.319  81.162  0.00  0.00    +0.000 C 
ATOM      3  C   UNL     1     103.899 126.506  80.185  0.00  0.00    +0.000 C 
ATOM      4  C   UNL     1     104.702 125.456  80.947  0.00  0.00    +0.000 C 
ATOM      5  C   UNL     1     103.770 124.534  81.726  0.00  0.00    +0.000 C 
ATOM      6  C   UNL     1     102.970 125.330  82.753  0.00  0.00    +0.000 C 
ATOM      7  S   UNL     1     104.828 123.256  82.463  0.00  0.00    +0.000 S 
ATOM      8  C   UNL     1     105.890 123.095  81.065  0.00  0.00    +0.000 C 
ATOM      9  S   UNL     1     106.980 121.847  80.888  0.00  0.00    +0.000 S 
ATOM     10  S   UNL     1     105.692 124.379  79.873  0.00  0.00    +0.000 S 
ENDROOT
TORSDOF 0
ENDMDL
