MODEL 1
REMARK VINA RESULT:      -4.2      0.000      0.000
REMARK  Name = *****
REMARK  0 active torsions:
REMARK  status: ('A' for Active; 'I' for Inactive)
REMARK                            x       y       z     vdW  Elec       q    Type
REMARK                         _______ _______ _______ _____ _____    ______ ____
ROOT
ATOM      1  C   UNL     1     100.939 129.332  84.802  0.00  0.00    +0.000 C 
ATOM      2  C   UNL     1     100.696 128.595  83.705  0.00  0.00    +0.000 C 
ATOM      3  C   UNL     1     101.739 127.853  82.972  0.00  0.00    +0.000 A 
ATOM      4  C   UNL     1     101.423 126.686  82.257  0.00  0.00    +0.000 A 
ATOM      5  C   UNL     1     102.425 125.942  81.620  0.00  0.00    +0.000 A 
ATOM      6  C   UNL     1     103.750 126.374  81.651  0.00  0.00    +0.000 A 
ATOM      7  C   UNL     1     104.069 127.551  82.319  0.00  0.00    +0.000 A 
ATOM      8  C   UNL     1     103.079 128.286  82.972  0.00  0.00    +0.000 A 
ATOM      9 CL   UNL     1     105.699 128.101  82.347  0.00  0.00    +0.000 Cl
ATOM     10  N   UNL     1     100.112 126.211  82.156  0.00  0.00    +0.000 N 
ATOM     11  C   UNL     1      98.961 126.850  82.529  0.00  0.00    +0.000 C 
ATOM     12  O   UNL     1      97.874 126.299  82.395  0.00  0.00    +0.000 OA
ATOM     13  S   UNL     1      99.075 128.488  83.116  0.00  0.00    +0.000 S 
ATOM     14  H   UNL     1     100.003 125.311  81.772  0.00  0.00    +0.000 HD
ENDROOT
TORSDOF 0
ENDMDL
