MODEL 1
REMARK VINA RESULT:      -4.0      0.000      0.000
REMARK  Name = *****
REMARK  3 active torsions:
REMARK  status: ('A' for Active; 'I' for Inactive)
REMARK    1  A    between atoms: C_1  and  C_2
REMARK    2  A    between atoms: C_2  and  O_3
REMARK    3  A    between atoms: O_3  and  C_4
REMARK                            x       y       z     vdW  Elec       q    Type
REMARK                         _______ _______ _______ _____ _____    ______ ____
ROOT
ATOM      1  C   UNL     1      88.316  70.632  86.142  0.00  0.00    +0.000 A 
ATOM      2  C   UNL     1      87.716  70.814  87.406  0.00  0.00    +0.000 A 
ATOM      3  C   UNL     1      86.425  71.400  87.539  0.00  0.00    +0.000 A 
ATOM      4  C   UNL     1      85.759  71.604  88.774  0.00  0.00    +0.000 A 
ATOM      5  C   UNL     1      84.489  72.183  88.838  0.00  0.00    +0.000 A 
ATOM      6  C   UNL     1      83.848  72.574  87.671  0.00  0.00    +0.000 A 
ATOM      7  C   UNL     1      84.477  72.388  86.442  0.00  0.00    +0.000 A 
ATOM      8  C   UNL     1      85.753  71.807  86.361  0.00  0.00    +0.000 A 
ATOM      9  C   UNL     1      86.366  71.629  85.113  0.00  0.00    +0.000 A 
ATOM     10  C   UNL     1      87.632  71.051  85.002  0.00  0.00    +0.000 A 
ATOM     11 CL   UNL     1      88.589  70.293  88.825  0.00  0.00    +0.000 Cl
ENDROOT
BRANCH   1  12
ATOM     12  O   UNL     1      89.562  70.058  86.122  0.00  0.00    +0.000 OA
BRANCH  12  14
ATOM     13  C   UNL     1      89.801  67.701  86.358  0.00  0.00    +0.000 C 
ATOM     14  C   UNL     1      89.734  68.856  85.375  0.00  0.00    +0.000 C 
ENDBRANCH  12  14
ENDBRANCH   1  12
TORSDOF 2
ENDMDL
