REMARK  Name = *****
REMARK  0 active torsions:
REMARK  status: ('A' for Active; 'I' for Inactive)
REMARK                            x       y       z     vdW  Elec       q    Type
REMARK                         _______ _______ _______ _____ _____    ______ ____
ROOT
ATOM      1  C   UNL     1      -1.301   1.392  -0.020  0.00  0.00    +0.000 A 
ATOM      2  C   UNL     1      -2.423   0.661  -0.043  0.00  0.00    +0.000 A 
ATOM      3  C   UNL     1      -2.379  -0.816  -0.063  0.00  0.00    +0.000 A 
ATOM      4  O   UNL     1      -3.410  -1.479  -0.085  0.00  0.00    +0.000 OA
ATOM      5  N   UNL     1      -1.139  -1.388  -0.055  0.00  0.00    +0.000 N 
ATOM      6  C   UNL     1       0.059  -0.658  -0.032  0.00  0.00    +0.000 A 
ATOM      7  C   UNL     1       0.025   0.752  -0.013  0.00  0.00    +0.000 A 
ATOM      8  C   UNL     1       1.250   1.442   0.010  0.00  0.00    +0.000 A 
ATOM      9  C   UNL     1       2.465   0.739   0.013  0.00  0.00    +0.000 A 
ATOM     10  C   UNL     1       2.465  -0.655  -0.005  0.00  0.00    +0.000 A 
ATOM     11  C   UNL     1       1.266  -1.361  -0.028  0.00  0.00    +0.000 A 
ATOM     12  I   UNL     1       4.270  -1.687  -0.001  0.00  0.00    +0.000 I 
ATOM     13  I   UNL     1       1.404   3.541   0.039  0.00  0.00    +0.000 I 
ATOM     14  H   UNL     1      -1.082  -2.371  -0.067  0.00  0.00    +0.000 HD
ENDROOT
TORSDOF 0
