MODEL 1
REMARK VINA RESULT:      -4.0      0.000      0.000
REMARK  Name = *****
REMARK  3 active torsions:
REMARK  status: ('A' for Active; 'I' for Inactive)
REMARK    1  A    between atoms: C_1  and  C_2
REMARK    2  A    between atoms: C_3  and  O_14
REMARK    3  A    between atoms: O_14  and  C_15
REMARK                            x       y       z     vdW  Elec       q    Type
REMARK                         _______ _______ _______ _____ _____    ______ ____
ROOT
ATOM      1  C   UNL     1     104.547 121.968  83.343  0.00  0.00    +0.000 C 
ATOM      2  C   UNL     1     104.631 122.902  82.156  0.00  0.00    +0.000 A 
ATOM      3  C   UNL     1     105.413 122.540  81.038  0.00  0.00    +0.000 A 
ATOM      4  C   UNL     1     105.505 123.409  79.957  0.00  0.00    +0.000 A 
ATOM      5  C   UNL     1     104.843 124.635  79.991  0.00  0.00    +0.000 A 
ATOM      6  C   UNL     1     104.079 125.024  81.114  0.00  0.00    +0.000 A 
ATOM      7  C   UNL     1     103.979 124.145  82.214  0.00  0.00    +0.000 A 
ATOM      8  N   UNL     1     103.274 124.478  83.313  0.00  0.00    +0.000 NA
ATOM      9  C   UNL     1     102.648 125.668  83.355  0.00  0.00    +0.000 A 
ATOM     10  C   UNL     1     102.671 126.593  82.346  0.00  0.00    +0.000 A 
ATOM     11  C   UNL     1     103.398 126.261  81.214  0.00  0.00    +0.000 A 
ATOM     12 CL   UNL     1     103.433 127.435  79.938  0.00  0.00    +0.000 Cl
ATOM     13 CL   UNL     1     101.784 125.966  84.806  0.00  0.00    +0.000 Cl
ENDROOT
BRANCH   3  14
ATOM     14  O   UNL     1     106.041 121.325  81.108  0.00  0.00    +0.000 OA
ATOM     15  C   UNL     1     107.461 121.306  81.022  0.00  0.00    +0.000 C 
ENDBRANCH   3  14
TORSDOF 1
ENDMDL
