MODEL 1
REMARK VINA RESULT:      -4.3      0.000      0.000
REMARK  Name = *****
REMARK  0 active torsions:
REMARK  status: ('A' for Active; 'I' for Inactive)
REMARK                            x       y       z     vdW  Elec       q    Type
REMARK                         _______ _______ _______ _____ _____    ______ ____
ROOT
ATOM      1  C   UNL     1     103.649 127.634  82.440  0.00  0.00    +0.000 A 
ATOM      2  C   UNL     1     102.676 126.748  81.977  0.00  0.00    +0.000 A 
ATOM      3  C   UNL     1     101.362 126.969  82.344  0.00  0.00    +0.000 A 
ATOM      4  C   UNL     1     101.013 128.050  83.159  0.00  0.00    +0.000 A 
ATOM      5  C   UNL     1     101.954 128.944  83.636  0.00  0.00    +0.000 A 
ATOM      6  C   UNL     1     103.292 128.723  83.263  0.00  0.00    +0.000 A 
ATOM      7 CL   UNL     1     104.574 129.760  83.785  0.00  0.00    +0.000 Cl
ATOM      8 CL   UNL     1     101.497 130.266  84.639  0.00  0.00    +0.000 Cl
ATOM      9  C   UNL     1      99.556 127.977  83.343  0.00  0.00    +0.000 C 
ATOM     10  O   UNL     1      98.843 128.717  83.978  0.00  0.00    +0.000 OA
ATOM     11  C   UNL     1      99.095 126.731  82.542  0.00  0.00    +0.000 C 
ATOM     12  O   UNL     1      97.964 126.320  82.435  0.00  0.00    +0.000 OA
ATOM     13  N   UNL     1     100.245 126.211  81.992  0.00  0.00    +0.000 N 
ATOM     14 CL   UNL     1     103.117 125.425  80.975  0.00  0.00    +0.000 Cl
ATOM     15  H   UNL     1     100.275 125.408  81.423  0.00  0.00    +0.000 HD
ENDROOT
TORSDOF 0
ENDMDL
