MODEL 1
REMARK VINA RESULT:      -4.1      0.000      0.000
REMARK  Name = *****
REMARK  0 active torsions:
REMARK  status: ('A' for Active; 'I' for Inactive)
REMARK                            x       y       z     vdW  Elec       q    Type
REMARK                         _______ _______ _______ _____ _____    ______ ____
ROOT
ATOM      1  C   UNL     1      99.205 128.144  83.250  0.00  0.00    +0.000 A 
ATOM      2  C   UNL     1     100.458 128.584  83.459  0.00  0.00    +0.000 A 
ATOM      3  C   UNL     1     101.582 127.836  82.997  0.00  0.00    +0.000 A 
ATOM      4  C   UNL     1     101.318 126.664  82.340  0.00  0.00    +0.000 A 
ATOM      5  N   UNL     1     100.072 126.158  82.095  0.00  0.00    +0.000 N 
ATOM      6  C   UNL     1      98.970 126.858  82.528  0.00  0.00    +0.000 A 
ATOM      7  O   UNL     1      97.825 126.458  82.339  0.00  0.00    +0.000 OA
ATOM      8  S   UNL     1     102.683 125.832  81.823  0.00  0.00    +0.000 S 
ATOM      9  C   UNL     1     103.683 127.049  82.479  0.00  0.00    +0.000 A 
ATOM     10  C   UNL     1     102.982 128.071  83.083  0.00  0.00    +0.000 A 
ATOM     11 BR   UNL     1     105.553 126.991  82.382  0.00  0.00    +0.000 Br
ATOM     12 CL   UNL     1     100.717 130.072  84.295  0.00  0.00    +0.000 Cl
ATOM     13  H   UNL     1      99.964 125.306  81.616  0.00  0.00    +0.000 HD
ENDROOT
TORSDOF 0
ENDMDL
