MODEL 1
REMARK VINA RESULT:      -4.0      0.000      0.000
REMARK  Name = *****
REMARK  0 active torsions:
REMARK  status: ('A' for Active; 'I' for Inactive)
REMARK                            x       y       z     vdW  Elec       q    Type
REMARK                         _______ _______ _______ _____ _____    ______ ____
ROOT
ATOM      1  C   UNL     1     101.740 128.801  83.659  0.00  0.00    +0.000 A 
ATOM      2  C   UNL     1     100.862 127.890  83.117  0.00  0.00    +0.000 A 
ATOM      3  C   UNL     1     101.298 126.865  82.305  0.00  0.00    +0.000 A 
ATOM      4  C   UNL     1     102.629 126.682  81.984  0.00  0.00    +0.000 A 
ATOM      5  C   UNL     1     103.554 127.594  82.520  0.00  0.00    +0.000 A 
ATOM      6  C   UNL     1     103.100 128.649  83.355  0.00  0.00    +0.000 A 
ATOM      7 CL   UNL     1     104.186 129.805  84.048  0.00  0.00    +0.000 Cl
ATOM      8 CL   UNL     1     105.245 127.430  82.160  0.00  0.00    +0.000 Cl
ATOM      9 CL   UNL     1     103.072 125.367  80.961  0.00  0.00    +0.000 Cl
ATOM     10  N   UNL     1     100.174 126.166  81.954  0.00  0.00    +0.000 N 
ATOM     11  C   UNL     1      99.092 126.768  82.547  0.00  0.00    +0.000 A 
ATOM     12  O   UNL     1      97.935 126.396  82.438  0.00  0.00    +0.000 OA
ATOM     13  O   UNL     1      99.489 127.879  83.303  0.00  0.00    +0.000 OA
ATOM     14  H   UNL     1     100.147 125.369  81.376  0.00  0.00    +0.000 HD
ENDROOT
TORSDOF 0
ENDMDL
