MODEL 1
REMARK VINA RESULT:      -4.2      0.000      0.000
REMARK  Name = *****
REMARK  3 active torsions:
REMARK  status: ('A' for Active; 'I' for Inactive)
REMARK    1  A    between atoms: C_1  and  C_2
REMARK    2  A    between atoms: C_3  and  O_13
REMARK    3  A    between atoms: O_13  and  C_14
REMARK                            x       y       z     vdW  Elec       q    Type
REMARK                         _______ _______ _______ _____ _____    ______ ____
ROOT
ATOM      1  C   UNL     1      88.195  70.344  89.196  0.00  0.00    +0.000 C 
ATOM      2  C   UNL     1      87.660  70.708  87.829  0.00  0.00    +0.000 A 
ATOM      3  C   UNL     1      88.414  70.413  86.673  0.00  0.00    +0.000 A 
ATOM      4  C   UNL     1      87.914  70.752  85.416  0.00  0.00    +0.000 A 
ATOM      5  C   UNL     1      86.675  71.381  85.293  0.00  0.00    +0.000 A 
ATOM      6  C   UNL     1      85.908  71.687  86.421  0.00  0.00    +0.000 A 
ATOM      7  C   UNL     1      86.391  71.354  87.710  0.00  0.00    +0.000 A 
ATOM      8  C   UNL     1      85.575  71.687  88.818  0.00  0.00    +0.000 A 
ATOM      9  C   UNL     1      84.339  72.319  88.660  0.00  0.00    +0.000 A 
ATOM     10  C   UNL     1      83.889  72.634  87.386  0.00  0.00    +0.000 A 
ATOM     11  C   UNL     1      84.663  72.323  86.272  0.00  0.00    +0.000 A 
ATOM     12 BR   UNL     1      82.219  73.489  87.162  0.00  0.00    +0.000 Br
ENDROOT
BRANCH   3  13
ATOM     13  O   UNL     1      89.621  69.795  86.875  0.00  0.00    +0.000 OA
ATOM     14  C   UNL     1      89.793  68.483  86.354  0.00  0.00    +0.000 C 
ENDBRANCH   3  13
TORSDOF 1
ENDMDL
