MODEL 1
REMARK VINA RESULT:      -4.2      0.000      0.000
REMARK  Name = *****
REMARK  0 active torsions:
REMARK  status: ('A' for Active; 'I' for Inactive)
REMARK                            x       y       z     vdW  Elec       q    Type
REMARK                         _______ _______ _______ _____ _____    ______ ____
ROOT
ATOM      1  C   UNL     1     102.191 126.022  82.056  0.00  0.00    +0.000 A 
ATOM      2  C   UNL     1     103.369 126.638  82.482  0.00  0.00    +0.000 A 
ATOM      3  C   UNL     1     103.346 127.835  83.222  0.00  0.00    +0.000 A 
ATOM      4  C   UNL     1     102.128 128.442  83.551  0.00  0.00    +0.000 A 
ATOM      5  C   UNL     1     100.967 127.826  83.127  0.00  0.00    +0.000 A 
ATOM      6  C   UNL     1     101.002 126.638  82.392  0.00  0.00    +0.000 A 
ATOM      7  N   UNL     1      99.725 126.193  82.068  0.00  0.00    +0.000 N 
ATOM      8  C   UNL     1      98.763 127.048  82.561  0.00  0.00    +0.000 C 
ATOM      9  O   UNL     1      97.561 126.957  82.458  0.00  0.00    +0.000 OA
ATOM     10  C   UNL     1      99.547 128.173  83.288  0.00  0.00    +0.000 C 
ATOM     11  O   UNL     1      99.065 129.124  83.858  0.00  0.00    +0.000 OA
ATOM     12 BR   UNL     1     102.140 130.045  84.543  0.00  0.00    +0.000 Br
ATOM     13 BR   UNL     1     105.034 125.846  82.055  0.00  0.00    +0.000 Br
ATOM     14  H   UNL     1      99.534 125.375  81.555  0.00  0.00    +0.000 HD
ENDROOT
TORSDOF 0
ENDMDL
