REMARK  Name = *****
REMARK  0 active torsions:
REMARK  status: ('A' for Active; 'I' for Inactive)
REMARK                            x       y       z     vdW  Elec       q    Type
REMARK                         _______ _______ _______ _____ _____    ______ ____
ROOT
ATOM      1  C   UNL     1      -2.109   0.675   0.000  0.00  0.00    +0.000 A 
ATOM      2  C   UNL     1      -0.912   1.397  -0.000  0.00  0.00    +0.000 A 
ATOM      3  C   UNL     1       0.267   0.679  -0.000  0.00  0.00    +0.000 A 
ATOM      4  C   UNL     1       0.281  -0.686   0.000  0.00  0.00    +0.000 A 
ATOM      5  C   UNL     1      -0.881  -1.430   0.001  0.00  0.00    +0.000 A 
ATOM      6  C   UNL     1      -2.088  -0.730   0.001  0.00  0.00    +0.000 A 
ATOM      7 CL   UNL     1      -3.573  -1.600   0.003  0.00  0.00    +0.000 Cl
ATOM      8  O   UNL     1       1.547  -1.175   0.000  0.00  0.00    +0.000 OA
ATOM      9  C   UNL     1       2.240   0.018  -0.000  0.00  0.00    +0.000 A 
ATOM     10  S   UNL     1       3.894   0.037   0.000  0.00  0.00    +0.000 S 
ATOM     11  O   UNL     1       1.521   1.196  -0.000  0.00  0.00    +0.000 OA
ENDROOT
TORSDOF 0
