REMARK  Name = *****
REMARK  0 active torsions:
REMARK  status: ('A' for Active; 'I' for Inactive)
REMARK                            x       y       z     vdW  Elec       q    Type
REMARK                         _______ _______ _______ _____ _____    ______ ____
ROOT
ATOM      1  C   UNL     1       0.910  -1.385  -0.001  0.00  0.00    +0.000 A 
ATOM      2  C   UNL     1      -0.257  -0.658   0.000  0.00  0.00    +0.000 A 
ATOM      3  C   UNL     1      -0.249   0.720   0.000  0.00  0.00    +0.000 A 
ATOM      4  C   UNL     1       0.917   1.461  -0.001  0.00  0.00    +0.000 A 
ATOM      5  C   UNL     1       2.131   0.751  -0.001  0.00  0.00    +0.000 A 
ATOM      6  C   UNL     1       2.116  -0.670  -0.001  0.00  0.00    +0.000 A 
ATOM      7 CL   UNL     1       3.574  -1.606  -0.002  0.00  0.00    +0.000 Cl
ATOM      8 CL   UNL     1       3.645   1.602  -0.001  0.00  0.00    +0.000 Cl
ATOM      9 BR   UNL     1       0.805   3.353  -0.001  0.00  0.00    +0.000 Br
ATOM     10  N   UNL     1      -1.565   1.098   0.002  0.00  0.00    +0.000 N 
ATOM     11  C   UNL     1      -2.338  -0.038   0.003  0.00  0.00    +0.000 A 
ATOM     12  O   UNL     1      -3.559  -0.055   0.005  0.00  0.00    +0.000 OA
ATOM     13  O   UNL     1      -1.538  -1.187   0.002  0.00  0.00    +0.000 OA
ATOM     14  H   UNL     1      -1.900   2.024   0.002  0.00  0.00    +0.000 HD
ENDROOT
TORSDOF 0
