MODEL 1
REMARK VINA RESULT:      -4.1      0.000      0.000
REMARK  Name = *****
REMARK  0 active torsions:
REMARK  status: ('A' for Active; 'I' for Inactive)
REMARK                            x       y       z     vdW  Elec       q    Type
REMARK                         _______ _______ _______ _____ _____    ______ ____
ROOT
ATOM      1  C   UNL     1     102.186 128.419  83.420  0.00  0.00    +0.000 A 
ATOM      2  C   UNL     1     101.019 127.791  83.034  0.00  0.00    +0.000 A 
ATOM      3  C   UNL     1     101.007 126.568  82.370  0.00  0.00    +0.000 A 
ATOM      4  C   UNL     1     102.179 125.911  82.061  0.00  0.00    +0.000 A 
ATOM      5  C   UNL     1     103.384 126.525  82.441  0.00  0.00    +0.000 A 
ATOM      6  C   UNL     1     103.387 127.770  83.116  0.00  0.00    +0.000 A 
ATOM      7 CL   UNL     1     104.849 128.555  83.599  0.00  0.00    +0.000 Cl
ATOM      8 BR   UNL     1     104.990 125.604  82.006  0.00  0.00    +0.000 Br
ATOM      9  N   UNL     1      99.709 126.150  82.091  0.00  0.00    +0.000 N 
ATOM     10  C   UNL     1      98.784 127.068  82.551  0.00  0.00    +0.000 C 
ATOM     11  O   UNL     1      97.577 127.017  82.472  0.00  0.00    +0.000 OA
ATOM     12  C   UNL     1      99.624 128.205  83.200  0.00  0.00    +0.000 C 
ATOM     13  O   UNL     1      99.224 129.213  83.731  0.00  0.00    +0.000 OA
ATOM     14  H   UNL     1      99.480 125.313  81.628  0.00  0.00    +0.000 HD
ENDROOT
TORSDOF 0
ENDMDL
