MODEL 1
REMARK VINA RESULT:      -3.9      0.000      0.000
REMARK  Name = *****
REMARK  0 active torsions:
REMARK  status: ('A' for Active; 'I' for Inactive)
REMARK                            x       y       z     vdW  Elec       q    Type
REMARK                         _______ _______ _______ _____ _____    ______ ____
ROOT
ATOM      1  C   UNL     1     102.701 128.885  83.655  0.00  0.00    +0.000 A 
ATOM      2  C   UNL     1     103.962 128.452  83.241  0.00  0.00    +0.000 A 
ATOM      3  C   UNL     1     104.085 127.335  82.408  0.00  0.00    +0.000 A 
ATOM      4  C   UNL     1     102.940 126.646  81.986  0.00  0.00    +0.000 A 
ATOM      5  C   UNL     1     101.675 127.088  82.408  0.00  0.00    +0.000 A 
ATOM      6  C   UNL     1     101.550 128.211  83.245  0.00  0.00    +0.000 A 
ATOM      7  N   UNL     1     100.304 128.689  83.693  0.00  0.00    +0.000 NA
ATOM      8  C   UNL     1      99.240 128.055  83.306  0.00  0.00    +0.000 A 
ATOM      9  C   UNL     1      99.261 126.838  82.410  0.00  0.00    +0.000 A 
ATOM     10  O   UNL     1      98.212 126.301  82.095  0.00  0.00    +0.000 OA
ATOM     11  N   UNL     1     100.503 126.422  82.007  0.00  0.00    +0.000 N 
ATOM     12 CL   UNL     1     103.051 125.257  80.952  0.00  0.00    +0.000 Cl
ATOM     13 CL   UNL     1     105.680 126.862  81.939  0.00  0.00    +0.000 Cl
ATOM     14  H   UNL     1     100.576 125.635  81.420  0.00  0.00    +0.000 HD
ENDROOT
TORSDOF 0
ENDMDL
