MODEL 1
REMARK VINA RESULT:      -3.3      0.000      0.000
REMARK  Name = *****
REMARK  0 active torsions:
REMARK  status: ('A' for Active; 'I' for Inactive)
REMARK                            x       y       z     vdW  Elec       q    Type
REMARK                         _______ _______ _______ _____ _____    ______ ____
ROOT
ATOM      1  C   UNL     1     102.264 126.531  82.064  0.00  0.00    +0.000 C 
ATOM      2  C   UNL     1     103.147 127.624  81.445  0.00  0.00    +0.000 C 
ATOM      3  C   UNL     1     103.909 127.142  80.204  0.00  0.00    +0.000 C 
ATOM      4  C   UNL     1     104.668 125.868  80.535  0.00  0.00    +0.000 C 
ATOM      5  C   UNL     1     105.383 125.167  79.390  0.00  0.00    +0.000 C 
ATOM      6  C   UNL     1     105.546 123.720  79.885  0.00  0.00    +0.000 C 
ATOM      7  C   UNL     1     104.621 123.567  81.104  0.00  0.00    +0.000 C 
ATOM      8  C   UNL     1     103.711 124.784  81.025  0.00  0.00    +0.000 C 
ATOM      9  C   UNL     1     103.021 125.220  82.308  0.00  0.00    +0.000 C 
ENDROOT
TORSDOF 0
ENDMDL
