REMARK  Name = *****
REMARK  2 active torsions:
REMARK  status: ('A' for Active; 'I' for Inactive)
REMARK    1  A    between atoms: C_1  and  O_2
REMARK    2  A    between atoms: O_2  and  C_3
REMARK                            x       y       z     vdW  Elec       q    Type
REMARK                         _______ _______ _______ _____ _____    ______ ____
ROOT
ATOM      1  C   UNL     1       2.980  -0.789  -0.966  0.00  0.00    +0.000 A 
ATOM      2  C   UNL     1       4.010  -1.614  -0.487  0.00  0.00    +0.000 A 
ATOM      3  C   UNL     1       4.683  -2.486  -1.365  0.00  0.00    +0.000 A 
ATOM      4  C   UNL     1       4.333  -2.539  -2.734  0.00  0.00    +0.000 A 
ATOM      5  C   UNL     1       5.058  -3.469  -3.687  0.00  0.00    +0.000 C 
ATOM      6  C   UNL     1       4.369  -3.642  -5.040  0.00  0.00    +0.000 C 
ATOM      7  C   UNL     1       3.947  -2.293  -5.598  0.00  0.00    +0.000 C 
ATOM      8  C   UNL     1       2.924  -1.646  -4.671  0.00  0.00    +0.000 C 
ATOM      9  C   UNL     1       3.337  -1.665  -3.216  0.00  0.00    +0.000 A 
ATOM     10  C   UNL     1       2.663  -0.811  -2.327  0.00  0.00    +0.000 A 
ATOM     11 CL   UNL     1       5.966  -3.503  -0.773  0.00  0.00    +0.000 Cl
ATOM     12 CL   UNL     1       4.424  -1.550   1.203  0.00  0.00    +0.000 Cl
ENDROOT
BRANCH   1  14
ATOM     13  C   UNL     1       1.043   0.466  -0.383  0.00  0.00    +0.000 C 
ATOM     14  O   UNL     1       2.361   0.038  -0.062  0.00  0.00    +0.000 OA
ENDBRANCH   1  14
TORSDOF 1
