MODEL 1
REMARK VINA RESULT:      -2.5      0.000      0.000
REMARK  Name = *****
REMARK  0 active torsions:
REMARK  status: ('A' for Active; 'I' for Inactive)
REMARK                            x       y       z     vdW  Elec       q    Type
REMARK                         _______ _______ _______ _____ _____    ______ ____
ROOT
ATOM      1  C   UNL     1     102.138 126.900  81.962  0.00  0.00    +0.000 A 
ATOM      2  C   UNL     1     101.718 127.022  83.274  0.00  0.00    +0.000 A 
ATOM      3  S   UNL     1     102.373 125.789  84.289  0.00  0.00    +0.000 S 
ATOM      4  C   UNL     1     103.204 125.107  82.985  0.00  0.00    +0.000 A 
ATOM      5  C   UNL     1     102.993 125.788  81.822  0.00  0.00    +0.000 A 
ATOM      6  S   UNL     1     103.797 125.183  80.399  0.00  0.00    +0.000 S 
ATOM      7  C   UNL     1     104.592 123.824  81.236  0.00  0.00    +0.000 A 
ATOM      8  S   UNL     1     105.592 122.742  80.444  0.00  0.00    +0.000 S 
ATOM      9  S   UNL     1     104.241 123.703  82.980  0.00  0.00    +0.000 S 
ENDROOT
TORSDOF 0
ENDMDL
