MODEL 1
REMARK VINA RESULT:      -4.2      0.000      0.000
REMARK  Name = *****
REMARK  1 active torsions:
REMARK  status: ('A' for Active; 'I' for Inactive)
REMARK    1  A    between atoms: C_10  and  O_12
REMARK                            x       y       z     vdW  Elec       q    Type
REMARK                         _______ _______ _______ _____ _____    ______ ____
ROOT
ATOM      1  C   UNL     1     102.705 125.698  81.558  0.00  0.00    +0.000 A 
ATOM      2  C   UNL     1     104.045 126.065  81.655  0.00  0.00    +0.000 A 
ATOM      3  C   UNL     1     104.406 127.241  82.321  0.00  0.00    +0.000 A 
ATOM      4  C   UNL     1     103.423 128.063  82.900  0.00  0.00    +0.000 A 
ATOM      5  C   UNL     1     102.064 127.700  82.807  0.00  0.00    +0.000 A 
ATOM      6  C   UNL     1     101.725 126.509  82.130  0.00  0.00    +0.000 A 
ATOM      7  N   UNL     1     100.383 126.119  82.020  0.00  0.00    +0.000 N 
ATOM      8  C   UNL     1      99.344 126.837  82.540  0.00  0.00    +0.000 A 
ATOM      9  O   UNL     1      98.170 126.492  82.441  0.00  0.00    +0.000 OA
ATOM     10  C   UNL     1      99.688 128.100  83.259  0.00  0.00    +0.000 A 
ATOM     11  C   UNL     1     100.961 128.494  83.378  0.00  0.00    +0.000 A 
ATOM     12 CL   UNL     1     103.892 129.520  83.724  0.00  0.00    +0.000 Cl
ATOM     13 CL   UNL     1     106.095 127.614  82.389  0.00  0.00    +0.000 Cl
ATOM     14  H   UNL     1     100.178 125.282  81.542  0.00  0.00    +0.000 HD
ENDROOT
BRANCH  10  15
ATOM     15  O   UNL     1      98.652 128.844  83.792  0.00  0.00    +0.000 OA
ATOM     16  H   UNL     1      98.805 129.395  84.535  0.00  0.00    +0.000 HD
ENDBRANCH  10  15
TORSDOF 1
ENDMDL
