REMARK  Name = *****
REMARK  0 active torsions:
REMARK  status: ('A' for Active; 'I' for Inactive)
REMARK                            x       y       z     vdW  Elec       q    Type
REMARK                         _______ _______ _______ _____ _____    ______ ____
ROOT
ATOM      1  C   UNL     1       0.910  -1.382  -0.001  0.00  0.00    +0.000 A 
ATOM      2  C   UNL     1      -0.257  -0.654  -0.001  0.00  0.00    +0.000 A 
ATOM      3  C   UNL     1      -0.246   0.723  -0.001  0.00  0.00    +0.000 A 
ATOM      4  C   UNL     1       0.921   1.463  -0.000  0.00  0.00    +0.000 A 
ATOM      5  C   UNL     1       2.135   0.752   0.001  0.00  0.00    +0.000 A 
ATOM      6  C   UNL     1       2.118  -0.670  -0.000  0.00  0.00    +0.000 A 
ATOM      7 CL   UNL     1       3.567  -1.619  -0.000  0.00  0.00    +0.000 Cl
ATOM      8 BR   UNL     1       3.803   1.685   0.003  0.00  0.00    +0.000 Br
ATOM      9 BR   UNL     1       0.795   3.356  -0.001  0.00  0.00    +0.000 Br
ATOM     10  N   UNL     1      -1.562   1.103  -0.001  0.00  0.00    +0.000 N 
ATOM     11  C   UNL     1      -2.336  -0.032  -0.000  0.00  0.00    +0.000 A 
ATOM     12  O   UNL     1      -3.557  -0.048   0.000  0.00  0.00    +0.000 OA
ATOM     13  O   UNL     1      -1.538  -1.183  -0.001  0.00  0.00    +0.000 OA
ATOM     14  H   UNL     1      -1.896   2.029  -0.001  0.00  0.00    +0.000 HD
ENDROOT
TORSDOF 0
