MODEL 1
REMARK VINA RESULT:      -4.5      0.000      0.000
REMARK  Name = *****
REMARK  0 active torsions:
REMARK  status: ('A' for Active; 'I' for Inactive)
REMARK                            x       y       z     vdW  Elec       q    Type
REMARK                         _______ _______ _______ _____ _____    ______ ____
ROOT
ATOM      1  C   UNL     1     100.367 128.705  83.449  0.00  0.00    +0.000 A 
ATOM      2  C   UNL     1      99.122 128.260  83.236  0.00  0.00    +0.000 A 
ATOM      3  C   UNL     1      98.872 126.972  82.550  0.00  0.00    +0.000 A 
ATOM      4  O   UNL     1      97.729 126.571  82.358  0.00  0.00    +0.000 OA
ATOM      5  N   UNL     1      99.974 126.268  82.150  0.00  0.00    +0.000 N 
ATOM      6  C   UNL     1     101.292 126.701  82.354  0.00  0.00    +0.000 A 
ATOM      7  C   UNL     1     101.532 127.925  83.005  0.00  0.00    +0.000 A 
ATOM      8  C   UNL     1     102.865 128.329  83.192  0.00  0.00    +0.000 A 
ATOM      9  C   UNL     1     103.922 127.531  82.740  0.00  0.00    +0.000 A 
ATOM     10  C   UNL     1     103.654 126.324  82.099  0.00  0.00    +0.000 A 
ATOM     11  C   UNL     1     102.342 125.901  81.901  0.00  0.00    +0.000 A 
ATOM     12 BR   UNL     1     105.085 125.251  81.489  0.00  0.00    +0.000 Br
ATOM     13 CL   UNL     1     103.279 129.814  83.979  0.00  0.00    +0.000 Cl
ATOM     14  H   UNL     1      99.833 125.407  81.692  0.00  0.00    +0.000 HD
ENDROOT
TORSDOF 0
ENDMDL
