MODEL 1
REMARK VINA RESULT:      -2.7      0.000      0.000
REMARK  Name = *****
REMARK  1 active torsions:
REMARK  status: ('A' for Active; 'I' for Inactive)
REMARK    1  A    between atoms: C_1  and  C_2
REMARK                            x       y       z     vdW  Elec       q    Type
REMARK                         _______ _______ _______ _____ _____    ______ ____
ROOT
ATOM      1  C   UNL     1      99.546 130.484  83.989  0.00  0.00    +0.000 C 
ATOM      2  C   UNL     1      99.669 129.096  83.456  0.00  0.00    +0.000 A 
ATOM      3  C   UNL     1      98.612 128.331  82.981  0.00  0.00    +0.000 A 
ATOM      4  S   UNL     1      99.096 126.771  82.439  0.00  0.00    +0.000 S 
ATOM      5  C   UNL     1     100.705 127.096  82.829  0.00  0.00    +0.000 A 
ATOM      6  C   UNL     1     100.871 128.346  83.354  0.00  0.00    +0.000 A 
ATOM      7  S   UNL     1     102.502 128.791  83.796  0.00  0.00    +0.000 S 
ATOM      8  C   UNL     1     103.233 127.245  83.300  0.00  0.00    +0.000 A 
ATOM      9  S   UNL     1     104.870 126.937  83.447  0.00  0.00    +0.000 S 
ATOM     10  S   UNL     1     102.088 126.050  82.638  0.00  0.00    +0.000 S 
ENDROOT
TORSDOF 0
ENDMDL
