REMARK  Name = *****
REMARK  3 active torsions:
REMARK  status: ('A' for Active; 'I' for Inactive)
REMARK    1  A    between atoms: C_1  and  O_2
REMARK    2  A    between atoms: O_2  and  C_3
REMARK    3  A    between atoms: C_3  and  C_5
REMARK                            x       y       z     vdW  Elec       q    Type
REMARK                         _______ _______ _______ _____ _____    ______ ____
ROOT
ATOM      1  C   UNL     1       4.590  -1.212  -0.247  0.00  0.00    +0.000 A 
ATOM      2  C   UNL     1       5.423  -0.440   0.545  0.00  0.00    +0.000 A 
ATOM      3  C   UNL     1       6.771  -0.749   0.214  0.00  0.00    +0.000 A 
ATOM      4  C   UNL     1       6.734  -1.717  -0.788  0.00  0.00    +0.000 A 
ATOM      5  N   UNL     1       5.409  -1.979  -1.046  0.00  0.00    +0.000 N 
ATOM      6  C   UNL     1       7.890  -2.261  -1.360  0.00  0.00    +0.000 A 
ATOM      7  C   UNL     1       9.122  -1.795  -0.890  0.00  0.00    +0.000 A 
ATOM      8  C   UNL     1       9.183  -0.827   0.111  0.00  0.00    +0.000 A 
ATOM      9  C   UNL     1       8.020  -0.292   0.675  0.00  0.00    +0.000 A 
ATOM     10 CL   UNL     1      10.719  -0.277   0.666  0.00  0.00    +0.000 Cl
ATOM     11  H   UNL     1       5.088  -2.628  -1.713  0.00  0.00    +0.000 HD
ENDROOT
BRANCH   1  12
ATOM     12  C   UNL     1       3.154  -1.294  -0.322  0.00  0.00    +0.000 C 
ATOM     13  O   UNL     1       2.543  -2.036  -1.079  0.00  0.00    +0.000 OA
BRANCH  12  15
ATOM     14  C   UNL     1       1.158  -0.449   0.554  0.00  0.00    +0.000 C 
ATOM     15  O   UNL     1       2.585  -0.432   0.565  0.00  0.00    +0.000 OA
ENDBRANCH  12  15
ENDBRANCH   1  12
TORSDOF 2
