MODEL 1
REMARK VINA RESULT:      -3.9      0.000      0.000
REMARK  Name = *****
REMARK  1 active torsions:
REMARK  status: ('A' for Active; 'I' for Inactive)
REMARK    1  A    between atoms: C_10  and  C_11
REMARK                            x       y       z     vdW  Elec       q    Type
REMARK                         _______ _______ _______ _____ _____    ______ ____
ROOT
ATOM      1  C   UNL     1     104.267 127.577  82.259  0.00  0.00    +0.000 A 
ATOM      2  C   UNL     1     103.163 128.259  82.786  0.00  0.00    +0.000 A 
ATOM      3  C   UNL     1     101.877 127.686  82.695  0.00  0.00    +0.000 A 
ATOM      4  C   UNL     1     101.749 126.437  82.073  0.00  0.00    +0.000 A 
ATOM      5  C   UNL     1     102.842 125.740  81.541  0.00  0.00    +0.000 A 
ATOM      6  C   UNL     1     104.101 126.338  81.648  0.00  0.00    +0.000 A 
ATOM      7 CL   UNL     1     105.476 125.518  81.008  0.00  0.00    +0.000 Cl
ATOM      8  N   UNL     1     100.416 126.100  82.112  0.00  0.00    +0.000 N 
ATOM      9  C   UNL     1      99.718 127.090  82.731  0.00  0.00    +0.000 A 
ATOM     10  C   UNL     1     100.568 128.098  83.114  0.00  0.00    +0.000 A 
ATOM     11 CL   UNL     1      98.039 126.874  82.887  0.00  0.00    +0.000 Cl
ATOM     12  H   UNL     1     100.027 125.272  81.749  0.00  0.00    +0.000 HD
ENDROOT
BRANCH  10  13
ATOM     13  C   UNL     1     100.180 129.314  83.800  0.00  0.00    +0.000 C 
ATOM     14  O   UNL     1      99.369 130.121  83.355  0.00  0.00    +0.000 OA
ENDBRANCH  10  13
TORSDOF 1
ENDMDL
