MODEL 1
REMARK VINA RESULT:      -3.0      0.000      0.000
REMARK  Name = *****
REMARK  2 active torsions:
REMARK  status: ('A' for Active; 'I' for Inactive)
REMARK    1  A    between atoms: C_1  and  C_2
REMARK    2  A    between atoms: C_5  and  C_7
REMARK                            x       y       z     vdW  Elec       q    Type
REMARK                         _______ _______ _______ _____ _____    ______ ____
ROOT
ATOM      1  C   UNL     1      88.176  67.300  86.897  0.00  0.00    +0.000 A 
ATOM      2  C   UNL     1      88.983  66.472  86.155  0.00  0.00    +0.000 A 
ATOM      3  C   UNL     1      88.970  65.135  86.596  0.00  0.00    +0.000 A 
ATOM      4  C   UNL     1      88.165  64.927  87.689  0.00  0.00    +0.000 A 
ATOM      5  S   UNL     1      87.412  66.405  88.156  0.00  0.00    +0.000 S 
ATOM      6  S   UNL     1      89.963  64.002  85.703  0.00  0.00    +0.000 S 
ATOM      7  C   UNL     1      90.590  65.184  84.540  0.00  0.00    +0.000 A 
ATOM      8  O   UNL     1      91.373  64.883  83.651  0.00  0.00    +0.000 OA
ATOM      9  S   UNL     1      89.992  66.836  84.771  0.00  0.00    +0.000 S 
ENDROOT
BRANCH   1  10
ATOM     10  C   UNL     1      87.911  68.760  86.750  0.00  0.00    +0.000 C 
ATOM     11 CL   UNL     1      89.314  69.693  87.318  0.00  0.00    +0.000 Cl
ENDBRANCH   1  10
BRANCH   4  12
ATOM     12  C   UNL     1      87.890  63.674  88.450  0.00  0.00    +0.000 C 
ATOM     13 CL   UNL     1      88.912  63.609  89.905  0.00  0.00    +0.000 Cl
ENDBRANCH   4  12
TORSDOF 2
ENDMDL
