MODEL 1
REMARK VINA RESULT:      -3.6      0.000      0.000
REMARK  Name = *****
REMARK  2 active torsions:
REMARK  status: ('A' for Active; 'I' for Inactive)
REMARK    1  A    between atoms: C_1  and  S_2
REMARK    2  A    between atoms: S_2  and  P_3
REMARK                            x       y       z     vdW  Elec       q    Type
REMARK                         _______ _______ _______ _____ _____    ______ ____
ROOT
ATOM      1  P   UNL     1     102.895 126.193  82.454  0.00  0.00    +0.000 P 
ATOM      2  S   UNL     1     103.688 124.863  83.638  0.00  0.00    +0.000 S 
ATOM      3  O   UNL     1     102.618 127.634  83.209  0.00  0.00    +0.000 OA
ATOM      4  C   UNL     1     101.278 127.901  83.164  0.00  0.00    +0.000 A 
ATOM      5  C   UNL     1     100.676 129.029  83.675  0.00  0.00    +0.000 A 
ATOM      6  C   UNL     1      99.288 129.137  83.544  0.00  0.00    +0.000 A 
ATOM      7  C   UNL     1      98.544 128.122  82.912  0.00  0.00    +0.000 A 
ATOM      8  C   UNL     1      99.175 126.984  82.402  0.00  0.00    +0.000 A 
ATOM      9  C   UNL     1     100.543 126.899  82.541  0.00  0.00    +0.000 A 
ATOM     10  O   UNL     1     101.316 125.860  82.104  0.00  0.00    +0.000 OA
ENDROOT
BRANCH   1  12
ATOM     11  C   UNL     1     104.411 125.042  80.038  0.00  0.00    +0.000 C 
ATOM     12  S   UNL     1     103.822 126.644  80.614  0.00  0.00    +0.000 S 
ENDBRANCH   1  12
TORSDOF 1
ENDMDL
