MODEL 1
REMARK VINA RESULT:      -4.3      0.000      0.000
REMARK  Name = *****
REMARK  3 active torsions:
REMARK  status: ('A' for Active; 'I' for Inactive)
REMARK    1  A    between atoms: C_1  and  O_2
REMARK    2  A    between atoms: O_2  and  C_3
REMARK    3  A    between atoms: C_10  and  C_12
REMARK                            x       y       z     vdW  Elec       q    Type
REMARK                         _______ _______ _______ _____ _____    ______ ____
ROOT
ATOM      1  C   UNL     1      99.386 129.189  83.843  0.00  0.00    +0.000 A 
ATOM      2  C   UNL     1     100.761 128.950  83.700  0.00  0.00    +0.000 A 
ATOM      3  C   UNL     1     101.208 127.811  83.004  0.00  0.00    +0.000 A 
ATOM      4  C   UNL     1     100.262 126.942  82.470  0.00  0.00    +0.000 A 
ATOM      5  C   UNL     1      98.886 127.155  82.599  0.00  0.00    +0.000 A 
ATOM      6  C   UNL     1      98.466 128.296  83.296  0.00  0.00    +0.000 A 
ATOM      7  N   UNL     1     100.952 125.928  81.852  0.00  0.00    +0.000 N 
ATOM      8  C   UNL     1     102.314 126.113  81.965  0.00  0.00    +0.000 A 
ATOM      9  C   UNL     1     102.489 127.284  82.684  0.00  0.00    +0.000 A 
ATOM     10  H   UNL     1     100.530 125.169  81.386  0.00  0.00    +0.000 HD
ENDROOT
BRANCH   8  11
ATOM     11  C   UNL     1     103.260 125.174  81.390  0.00  0.00    +0.000 C 
ATOM     12  O   UNL     1     103.431 125.122  80.175  0.00  0.00    +0.000 OA
ATOM     13 CL   UNL     1     104.104 124.164  82.537  0.00  0.00    +0.000 Cl
ENDBRANCH   8  11
BRANCH   1  15
ATOM     14  C   UNL     1      99.724 131.528  84.121  0.00  0.00    +0.000 C 
ATOM     15  O   UNL     1      99.083 130.329  84.538  0.00  0.00    +0.000 OA
ENDBRANCH   1  15
TORSDOF 2
ENDMDL
