MODEL 1
REMARK VINA RESULT:      -2.6      0.000      0.000
REMARK  Name = *****
REMARK  2 active torsions:
REMARK  status: ('A' for Active; 'I' for Inactive)
REMARK    1  A    between atoms: C_1  and  O_2
REMARK    2  A    between atoms: O_2  and  C_3
REMARK                            x       y       z     vdW  Elec       q    Type
REMARK                         _______ _______ _______ _____ _____    ______ ____
ROOT
ATOM      1  C   UNL     1      94.836  96.581  85.472  0.00  0.00    +0.000 C 
ATOM      2  S   UNL     1      94.776  94.751  85.516  0.00  0.00    +0.000 S 
ATOM      3  C   UNL     1      93.283  94.614  84.666  0.00  0.00    +0.000 A 
ATOM      4  C   UNL     1      92.557  95.718  84.470  0.00  0.00    +0.000 A 
ATOM      5  S   UNL     1      93.159  97.215  85.078  0.00  0.00    +0.000 S 
ATOM      6  S   UNL     1      91.049  95.554  83.646  0.00  0.00    +0.000 S 
ATOM      7  C   UNL     1      91.166  93.809  83.406  0.00  0.00    +0.000 A 
ATOM      8  S   UNL     1      90.000  92.905  82.632  0.00  0.00    +0.000 S 
ATOM      9  S   UNL     1      92.646  93.120  84.077  0.00  0.00    +0.000 S 
ENDROOT
BRANCH   1  11
ATOM     10  C   UNL     1      96.387  98.256  84.848  0.00  0.00    +0.000 C 
ATOM     11  O   UNL     1      95.756  97.037  84.483  0.00  0.00    +0.000 OA
ENDBRANCH   1  11
TORSDOF 1
ENDMDL
