MODEL 1
REMARK VINA RESULT:      -4.3      0.000      0.000
REMARK  Name = *****
REMARK  2 active torsions:
REMARK  status: ('A' for Active; 'I' for Inactive)
REMARK    1  A    between atoms: C_1  and  C_2
REMARK    2  A    between atoms: C_9  and  C_11
REMARK                            x       y       z     vdW  Elec       q    Type
REMARK                         _______ _______ _______ _____ _____    ______ ____
ROOT
ATOM      1  C   UNL     1     104.469 123.065  83.604  0.00  0.00    +0.000 C 
ATOM      2  C   UNL     1     104.281 123.886  82.364  0.00  0.00    +0.000 A 
ATOM      3  C   UNL     1     105.061 123.741  81.197  0.00  0.00    +0.000 A 
ATOM      4  C   UNL     1     104.848 124.533  80.059  0.00  0.00    +0.000 A 
ATOM      5  C   UNL     1     103.851 125.510  80.023  0.00  0.00    +0.000 A 
ATOM      6  C   UNL     1     103.087 125.646  81.179  0.00  0.00    +0.000 A 
ATOM      7  C   UNL     1     103.276 124.876  82.319  0.00  0.00    +0.000 A 
ATOM      8  N   UNL     1     102.375 125.240  83.294  0.00  0.00    +0.000 NA
ATOM      9  C   UNL     1     101.636 126.213  82.785  0.00  0.00    +0.000 A 
ATOM     10  N   UNL     1     102.047 126.483  81.495  0.00  0.00    +0.000 N 
ATOM     11 CL   UNL     1     106.334 122.571  81.094  0.00  0.00    +0.000 Cl
ATOM     12  H   UNL     1     101.659 127.163  80.899  0.00  0.00    +0.000 HD
ENDROOT
BRANCH   9  13
ATOM     13  C   UNL     1     100.506 126.972  83.429  0.00  0.00    +0.000 C 
ATOM     14 CL   UNL     1     100.067 126.304  85.024  0.00  0.00    +0.000 Cl
ATOM     15 CL   UNL     1     100.984 128.690  83.634  0.00  0.00    +0.000 Cl
ATOM     16 CL   UNL     1      99.064 126.914  82.362  0.00  0.00    +0.000 Cl
ENDBRANCH   9  13
TORSDOF 1
ENDMDL
