MODEL 1
REMARK VINA RESULT:      -4.1      0.000      0.000
REMARK  Name = *****
REMARK  5 active torsions:
REMARK  status: ('A' for Active; 'I' for Inactive)
REMARK    1  A    between atoms: C_1  and  C_2
REMARK    2  A    between atoms: C_3  and  O_14
REMARK    3  A    between atoms: C_10  and  O_12
REMARK    4  A    between atoms: O_12  and  C_13
REMARK    5  A    between atoms: O_14  and  C_15
REMARK                            x       y       z     vdW  Elec       q    Type
REMARK                         _______ _______ _______ _____ _____    ______ ____
ROOT
ATOM      1  C   UNL     1     103.536 129.524  83.833  0.00  0.00    +0.000 C 
ATOM      2  C   UNL     1     102.977 128.264  83.220  0.00  0.00    +0.000 A 
ATOM      3  C   UNL     1     103.847 127.257  82.766  0.00  0.00    +0.000 A 
ATOM      4  C   UNL     1     103.355 126.103  82.160  0.00  0.00    +0.000 A 
ATOM      5  C   UNL     1     101.981 125.914  82.040  0.00  0.00    +0.000 A 
ATOM      6  C   UNL     1     101.082 126.879  82.514  0.00  0.00    +0.000 A 
ATOM      7  C   UNL     1     101.570 128.069  83.109  0.00  0.00    +0.000 A 
ATOM      8  C   UNL     1     100.614 129.004  83.563  0.00  0.00    +0.000 A 
ATOM      9  C   UNL     1      99.237 128.780  83.438  0.00  0.00    +0.000 A 
ATOM     10  C   UNL     1      98.773 127.608  82.852  0.00  0.00    +0.000 A 
ATOM     11  C   UNL     1      99.697 126.668  82.394  0.00  0.00    +0.000 A 
ENDROOT
BRANCH  10  12
ATOM     12  O   UNL     1      97.463 127.262  82.666  0.00  0.00    +0.000 OA
ATOM     13  C   UNL     1      96.719 126.919  83.828  0.00  0.00    +0.000 C 
ENDBRANCH  10  12
BRANCH   3  14
ATOM     14  O   UNL     1     105.203 127.445  82.855  0.00  0.00    +0.000 OA
ATOM     15  C   UNL     1     105.912 126.299  82.382  0.00  0.00    +0.000 C 
ENDBRANCH   3  14
TORSDOF 2
ENDMDL
