MODEL 1
REMARK VINA RESULT:      -4.7      0.000      0.000
REMARK  Name = *****
REMARK  0 active torsions:
REMARK  status: ('A' for Active; 'I' for Inactive)
REMARK                            x       y       z     vdW  Elec       q    Type
REMARK                         _______ _______ _______ _____ _____    ______ ____
ROOT
ATOM      1  C   UNL     1     100.116 126.547  82.310  0.00  0.00    +0.000 A 
ATOM      2  C   UNL     1     101.472 126.794  82.451  0.00  0.00    +0.000 A 
ATOM      3  C   UNL     1     101.939 127.958  83.087  0.00  0.00    +0.000 A 
ATOM      4  C   UNL     1     101.061 128.902  83.596  0.00  0.00    +0.000 A 
ATOM      5  C   UNL     1      99.695 128.660  83.447  0.00  0.00    +0.000 A 
ATOM      6  C   UNL     1      99.230 127.499  82.813  0.00  0.00    +0.000 A 
ATOM      7  F   UNL     1      97.911 127.292  82.688  0.00  0.00    +0.000 F 
ATOM      8  F   UNL     1      98.821 129.556  83.924  0.00  0.00    +0.000 F 
ATOM      9  C   UNL     1     103.446 127.933  83.124  0.00  0.00    +0.000 C 
ATOM     10  C   UNL     1     103.775 126.994  81.945  0.00  0.00    +0.000 C 
ATOM     11  C   UNL     1     102.647 125.946  82.038  0.00  0.00    +0.000 C 
ATOM     12  F   UNL     1     102.936 125.020  82.992  0.00  0.00    +0.000 F 
ATOM     13  F   UNL     1     102.475 125.262  80.882  0.00  0.00    +0.000 F 
ATOM     14  F   UNL     1     105.007 126.433  82.067  0.00  0.00    +0.000 F 
ATOM     15 CL   UNL     1     103.750 127.871  80.361  0.00  0.00    +0.000 Cl
ATOM     16  F   UNL     1     104.036 129.147  83.005  0.00  0.00    +0.000 F 
ATOM     17  F   UNL     1     103.893 127.402  84.294  0.00  0.00    +0.000 F 
ENDROOT
TORSDOF 0
ENDMDL
