MODEL 1
REMARK VINA RESULT:      -4.2      0.000      0.000
REMARK  Name = *****
REMARK  2 active torsions:
REMARK  status: ('A' for Active; 'I' for Inactive)
REMARK    1  A    between atoms: C_1  and  C_2
REMARK    2  A    between atoms: C_2  and  C_4
REMARK                            x       y       z     vdW  Elec       q    Type
REMARK                         _______ _______ _______ _____ _____    ______ ____
ROOT
ATOM      1  C   UNL     1     101.292 126.632  82.736  0.00  0.00    +0.000 A 
ATOM      2  N   UNL     1     101.962 125.871  83.583  0.00  0.00    +0.000 NA
ATOM      3  C   UNL     1     102.915 125.219  82.845  0.00  0.00    +0.000 A 
ATOM      4  C   UNL     1     103.888 124.297  83.254  0.00  0.00    +0.000 A 
ATOM      5  C   UNL     1     104.756 123.767  82.289  0.00  0.00    +0.000 A 
ATOM      6  C   UNL     1     104.656 124.152  80.943  0.00  0.00    +0.000 A 
ATOM      7  C   UNL     1     103.684 125.073  80.523  0.00  0.00    +0.000 A 
ATOM      8  C   UNL     1     102.835 125.582  81.508  0.00  0.00    +0.000 A 
ATOM      9  N   UNL     1     101.797 126.478  81.464  0.00  0.00    +0.000 N 
ATOM     10 CL   UNL     1     105.711 123.519  79.726  0.00  0.00    +0.000 Cl
ATOM     11 CL   UNL     1     105.943 122.633  82.835  0.00  0.00    +0.000 Cl
ATOM     12  H   UNL     1     101.468 126.937  80.657  0.00  0.00    +0.000 HD
ENDROOT
BRANCH   1  14
ATOM     13  C   UNL     1      98.774 127.283  82.490  0.00  0.00    +0.000 C 
ATOM     14  C   UNL     1     100.192 127.525  82.947  0.00  0.00    +0.000 C 
ATOM     15  C   UNL     1     100.471 128.666  83.608  0.00  0.00    +0.000 C 
ENDBRANCH   1  14
TORSDOF 1
ENDMDL
