MODEL 1
REMARK VINA RESULT:      -3.9      0.000      0.000
REMARK  Name = *****
REMARK  0 active torsions:
REMARK  status: ('A' for Active; 'I' for Inactive)
REMARK                            x       y       z     vdW  Elec       q    Type
REMARK                         _______ _______ _______ _____ _____    ______ ____
ROOT
ATOM      1  C   UNL     1     104.240 124.943  80.023  0.00  0.00    +0.000 C 
ATOM      2  C   UNL     1     104.298 126.200  80.908  0.00  0.00    +0.000 C 
ATOM      3  C   UNL     1     103.660 125.811  82.264  0.00  0.00    +0.000 C 
ATOM      4  C   UNL     1     104.082 124.365  82.339  0.00  0.00    +0.000 A 
ATOM      5  C   UNL     1     104.409 123.875  81.064  0.00  0.00    +0.000 A 
ATOM      6  C   UNL     1     104.783 122.554  80.879  0.00  0.00    +0.000 A 
ATOM      7  C   UNL     1     104.844 121.727  82.002  0.00  0.00    +0.000 A 
ATOM      8  C   UNL     1     104.524 122.213  83.279  0.00  0.00    +0.000 A 
ATOM      9  C   UNL     1     104.133 123.544  83.455  0.00  0.00    +0.000 A 
ATOM     10 CL   UNL     1     105.313 120.081  81.816  0.00  0.00    +0.000 Cl
ATOM     11 CL   UNL     1     101.881 125.884  82.298  0.00  0.00    +0.000 Cl
ATOM     12 CL   UNL     1     103.605 127.628  80.112  0.00  0.00    +0.000 Cl
ENDROOT
TORSDOF 0
ENDMDL
