REMARK  Name = *****
REMARK  2 active torsions:
REMARK  status: ('A' for Active; 'I' for Inactive)
REMARK    1  A    between atoms: C_1  and  C_2
REMARK    2  A    between atoms: N_10  and  C_13
REMARK                            x       y       z     vdW  Elec       q    Type
REMARK                         _______ _______ _______ _____ _____    ______ ____
ROOT
ATOM      1  C   UNL     1       0.855   0.274  -0.067  0.00  0.00    +0.000 C 
ATOM      2  C   UNL     1       2.376   0.172  -0.089  0.00  0.00    +0.000 C 
ATOM      3  C   UNL     1       2.851  -1.128   0.506  0.00  0.00    +0.000 A 
ATOM      4  C   UNL     1       3.636  -0.880   1.636  0.00  0.00    +0.000 A 
ATOM      5  C   UNL     1       4.182  -1.919   2.369  0.00  0.00    +0.000 A 
ATOM      6  C   UNL     1       3.929  -3.230   1.948  0.00  0.00    +0.000 A 
ATOM      7  C   UNL     1       3.147  -3.475   0.809  0.00  0.00    +0.000 A 
ATOM      8  C   UNL     1       2.601  -2.423   0.074  0.00  0.00    +0.000 A 
ATOM      9 CL   UNL     1       2.855  -5.097   0.314  0.00  0.00    +0.000 Cl
ATOM     10  N   UNL     1       3.742   0.506   1.838  0.00  0.00    +0.000 N 
ATOM     11  C   UNL     1       3.052   1.206   0.834  0.00  0.00    +0.000 C 
ATOM     12  S   UNL     1       2.987   2.856   0.599  0.00  0.00    +0.000 S 
ATOM     13  C   UNL     1       4.516   1.115   2.900  0.00  0.00    +0.000 C 
ENDROOT
TORSDOF 0
