MODEL 1
REMARK VINA RESULT:      -3.8      0.000      0.000
REMARK  Name = *****
REMARK  0 active torsions:
REMARK  status: ('A' for Active; 'I' for Inactive)
REMARK                            x       y       z     vdW  Elec       q    Type
REMARK                         _______ _______ _______ _____ _____    ______ ____
ROOT
ATOM      1  C   UNL     1     103.434 126.538  80.317  0.00  0.00    +0.000 A 
ATOM      2  C   UNL     1     102.930 126.972  81.542  0.00  0.00    +0.000 A 
ATOM      3  C   UNL     1     102.984 126.133  82.660  0.00  0.00    +0.000 A 
ATOM      4  C   UNL     1     103.541 124.851  82.574  0.00  0.00    +0.000 A 
ATOM      5  C   UNL     1     104.037 124.442  81.341  0.00  0.00    +0.000 A 
ATOM      6  C   UNL     1     103.991 125.267  80.211  0.00  0.00    +0.000 A 
ATOM      7  C   UNL     1     104.611 123.105  81.281  0.00  0.00    +0.000 C 
ATOM      8  O   UNL     1     105.074 122.643  80.251  0.00  0.00    +0.000 OA
ATOM      9  C   UNL     1     104.585 122.342  82.596  0.00  0.00    +0.000 C 
ATOM     10  O   UNL     1     105.063 121.212  82.590  0.00  0.00    +0.000 OA
ATOM     11  N   UNL     1     104.046 122.907  83.735  0.00  0.00    +0.000 NA
ATOM     12  N   UNL     1     103.563 124.061  83.736  0.00  0.00    +0.000 NA
ENDROOT
TORSDOF 0
ENDMDL
