MODEL 1
REMARK VINA RESULT:      -4.4      0.000      0.000
REMARK  Name = *****
REMARK  0 active torsions:
REMARK  status: ('A' for Active; 'I' for Inactive)
REMARK                            x       y       z     vdW  Elec       q    Type
REMARK                         _______ _______ _______ _____ _____    ______ ____
ROOT
ATOM      1  C   UNL     1      99.330 129.279  83.605  0.00  0.00    +0.000 C 
ATOM      2  C   UNL     1      99.862 128.166  83.089  0.00  0.00    +0.000 C 
ATOM      3  C   UNL     1     101.262 127.755  83.051  0.00  0.00    +0.000 A 
ATOM      4  C   UNL     1     101.277 126.514  82.402  0.00  0.00    +0.000 A 
ATOM      5  C   UNL     1     102.440 125.809  82.177  0.00  0.00    +0.000 A 
ATOM      6  C   UNL     1     103.627 126.389  82.630  0.00  0.00    +0.000 A 
ATOM      7  C   UNL     1     103.630 127.636  83.283  0.00  0.00    +0.000 A 
ATOM      8  C   UNL     1     102.435 128.333  83.499  0.00  0.00    +0.000 A 
ATOM      9 CL   UNL     1     105.118 125.563  82.383  0.00  0.00    +0.000 Cl
ATOM     10  N   UNL     1      99.983 126.134  82.041  0.00  0.00    +0.000 N 
ATOM     11  C   UNL     1      99.051 127.089  82.423  0.00  0.00    +0.000 C 
ATOM     12  O   UNL     1      97.847 127.061  82.259  0.00  0.00    +0.000 OA
ATOM     13  H   UNL     1      99.761 125.297  81.574  0.00  0.00    +0.000 HD
ENDROOT
TORSDOF 0
ENDMDL
