MODEL 1
REMARK VINA RESULT:      -3.9      0.000      0.000
REMARK  Name = *****
REMARK  3 active torsions:
REMARK  status: ('A' for Active; 'I' for Inactive)
REMARK    1  A    between atoms: C_1  and  C_2
REMARK    2  A    between atoms: C_2  and  C_3
REMARK    3  A    between atoms: C_2  and  N_4
REMARK                            x       y       z     vdW  Elec       q    Type
REMARK                         _______ _______ _______ _____ _____    ______ ____
ROOT
ATOM      1  N   UNL     1     100.684 128.052  83.269  0.00  0.00    +0.000 N 
ATOM      2  C   UNL     1     101.959 127.709  82.754  0.00  0.00    +0.000 A 
ATOM      3  C   UNL     1     101.825 126.527  82.023  0.00  0.00    +0.000 A 
ATOM      4  C   UNL     1     102.878 125.910  81.386  0.00  0.00    +0.000 A 
ATOM      5  C   UNL     1     104.122 126.529  81.502  0.00  0.00    +0.000 A 
ATOM      6  C   UNL     1     104.281 127.722  82.235  0.00  0.00    +0.000 A 
ATOM      7  C   UNL     1     103.188 128.325  82.873  0.00  0.00    +0.000 A 
ATOM      8 CL   UNL     1     105.494 125.823  80.735  0.00  0.00    +0.000 Cl
ATOM      9  N   UNL     1     100.498 126.128  82.076  0.00  0.00    +0.000 N 
ATOM     10  C   UNL     1      99.769 127.051  82.844  0.00  0.00    +0.000 A 
ATOM     11  S   UNL     1      98.146 126.868  83.121  0.00  0.00    +0.000 S 
ATOM     12  H   UNL     1     100.124 125.327  81.642  0.00  0.00    +0.000 HD
ENDROOT
BRANCH   1  14
ATOM     13  C   UNL     1      99.432 130.195  83.500  0.00  0.00    +0.000 C 
ATOM     14  C   UNL     1     100.453 129.234  84.107  0.00  0.00    +0.000 C 
ATOM     15  C   UNL     1     100.093 128.862  85.546  0.00  0.00    +0.000 C 
ENDBRANCH   1  14
TORSDOF 1
ENDMDL
