REMARK  Name = *****
REMARK  0 active torsions:
REMARK  status: ('A' for Active; 'I' for Inactive)
REMARK                            x       y       z     vdW  Elec       q    Type
REMARK                         _______ _______ _______ _____ _____    ______ ____
ROOT
ATOM      1  C   UNL     1      -2.453  -0.712  -0.020  0.00  0.00    +0.000 A 
ATOM      2  C   UNL     1      -2.440   0.679  -0.020  0.00  0.00    +0.000 A 
ATOM      3  C   UNL     1      -1.225   1.354  -0.012  0.00  0.00    +0.000 A 
ATOM      4  C   UNL     1      -0.027   0.632  -0.005  0.00  0.00    +0.000 A 
ATOM      5  C   UNL     1      -0.009  -0.773  -0.006  0.00  0.00    +0.000 A 
ATOM      6  C   UNL     1      -1.251  -1.429  -0.013  0.00  0.00    +0.000 A 
ATOM      7  C   UNL     1       1.311  -1.472   0.001  0.00  0.00    +0.000 A 
ATOM      8  C   UNL     1       2.448  -0.741   0.010  0.00  0.00    +0.000 A 
ATOM      9  C   UNL     1       2.405   0.755   0.013  0.00  0.00    +0.000 A 
ATOM     10  O   UNL     1       3.414   1.456   0.022  0.00  0.00    +0.000 OA
ATOM     11  N   UNL     1       1.173   1.341   0.004  0.00  0.00    +0.000 N 
ATOM     12 CL   UNL     1       4.050  -1.412   0.018  0.00  0.00    +0.000 Cl
ATOM     13  I   UNL     1       1.394  -3.605  -0.004  0.00  0.00    +0.000 I 
ATOM     14  H   UNL     1       1.128   2.325   0.005  0.00  0.00    +0.000 HD
ENDROOT
TORSDOF 0
