MODEL 1
REMARK VINA RESULT:      -4.2      0.000      0.000
REMARK  Name = *****
REMARK  3 active torsions:
REMARK  status: ('A' for Active; 'I' for Inactive)
REMARK    1  A    between atoms: C_1  and  O_2
REMARK    2  A    between atoms: O_2  and  C_3
REMARK    3  A    between atoms: C_9  and  C_11
REMARK                            x       y       z     vdW  Elec       q    Type
REMARK                         _______ _______ _______ _____ _____    ______ ____
ROOT
ATOM      1  C   UNL     1      98.661 127.546  82.817  0.00  0.00    +0.000 A 
ATOM      2  C   UNL     1      99.646 126.624  82.449  0.00  0.00    +0.000 A 
ATOM      3  C   UNL     1     101.011 126.902  82.630  0.00  0.00    +0.000 A 
ATOM      4  C   UNL     1     101.391 128.137  83.197  0.00  0.00    +0.000 A 
ATOM      5  C   UNL     1     102.754 128.418  83.376  0.00  0.00    +0.000 A 
ATOM      6  C   UNL     1     103.731 127.492  83.002  0.00  0.00    +0.000 A 
ATOM      7  C   UNL     1     103.366 126.260  82.446  0.00  0.00    +0.000 A 
ATOM      8  C   UNL     1     102.005 125.980  82.259  0.00  0.00    +0.000 A 
ATOM      9  C   UNL     1     100.398 129.055  83.565  0.00  0.00    +0.000 A 
ATOM     10  C   UNL     1      99.042 128.763  83.378  0.00  0.00    +0.000 A 
ENDROOT
BRANCH   1  12
ATOM     11  C   UNL     1      96.553 126.911  83.715  0.00  0.00    +0.000 C 
ATOM     12  O   UNL     1      97.377 127.137  82.579  0.00  0.00    +0.000 OA
ENDBRANCH   1  12
BRANCH   7  13
ATOM     13  C   UNL     1     104.412 125.269  82.034  0.00  0.00    +0.000 C 
ATOM     14 BR   UNL     1     104.425 125.105  80.098  0.00  0.00    +0.000 Br
ENDBRANCH   7  13
TORSDOF 2
ENDMDL
