MODEL 1
REMARK VINA RESULT:      -3.7      0.000      0.000
REMARK  Name = *****
REMARK  4 active torsions:
REMARK  status: ('A' for Active; 'I' for Inactive)
REMARK    1  A    between atoms: C_1  and  C_2
REMARK    2  A    between atoms: C_3  and  C_13
REMARK    3  A    between atoms: C_8  and  O_11
REMARK    4  A    between atoms: O_11  and  C_12
REMARK                            x       y       z     vdW  Elec       q    Type
REMARK                         _______ _______ _______ _____ _____    ______ ____
ROOT
ATOM      1  C   UNL     1      85.115  72.156  84.993  0.00  0.00    +0.000 C 
ATOM      2  C   UNL     1      85.561  71.845  86.388  0.00  0.00    +0.000 A 
ATOM      3  C   UNL     1      84.840  72.091  87.546  0.00  0.00    +0.000 A 
ATOM      4  S   UNL     1      85.685  71.595  88.947  0.00  0.00    +0.000 S 
ATOM      5  C   UNL     1      87.034  71.040  88.046  0.00  0.00    +0.000 A 
ATOM      6  C   UNL     1      86.845  71.230  86.679  0.00  0.00    +0.000 A 
ATOM      7  C   UNL     1      87.887  70.814  85.809  0.00  0.00    +0.000 A 
ATOM      8  C   UNL     1      89.063  70.233  86.302  0.00  0.00    +0.000 A 
ATOM      9  C   UNL     1      89.217  70.059  87.669  0.00  0.00    +0.000 A 
ATOM     10  C   UNL     1      88.211  70.457  88.556  0.00  0.00    +0.000 A 
ATOM     11  C   UNL     1      83.489  72.704  87.727  0.00  0.00    +0.000 C 
ENDROOT
BRANCH   8  12
ATOM     12  O   UNL     1      89.970  69.886  85.338  0.00  0.00    +0.000 OA
ATOM     13  C   UNL     1      90.433  70.926  84.486  0.00  0.00    +0.000 C 
ENDBRANCH   8  12
TORSDOF 1
ENDMDL
