REMARK  Name = *****
REMARK  2 active torsions:
REMARK  status: ('A' for Active; 'I' for Inactive)
REMARK    1  A    between atoms: C_1  and  C_2
REMARK    2  A    between atoms: C_9  and  C_11
REMARK                            x       y       z     vdW  Elec       q    Type
REMARK                         _______ _______ _______ _____ _____    ______ ____
ROOT
ATOM      1  C   UNL     1       0.960   0.019  -0.095  0.00  0.00    +0.000 C 
ATOM      2  C   UNL     1       2.459  -0.023  -0.095  0.00  0.00    +0.000 A 
ATOM      3  C   UNL     1       3.213  -1.216  -0.096  0.00  0.00    +0.000 A 
ATOM      4  C   UNL     1       4.616  -1.206  -0.096  0.00  0.00    +0.000 A 
ATOM      5  C   UNL     1       5.340  -0.012  -0.094  0.00  0.00    +0.000 A 
ATOM      6  C   UNL     1       4.587   1.159  -0.092  0.00  0.00    +0.000 A 
ATOM      7  C   UNL     1       3.199   1.179  -0.092  0.00  0.00    +0.000 A 
ATOM      8  N   UNL     1       2.741   2.477  -0.089  0.00  0.00    +0.000 NA
ATOM      9  C   UNL     1       3.810   3.257  -0.087  0.00  0.00    +0.000 A 
ATOM     10  N   UNL     1       4.952   2.481  -0.089  0.00  0.00    +0.000 N 
ATOM     11 CL   UNL     1       2.453  -2.772  -0.099  0.00  0.00    +0.000 Cl
ATOM     12  H   UNL     1       5.876   2.820  -0.089  0.00  0.00    +0.000 HD
ENDROOT
BRANCH   9  13
ATOM     13  C   UNL     1       3.877   4.762  -0.080  0.00  0.00    +0.000 C 
ATOM     14 CL   UNL     1       2.258   5.510  -0.091  0.00  0.00    +0.000 Cl
ATOM     15 CL   UNL     1       4.758   5.311   1.384  0.00  0.00    +0.000 Cl
ATOM     16 CL   UNL     1       4.783   5.325  -1.524  0.00  0.00    +0.000 Cl
ENDBRANCH   9  13
TORSDOF 1
