REMARK  Name = *****
REMARK  2 active torsions:
REMARK  status: ('A' for Active; 'I' for Inactive)
REMARK    1  A    between atoms: C_1  and  C_2
REMARK    2  A    between atoms: C_4  and  C_5
REMARK                            x       y       z     vdW  Elec       q    Type
REMARK                         _______ _______ _______ _____ _____    ______ ____
ROOT
ATOM      1  C   UNL     1       1.092   0.036  -0.092  0.00  0.00    +0.000 C 
ATOM      2  C   UNL     1       2.573  -0.020  -0.086  0.00  0.00    +0.000 C 
ATOM      3  C   UNL     1       3.371  -1.107  -0.082  0.00  0.00    +0.000 C 
ATOM      4  C   UNL     1       4.762  -0.692  -0.077  0.00  0.00    +0.000 C 
ATOM      5  C   UNL     1       5.817  -1.512  -0.072  0.00  0.00    +0.000 C 
ATOM      6  C   UNL     1       4.788   0.771  -0.079  0.00  0.00    +0.000 A 
ATOM      7  C   UNL     1       5.817   1.697  -0.077  0.00  0.00    +0.000 A 
ATOM      8  C   UNL     1       5.480   3.053  -0.080  0.00  0.00    +0.000 A 
ATOM      9  C   UNL     1       4.135   3.458  -0.085  0.00  0.00    +0.000 A 
ATOM     10  C   UNL     1       3.102   2.515  -0.088  0.00  0.00    +0.000 A 
ATOM     11  C   UNL     1       3.438   1.170  -0.085  0.00  0.00    +0.000 A 
ENDROOT
TORSDOF 0
