REMARK  Name = *****
REMARK  3 active torsions:
REMARK  status: ('A' for Active; 'I' for Inactive)
REMARK    1  A    between atoms: C_1  and  O_2
REMARK    2  A    between atoms: O_2  and  C_3
REMARK    3  A    between atoms: C_4  and  C_14
REMARK                            x       y       z     vdW  Elec       q    Type
REMARK                         _______ _______ _______ _____ _____    ______ ____
ROOT
ATOM      1  C   UNL     1       3.013   0.651   1.010  0.00  0.00    +0.000 A 
ATOM      2  C   UNL     1       4.143   1.448   0.716  0.00  0.00    +0.000 A 
ATOM      3  C   UNL     1       4.925   1.999   1.780  0.00  0.00    +0.000 A 
ATOM      4  C   UNL     1       4.526   1.755   3.119  0.00  0.00    +0.000 A 
ATOM      5  C   UNL     1       3.393   0.977   3.376  0.00  0.00    +0.000 A 
ATOM      6  C   UNL     1       2.645   0.428   2.335  0.00  0.00    +0.000 A 
ATOM      7  C   UNL     1       5.262   2.285   4.191  0.00  0.00    +0.000 A 
ATOM      8  C   UNL     1       6.398   3.055   3.960  0.00  0.00    +0.000 A 
ATOM      9  C   UNL     1       6.818   3.304   2.662  0.00  0.00    +0.000 A 
ATOM     10  C   UNL     1       6.091   2.782   1.588  0.00  0.00    +0.000 A 
ATOM     11 BR   UNL     1       7.374   3.757   5.417  0.00  0.00    +0.000 Br
ENDROOT
BRANCH   1  13
ATOM     12  C   UNL     1       1.300  -0.798   0.184  0.00  0.00    +0.000 C 
ATOM     13  O   UNL     1       2.328   0.152  -0.069  0.00  0.00    +0.000 OA
ENDBRANCH   1  13
BRANCH   2  14
ATOM     14  C   UNL     1       4.515   1.683  -0.731  0.00  0.00    +0.000 C 
ATOM     15 CL   UNL     1       5.800   0.566  -1.245  0.00  0.00    +0.000 Cl
ENDBRANCH   2  14
TORSDOF 2
