MODEL 1
REMARK VINA RESULT:      -3.9      0.000      0.000
REMARK  Name = *****
REMARK  0 active torsions:
REMARK  status: ('A' for Active; 'I' for Inactive)
REMARK                            x       y       z     vdW  Elec       q    Type
REMARK                         _______ _______ _______ _____ _____    ______ ____
ROOT
ATOM      1  C   UNL     1     101.859 128.777  83.721  0.00  0.00    +0.000 A 
ATOM      2  C   UNL     1     103.207 128.586  83.394  0.00  0.00    +0.000 A 
ATOM      3  C   UNL     1     103.612 127.539  82.529  0.00  0.00    +0.000 A 
ATOM      4  C   UNL     1     102.672 126.659  81.973  0.00  0.00    +0.000 A 
ATOM      5  C   UNL     1     101.351 126.867  82.311  0.00  0.00    +0.000 A 
ATOM      6  C   UNL     1     100.960 127.900  83.163  0.00  0.00    +0.000 A 
ATOM      7  N   UNL     1      99.578 127.845  83.306  0.00  0.00    +0.000 N 
ATOM      8  C   UNL     1      99.087 126.775  82.544  0.00  0.00    +0.000 A 
ATOM      9  O   UNL     1      97.924 126.434  82.439  0.00  0.00    +0.000 OA
ATOM     10  N   UNL     1     100.197 126.178  81.933  0.00  0.00    +0.000 N 
ATOM     11 CL   UNL     1     103.095 125.366  80.916  0.00  0.00    +0.000 Cl
ATOM     12 CL   UNL     1     105.304 127.400  82.197  0.00  0.00    +0.000 Cl
ATOM     13  H   UNL     1      99.034 128.456  83.852  0.00  0.00    +0.000 HD
ATOM     14  H   UNL     1     100.168 125.397  81.334  0.00  0.00    +0.000 HD
ENDROOT
TORSDOF 0
ENDMDL
