MODEL 1
REMARK VINA RESULT:      -4.2      0.000      0.000
REMARK  Name = *****
REMARK  3 active torsions:
REMARK  status: ('A' for Active; 'I' for Inactive)
REMARK    1  A    between atoms: C_1  and  C_2
REMARK    2  A    between atoms: C_2  and  O_3
REMARK    3  A    between atoms: O_3  and  C_4
REMARK                            x       y       z     vdW  Elec       q    Type
REMARK                         _______ _______ _______ _____ _____    ______ ____
ROOT
ATOM      1  C   UNL     1      98.775 127.800  82.980  0.00  0.00    +0.000 A 
ATOM      2  C   UNL     1      99.838 127.027  82.494  0.00  0.00    +0.000 A 
ATOM      3  C   UNL     1     101.179 127.384  82.719  0.00  0.00    +0.000 A 
ATOM      4  C   UNL     1     101.454 128.559  83.457  0.00  0.00    +0.000 A 
ATOM      5  C   UNL     1     100.387 129.334  83.935  0.00  0.00    +0.000 A 
ATOM      6  C   UNL     1      99.058 128.960  83.698  0.00  0.00    +0.000 A 
ATOM      7  C   UNL     1     102.788 128.933  83.702  0.00  0.00    +0.000 A 
ATOM      8  C   UNL     1     103.844 128.159  83.223  0.00  0.00    +0.000 A 
ATOM      9  C   UNL     1     103.572 127.008  82.495  0.00  0.00    +0.000 A 
ATOM     10  C   UNL     1     102.260 126.621  82.244  0.00  0.00    +0.000 A 
ATOM     11  F   UNL     1     102.044 125.501  81.538  0.00  0.00    +0.000 F 
ATOM     12  F   UNL     1     104.592 126.268  82.038  0.00  0.00    +0.000 F 
ATOM     13  F   UNL     1      99.559 125.913  81.797  0.00  0.00    +0.000 F 
ENDROOT
BRANCH   1  14
ATOM     14  O   UNL     1      97.521 127.328  82.697  0.00  0.00    +0.000 OA
BRANCH  14  16
ATOM     15  C   UNL     1      96.489 125.363  83.563  0.00  0.00    +0.000 C 
ATOM     16  C   UNL     1      96.736 126.845  83.784  0.00  0.00    +0.000 C 
ENDBRANCH  14  16
ENDBRANCH   1  14
TORSDOF 2
ENDMDL
