MODEL 1
REMARK VINA RESULT:      -2.9      0.000      0.000
REMARK  Name = *****
REMARK  0 active torsions:
REMARK  status: ('A' for Active; 'I' for Inactive)
REMARK                            x       y       z     vdW  Elec       q    Type
REMARK                         _______ _______ _______ _____ _____    ______ ____
ROOT
ATOM      1  C   UNL     1     103.337 127.616  81.218  0.00  0.00    +0.000 C 
ATOM      2  C   UNL     1     103.206 126.298  81.448  0.00  0.00    +0.000 C 
ATOM      3  C   UNL     1     102.396 125.767  82.592  0.00  0.00    +0.000 C 
ATOM      4  S   UNL     1     103.486 124.918  83.753  0.00  0.00    +0.000 S 
ATOM      5  C   UNL     1     104.180 123.726  82.700  0.00  0.00    +0.000 A 
ATOM      6  C   UNL     1     104.347 123.838  81.366  0.00  0.00    +0.000 A 
ATOM      7  S   UNL     1     103.940 125.183  80.336  0.00  0.00    +0.000 S 
ATOM      8  S   UNL     1     105.086 122.462  80.563  0.00  0.00    +0.000 S 
ATOM      9  C   UNL     1     105.315 121.472  81.988  0.00  0.00    +0.000 A 
ATOM     10  S   UNL     1     106.007 119.957  81.958  0.00  0.00    +0.000 S 
ATOM     11  S   UNL     1     104.732 122.244  83.447  0.00  0.00    +0.000 S 
ENDROOT
TORSDOF 0
ENDMDL
