MODEL 1
REMARK VINA RESULT:      -3.6      0.000      0.000
REMARK  Name = *****
REMARK  4 active torsions:
REMARK  status: ('A' for Active; 'I' for Inactive)
REMARK    1  A    between atoms: C_1  and  C_2
REMARK    2  A    between atoms: C_2  and  O_3
REMARK    3  A    between atoms: O_3  and  C_4
REMARK    4  A    between atoms: C_9  and  S_13
REMARK                            x       y       z     vdW  Elec       q    Type
REMARK                         _______ _______ _______ _____ _____    ______ ____
ROOT
ATOM      1  C   UNL     1      96.837 118.729  81.817  0.00  0.00    +0.000 A 
ATOM      2  C   UNL     1      97.695 118.418  80.790  0.00  0.00    +0.000 A 
ATOM      3  C   UNL     1      97.361 117.259  80.031  0.00  0.00    +0.000 A 
ATOM      4  C   UNL     1      96.190 116.669  80.518  0.00  0.00    +0.000 A 
ATOM      5  S   UNL     1      95.577 117.568  81.866  0.00  0.00    +0.000 S 
ATOM      6  C   UNL     1      95.661 115.500  79.919  0.00  0.00    +0.000 A 
ATOM      7  C   UNL     1      96.333 114.939  78.825  0.00  0.00    +0.000 A 
ATOM      8  C   UNL     1      97.495 115.512  78.331  0.00  0.00    +0.000 A 
ATOM      9  C   UNL     1      98.013 116.664  78.924  0.00  0.00    +0.000 A 
ATOM     10  F   UNL     1      98.754 119.139  80.520  0.00  0.00    +0.000 F 
ENDROOT
BRANCH   6  11
ATOM     11  S   UNL     1      94.173 114.729  80.519  0.00  0.00    +0.000 S 
ATOM     12  H   UNL     1      94.297 114.482  81.851  0.00  0.00    +0.000 HD
ENDBRANCH   6  11
BRANCH   1  13
ATOM     13  O   UNL     1      96.970 119.775  82.648  0.00  0.00    +0.000 OA
BRANCH  13  15
ATOM     14  C   UNL     1      96.617 121.831  81.499  0.00  0.00    +0.000 C 
ATOM     15  C   UNL     1      96.057 120.864  82.526  0.00  0.00    +0.000 C 
ENDBRANCH  13  15
ENDBRANCH   1  13
TORSDOF 3
ENDMDL
