MODEL 1
REMARK VINA RESULT:      -4.3      0.000      0.000
REMARK  Name = *****
REMARK  1 active torsions:
REMARK  status: ('A' for Active; 'I' for Inactive)
REMARK    1  A    between atoms: C_9  and  C_11
REMARK                            x       y       z     vdW  Elec       q    Type
REMARK                         _______ _______ _______ _____ _____    ______ ____
ROOT
ATOM      1  C   UNL     1      98.581 128.342  83.292  0.00  0.00    +0.000 A 
ATOM      2  C   UNL     1      98.962 127.184  82.607  0.00  0.00    +0.000 A 
ATOM      3  C   UNL     1     100.333 126.938  82.467  0.00  0.00    +0.000 A 
ATOM      4  C   UNL     1     101.309 127.792  82.979  0.00  0.00    +0.000 A 
ATOM      5  C   UNL     1     100.906 128.954  83.665  0.00  0.00    +0.000 A 
ATOM      6  C   UNL     1      99.539 129.211  83.811  0.00  0.00    +0.000 A 
ATOM      7 CL   UNL     1      99.033 130.628  84.651  0.00  0.00    +0.000 Cl
ATOM      8  C   UNL     1     102.572 127.227  82.650  0.00  0.00    +0.000 A 
ATOM      9  C   UNL     1     102.351 126.054  81.954  0.00  0.00    +0.000 A 
ATOM     10  N   UNL     1     100.989 125.897  81.853  0.00  0.00    +0.000 N 
ATOM     11  H   UNL     1     100.544 125.143  81.403  0.00  0.00    +0.000 HD
ENDROOT
BRANCH   9  12
ATOM     12  C   UNL     1     103.290 125.118  81.406  0.00  0.00    +0.000 C 
ATOM     13  O   UNL     1     103.923 124.288  82.044  0.00  0.00    +0.000 OA
ATOM     14  F   UNL     1     103.487 125.162  80.082  0.00  0.00    +0.000 F 
ENDBRANCH   9  12
TORSDOF 1
ENDMDL
