REMARK  Name = *****
REMARK  0 active torsions:
REMARK  status: ('A' for Active; 'I' for Inactive)
REMARK                            x       y       z     vdW  Elec       q    Type
REMARK                         _______ _______ _______ _____ _____    ______ ____
ROOT
ATOM      1  C   UNL     1       1.120  -1.205  -0.001  0.00  0.00    +0.000 A 
ATOM      2  C   UNL     1       2.186  -0.303  -0.002  0.00  0.00    +0.000 A 
ATOM      3  C   UNL     1       1.968   1.088  -0.002  0.00  0.00    +0.000 A 
ATOM      4  C   UNL     1       0.665   1.607  -0.002  0.00  0.00    +0.000 A 
ATOM      5  C   UNL     1      -0.385   0.707  -0.001  0.00  0.00    +0.000 A 
ATOM      6  C   UNL     1      -0.154  -0.673  -0.001  0.00  0.00    +0.000 A 
ATOM      7  N   UNL     1      -1.340  -1.399  -0.000  0.00  0.00    +0.000 N 
ATOM      8  C   UNL     1      -2.433  -0.561   0.000  0.00  0.00    +0.000 C 
ATOM      9  O   UNL     1      -3.605  -0.864   0.001  0.00  0.00    +0.000 OA
ATOM     10  C   UNL     1      -1.849   0.876  -0.001  0.00  0.00    +0.000 C 
ATOM     11  O   UNL     1      -2.492   1.899  -0.001  0.00  0.00    +0.000 OA
ATOM     12  I   UNL     1       0.418   3.666  -0.003  0.00  0.00    +0.000 I 
ATOM     13  I   UNL     1       4.137  -1.030  -0.004  0.00  0.00    +0.000 I 
ATOM     14  H   UNL     1      -1.392  -2.382   0.000  0.00  0.00    +0.000 HD
ENDROOT
TORSDOF 0
