MODEL 1
REMARK VINA RESULT:      -4.0      0.000      0.000
REMARK  Name = *****
REMARK  2 active torsions:
REMARK  status: ('A' for Active; 'I' for Inactive)
REMARK    1  A    between atoms: C_1  and  O_2
REMARK    2  A    between atoms: O_2  and  C_3
REMARK                            x       y       z     vdW  Elec       q    Type
REMARK                         _______ _______ _______ _____ _____    ______ ____
ROOT
ATOM      1  C   UNL     1     103.772 128.373  83.449  0.00  0.00    +0.000 A 
ATOM      2  C   UNL     1     102.437 128.763  83.674  0.00  0.00    +0.000 A 
ATOM      3  C   UNL     1     101.446 127.966  83.137  0.00  0.00    +0.000 A 
ATOM      4  C   UNL     1     101.740 126.805  82.422  0.00  0.00    +0.000 A 
ATOM      5  C   UNL     1     103.048 126.388  82.217  0.00  0.00    +0.000 A 
ATOM      6  C   UNL     1     104.079 127.178  82.748  0.00  0.00    +0.000 A 
ATOM      7 CL   UNL     1     105.738 126.701  82.564  0.00  0.00    +0.000 Cl
ATOM      8 CL   UNL     1     103.337 124.933  81.334  0.00  0.00    +0.000 Cl
ATOM      9  N   UNL     1     100.574 126.169  81.986  0.00  0.00    +0.000 N 
ATOM     10  C   UNL     1      99.449 126.857  82.381  0.00  0.00    +0.000 C 
ATOM     11  O   UNL     1      98.291 126.579  82.172  0.00  0.00    +0.000 OA
ATOM     12  C   UNL     1      99.979 128.086  83.162  0.00  0.00    +0.000 C 
ATOM     13  O   UNL     1      99.307 128.954  83.665  0.00  0.00    +0.000 OA
ATOM     14 CL   UNL     1     102.061 130.166  84.597  0.00  0.00    +0.000 Cl
ATOM     15  H   UNL     1     100.559 125.334  81.464  0.00  0.00    +0.000 HD
ENDROOT
BRANCH   1  17
ATOM     16  C   UNL     1     105.274 130.097  83.090  0.00  0.00    +0.000 C 
ATOM     17  O   UNL     1     104.795 129.109  84.007  0.00  0.00    +0.000 OA
ENDBRANCH   1  17
TORSDOF 1
ENDMDL
