MODEL 1
REMARK VINA RESULT:      -4.0      0.000      0.000
REMARK  Name = *****
REMARK  3 active torsions:
REMARK  status: ('A' for Active; 'I' for Inactive)
REMARK    1  A    between atoms: C_1  and  O_2
REMARK    2  A    between atoms: O_2  and  C_3
REMARK    3  A    between atoms: C_3  and  C_5
REMARK                            x       y       z     vdW  Elec       q    Type
REMARK                         _______ _______ _______ _____ _____    ______ ____
ROOT
ATOM      1  C   UNL     1     100.251 126.997  82.683  0.00  0.00    +0.000 A 
ATOM      2  C   UNL     1     101.213 127.931  83.028  0.00  0.00    +0.000 A 
ATOM      3  C   UNL     1     102.453 127.529  82.461  0.00  0.00    +0.000 A 
ATOM      4  C   UNL     1     102.220 126.340  81.771  0.00  0.00    +0.000 A 
ATOM      5  N   UNL     1     100.886 126.042  81.921  0.00  0.00    +0.000 N 
ATOM      6  C   UNL     1     103.229 125.656  81.082  0.00  0.00    +0.000 A 
ATOM      7  C   UNL     1     104.511 126.211  81.107  0.00  0.00    +0.000 A 
ATOM      8  C   UNL     1     104.777 127.397  81.787  0.00  0.00    +0.000 A 
ATOM      9  C   UNL     1     103.754 128.067  82.471  0.00  0.00    +0.000 A 
ATOM     10 CL   UNL     1     105.790 125.409  80.276  0.00  0.00    +0.000 Cl
ATOM     11  H   UNL     1     100.444 125.251  81.536  0.00  0.00    +0.000 HD
ENDROOT
BRANCH   1  12
ATOM     12  C   UNL     1      98.845 126.920  82.990  0.00  0.00    +0.000 C 
ATOM     13  O   UNL     1      97.951 127.052  82.164  0.00  0.00    +0.000 OA
BRANCH  12  15
ATOM     14  C   UNL     1      97.980 127.729  85.006  0.00  0.00    +0.000 C 
ATOM     15  O   UNL     1      98.664 126.682  84.317  0.00  0.00    +0.000 OA
ENDBRANCH  12  15
ENDBRANCH   1  12
TORSDOF 2
ENDMDL
