MODEL 1
REMARK VINA RESULT:      -4.0      0.000      0.000
REMARK  Name = *****
REMARK  2 active torsions:
REMARK  status: ('A' for Active; 'I' for Inactive)
REMARK    1  A    between atoms: C_1  and  O_2
REMARK    2  A    between atoms: O_2  and  C_3
REMARK                            x       y       z     vdW  Elec       q    Type
REMARK                         _______ _______ _______ _____ _____    ______ ____
ROOT
ATOM      1  C   UNL     1      89.117  70.301  86.187  0.00  0.00    +0.000 A 
ATOM      2  C   UNL     1      87.962  70.857  85.627  0.00  0.00    +0.000 A 
ATOM      3  C   UNL     1      86.892  71.278  86.433  0.00  0.00    +0.000 A 
ATOM      4  C   UNL     1      85.729  71.836  85.876  0.00  0.00    +0.000 A 
ATOM      5  C   UNL     1      84.674  72.249  86.691  0.00  0.00    +0.000 A 
ATOM      6  C   UNL     1      84.767  72.109  88.073  0.00  0.00    +0.000 A 
ATOM      7  C   UNL     1      85.916  71.556  88.642  0.00  0.00    +0.000 A 
ATOM      8  C   UNL     1      86.985  71.136  87.834  0.00  0.00    +0.000 A 
ATOM      9  C   UNL     1      88.148  70.578  88.387  0.00  0.00    +0.000 A 
ATOM     10  C   UNL     1      89.206  70.163  87.570  0.00  0.00    +0.000 A 
ENDROOT
BRANCH   1  12
ATOM     11  C   UNL     1      90.517  70.942  84.375  0.00  0.00    +0.000 C 
ATOM     12  O   UNL     1      90.074  69.938  85.280  0.00  0.00    +0.000 OA
ENDBRANCH   1  12
TORSDOF 1
ENDMDL
