REMARK  Name = *****
REMARK  1 active torsions:
REMARK  status: ('A' for Active; 'I' for Inactive)
REMARK    1  A    between atoms: C_1  and  C_2
REMARK                            x       y       z     vdW  Elec       q    Type
REMARK                         _______ _______ _______ _____ _____    ______ ____
ROOT
ATOM      1  C   UNL     1       1.226   0.034   0.170  0.00  0.00    +0.000 C 
ATOM      2  C   UNL     1       2.655  -0.101  -0.204  0.00  0.00    +0.000 A 
ATOM      3  C   UNL     1       3.439  -1.221  -0.393  0.00  0.00    +0.000 A 
ATOM      4  C   UNL     1       4.747  -0.788  -0.746  0.00  0.00    +0.000 A 
ATOM      5  C   UNL     1       5.949  -1.454  -1.054  0.00  0.00    +0.000 A 
ATOM      6  C   UNL     1       7.083  -0.696  -1.367  0.00  0.00    +0.000 A 
ATOM      7  C   UNL     1       7.046   0.696  -1.379  0.00  0.00    +0.000 A 
ATOM      8  C   UNL     1       5.861   1.365  -1.076  0.00  0.00    +0.000 A 
ATOM      9  C   UNL     1       4.727   0.606  -0.763  0.00  0.00    +0.000 A 
ATOM     10  N   UNL     1       3.448   0.996  -0.430  0.00  0.00    +0.000 N 
ATOM     11 CL   UNL     1       5.801   3.083  -1.087  0.00  0.00    +0.000 Cl
ATOM     12 CL   UNL     1       8.557  -1.505  -1.746  0.00  0.00    +0.000 Cl
ATOM     13  H   UNL     1       3.146   1.931  -0.364  0.00  0.00    +0.000 HD
ENDROOT
TORSDOF 0
