MODEL 1
REMARK VINA RESULT:      -3.9      0.000      0.000
REMARK  Name = *****
REMARK  0 active torsions:
REMARK  status: ('A' for Active; 'I' for Inactive)
REMARK                            x       y       z     vdW  Elec       q    Type
REMARK                         _______ _______ _______ _____ _____    ______ ____
ROOT
ATOM      1  C   UNL     1     102.675 128.957  83.471  0.00  0.00    +0.000 A 
ATOM      2  C   UNL     1     103.885 128.735  82.816  0.00  0.00    +0.000 A 
ATOM      3  C   UNL     1     104.027 127.685  81.907  0.00  0.00    +0.000 A 
ATOM      4  C   UNL     1     102.944 126.843  81.648  0.00  0.00    +0.000 A 
ATOM      5  C   UNL     1     101.718 127.052  82.288  0.00  0.00    +0.000 A 
ATOM      6  C   UNL     1     101.606 128.107  83.205  0.00  0.00    +0.000 A 
ATOM      7  S   UNL     1      99.988 128.285  83.908  0.00  0.00    +0.000 S 
ATOM      8  S   UNL     1      99.217 126.675  82.957  0.00  0.00    +0.000 S 
ATOM      9  O   UNL     1      98.277 127.339  82.000  0.00  0.00    +0.000 OA
ATOM     10  N   UNL     1     100.598 126.203  82.133  0.00  0.00    +0.000 N 
ATOM     11 CL   UNL     1     103.143 125.550  80.523  0.00  0.00    +0.000 Cl
ATOM     12 CL   UNL     1     105.222 129.772  83.130  0.00  0.00    +0.000 Cl
ATOM     13  H   UNL     1     100.627 125.390  81.579  0.00  0.00    +0.000 HD
ENDROOT
TORSDOF 0
ENDMDL
