MODEL 1
REMARK VINA RESULT:      -3.9      0.000      0.000
REMARK  Name = *****
REMARK  3 active torsions:
REMARK  status: ('A' for Active; 'I' for Inactive)
REMARK    1  A    between atoms: C_1  and  C_2
REMARK    2  A    between atoms: C_3  and  N_4
REMARK    3  A    between atoms: N_4  and  C_5
REMARK                            x       y       z     vdW  Elec       q    Type
REMARK                         _______ _______ _______ _____ _____    ______ ____
ROOT
ATOM      1  C   UNL     1     102.689 126.461  81.623  0.00  0.00    +0.000 A 
ATOM      2  C   UNL     1     102.988 125.145  81.905  0.00  0.00    +0.000 A 
ATOM      3  C   UNL     1     104.032 124.602  81.087  0.00  0.00    +0.000 A 
ATOM      4  C   UNL     1     104.605 123.307  81.062  0.00  0.00    +0.000 A 
ATOM      5  C   UNL     1     105.631 123.005  80.162  0.00  0.00    +0.000 A 
ATOM      6  C   UNL     1     106.100 123.973  79.284  0.00  0.00    +0.000 A 
ATOM      7  C   UNL     1     105.557 125.260  79.289  0.00  0.00    +0.000 A 
ATOM      8  C   UNL     1     104.522 125.559  80.198  0.00  0.00    +0.000 A 
ATOM      9  S   UNL     1     103.713 127.065  80.390  0.00  0.00    +0.000 S 
ENDROOT
BRANCH   1  10
ATOM     10  N   UNL     1     101.770 127.266  82.219  0.00  0.00    +0.000 NA
BRANCH  10  13
ATOM     11  C   UNL     1      98.263 126.740  82.912  0.00  0.00    +0.000 C 
ATOM     12  C   UNL     1      99.384 127.376  82.558  0.00  0.00    +0.000 C 
ATOM     13  C   UNL     1     100.679 126.665  82.565  0.00  0.00    +0.000 C 
ENDBRANCH  10  13
ENDBRANCH   1  10
TORSDOF 2
ENDMDL
