MODEL 1
REMARK VINA RESULT:      -4.0      0.000      0.000
REMARK  Name = *****
REMARK  2 active torsions:
REMARK  status: ('A' for Active; 'I' for Inactive)
REMARK    1  A    between atoms: C_1  and  O_2
REMARK    2  A    between atoms: O_2  and  C_3
REMARK                            x       y       z     vdW  Elec       q    Type
REMARK                         _______ _______ _______ _____ _____    ______ ____
ROOT
ATOM      1  C   UNL     1      89.114  70.262  86.174  0.00  0.00    +0.000 A 
ATOM      2  C   UNL     1      87.966  70.820  85.604  0.00  0.00    +0.000 A 
ATOM      3  C   UNL     1      86.895  71.258  86.399  0.00  0.00    +0.000 A 
ATOM      4  C   UNL     1      86.982  71.131  87.804  0.00  0.00    +0.000 A 
ATOM      5  C   UNL     1      88.138  70.571  88.367  0.00  0.00    +0.000 A 
ATOM      6  C   UNL     1      89.197  70.139  87.559  0.00  0.00    +0.000 A 
ATOM      7  C   UNL     1      85.912  71.566  88.604  0.00  0.00    +0.000 A 
ATOM      8  C   UNL     1      84.773  72.119  88.018  0.00  0.00    +0.000 A 
ATOM      9  C   UNL     1      84.683  72.248  86.634  0.00  0.00    +0.000 A 
ATOM     10  C   UNL     1      85.740  71.818  85.829  0.00  0.00    +0.000 A 
ATOM     11  I   UNL     1      83.200  72.758  89.218  0.00  0.00    +0.000 I 
ENDROOT
BRANCH   1  13
ATOM     12  C   UNL     1      90.492  70.857  84.329  0.00  0.00    +0.000 C 
ATOM     13  O   UNL     1      90.072  69.882  85.274  0.00  0.00    +0.000 OA
ENDBRANCH   1  13
TORSDOF 1
ENDMDL
