REMARK  Name = *****
REMARK  2 active torsions:
REMARK  status: ('A' for Active; 'I' for Inactive)
REMARK    1  A    between atoms: C_1  and  O_2
REMARK    2  A    between atoms: O_2  and  N_3
REMARK                            x       y       z     vdW  Elec       q    Type
REMARK                         _______ _______ _______ _____ _____    ______ ____
ROOT
ATOM      1  N   UNL     1       3.387  -0.742  -1.111  0.00  0.00    +0.000 NA
ATOM      2  C   UNL     1       4.677  -0.689  -1.027  0.00  0.00    +0.000 C 
ATOM      3  C   UNL     1       5.588  -1.285  -2.001  0.00  0.00    +0.000 A 
ATOM      4  C   UNL     1       6.884  -1.018  -1.566  0.00  0.00    +0.000 A 
ATOM      5  C   UNL     1       7.984  -1.458  -2.285  0.00  0.00    +0.000 A 
ATOM      6  C   UNL     1       7.741  -2.181  -3.465  0.00  0.00    +0.000 A 
ATOM      7  C   UNL     1       6.420  -2.444  -3.894  0.00  0.00    +0.000 A 
ATOM      8  C   UNL     1       5.322  -1.993  -3.156  0.00  0.00    +0.000 A 
ATOM      9 CL   UNL     1       9.028  -2.783  -4.451  0.00  0.00    +0.000 Cl
ATOM     10 CL   UNL     1       9.572  -1.106  -1.712  0.00  0.00    +0.000 Cl
ATOM     11  N   UNL     1       6.865  -0.289  -0.375  0.00  0.00    +0.000 N 
ATOM     12  C   UNL     1       5.574  -0.034   0.042  0.00  0.00    +0.000 C 
ATOM     13  O   UNL     1       5.234   0.572   1.032  0.00  0.00    +0.000 OA
ATOM     14  H   UNL     1       7.672   0.007   0.106  0.00  0.00    +0.000 HD
ENDROOT
BRANCH   1  16
ATOM     15  C   UNL     1       1.380  -0.164  -0.164  0.00  0.00    +0.000 C 
ATOM     16  O   UNL     1       2.793  -0.081  -0.031  0.00  0.00    +0.000 OA
ENDBRANCH   1  16
TORSDOF 1
