MODEL 1
REMARK VINA RESULT:      -4.2      0.000      0.000
REMARK  Name = *****
REMARK  0 active torsions:
REMARK  status: ('A' for Active; 'I' for Inactive)
REMARK                            x       y       z     vdW  Elec       q    Type
REMARK                         _______ _______ _______ _____ _____    ______ ____
ROOT
ATOM      1  C   UNL     1     102.631 125.704  81.640  0.00  0.00    +0.000 A 
ATOM      2  C   UNL     1     103.972 126.074  81.760  0.00  0.00    +0.000 A 
ATOM      3  C   UNL     1     104.324 127.264  82.407  0.00  0.00    +0.000 A 
ATOM      4  C   UNL     1     103.329 128.095  82.941  0.00  0.00    +0.000 A 
ATOM      5  C   UNL     1     101.980 127.721  82.819  0.00  0.00    +0.000 A 
ATOM      6  C   UNL     1     101.639 126.528  82.170  0.00  0.00    +0.000 A 
ATOM      7  N   UNL     1     100.300 126.153  82.049  0.00  0.00    +0.000 N 
ATOM      8  C   UNL     1      99.252 126.900  82.539  0.00  0.00    +0.000 A 
ATOM      9  O   UNL     1      98.091 126.537  82.413  0.00  0.00    +0.000 OA
ATOM     10  C   UNL     1      99.618 128.222  83.257  0.00  0.00    +0.000 A 
ATOM     11  O   UNL     1      98.757 128.954  83.725  0.00  0.00    +0.000 OA
ATOM     12  N   UNL     1     100.956 128.529  83.341  0.00  0.00    +0.000 N 
ATOM     13 CL   UNL     1     103.730 129.578  83.750  0.00  0.00    +0.000 Cl
ATOM     14 CL   UNL     1     106.006 127.645  82.510  0.00  0.00    +0.000 Cl
ATOM     15  H   UNL     1     100.094 125.308  81.587  0.00  0.00    +0.000 HD
ATOM     16  H   UNL     1     101.212 129.364  83.796  0.00  0.00    +0.000 HD
ENDROOT
TORSDOF 0
ENDMDL
