MODEL 1
REMARK VINA RESULT:      -4.3      0.000      0.000
REMARK  Name = *****
REMARK  2 active torsions:
REMARK  status: ('A' for Active; 'I' for Inactive)
REMARK    1  A    between atoms: C_1  and  C_2
REMARK    2  A    between atoms: C_10  and  C_12
REMARK                            x       y       z     vdW  Elec       q    Type
REMARK                         _______ _______ _______ _____ _____    ______ ____
ROOT
ATOM      1  C   UNL     1     106.237 122.477  80.828  0.00  0.00    +0.000 C 
ATOM      2  C   UNL     1     105.275 123.634  80.794  0.00  0.00    +0.000 A 
ATOM      3  C   UNL     1     105.209 124.543  79.724  0.00  0.00    +0.000 A 
ATOM      4  C   UNL     1     104.302 125.620  79.710  0.00  0.00    +0.000 A 
ATOM      5  C   UNL     1     103.454 125.763  80.810  0.00  0.00    +0.000 A 
ATOM      6  C   UNL     1     103.473 124.896  81.897  0.00  0.00    +0.000 A 
ATOM      7  C   UNL     1     104.393 123.830  81.877  0.00  0.00    +0.000 A 
ATOM      8 CL   UNL     1     104.340 122.817  83.260  0.00  0.00    +0.000 Cl
ATOM      9  N   UNL     1     102.531 125.284  82.826  0.00  0.00    +0.000 NA
ATOM     10  C   UNL     1     101.942 126.362  82.334  0.00  0.00    +0.000 A 
ATOM     11  N   UNL     1     102.479 126.679  81.107  0.00  0.00    +0.000 N 
ATOM     12 CL   UNL     1     106.241 124.408  78.340  0.00  0.00    +0.000 Cl
ATOM     13  H   UNL     1     102.209 127.437  80.540  0.00  0.00    +0.000 HD
ENDROOT
BRANCH  10  14
ATOM     14  C   UNL     1     100.852 127.198  82.918  0.00  0.00    +0.000 C 
ATOM     15  F   UNL     1      99.706 127.186  82.196  0.00  0.00    +0.000 F 
ATOM     16  F   UNL     1     100.541 126.787  84.175  0.00  0.00    +0.000 F 
ATOM     17  F   UNL     1     101.241 128.497  83.032  0.00  0.00    +0.000 F 
ENDBRANCH  10  14
TORSDOF 1
ENDMDL
