MODEL 1
REMARK VINA RESULT:      -4.4      0.000      0.000
REMARK  Name = *****
REMARK  0 active torsions:
REMARK  status: ('A' for Active; 'I' for Inactive)
REMARK                            x       y       z     vdW  Elec       q    Type
REMARK                         _______ _______ _______ _____ _____    ______ ____
ROOT
ATOM      1  C   UNL     1     102.818 128.233  83.269  0.00  0.00    +0.000 A 
ATOM      2  C   UNL     1     103.008 129.425  83.964  0.00  0.00    +0.000 A 
ATOM      3  C   UNL     1     101.918 130.164  84.423  0.00  0.00    +0.000 A 
ATOM      4  C   UNL     1     100.622 129.704  84.183  0.00  0.00    +0.000 A 
ATOM      5  C   UNL     1     100.414 128.508  83.487  0.00  0.00    +0.000 A 
ATOM      6  C   UNL     1     101.516 127.782  83.035  0.00  0.00    +0.000 A 
ATOM      7  C   UNL     1     101.275 126.524  82.302  0.00  0.00    +0.000 A 
ATOM      8  O   UNL     1     102.202 125.843  81.882  0.00  0.00    +0.000 OA
ATOM      9  N   UNL     1      99.961 126.170  82.124  0.00  0.00    +0.000 N 
ATOM     10  C   UNL     1      98.871 126.868  82.558  0.00  0.00    +0.000 A 
ATOM     11  O   UNL     1      97.727 126.478  82.354  0.00  0.00    +0.000 OA
ATOM     12  N   UNL     1      99.123 128.025  83.232  0.00  0.00    +0.000 N 
ATOM     13 CL   UNL     1      99.291 130.640  84.764  0.00  0.00    +0.000 Cl
ATOM     14 CL   UNL     1     104.605 129.992  84.259  0.00  0.00    +0.000 Cl
ATOM     15  H   UNL     1      99.788 125.332  81.637  0.00  0.00    +0.000 HD
ATOM     16  H   UNL     1      98.357 128.551  83.558  0.00  0.00    +0.000 HD
ENDROOT
TORSDOF 0
ENDMDL
