REMARK  Name = *****
REMARK  0 active torsions:
REMARK  status: ('A' for Active; 'I' for Inactive)
REMARK                            x       y       z     vdW  Elec       q    Type
REMARK                         _______ _______ _______ _____ _____    ______ ____
ROOT
ATOM      1  C   UNL     1      -2.435   0.659  -0.010  0.00  0.00    +0.000 A 
ATOM      2  C   UNL     1      -1.232   1.366  -0.003  0.00  0.00    +0.000 A 
ATOM      3  C   UNL     1      -0.026   0.666   0.010  0.00  0.00    +0.000 A 
ATOM      4  C   UNL     1      -0.009  -0.737   0.015  0.00  0.00    +0.000 A 
ATOM      5  C   UNL     1      -1.217  -1.439   0.009  0.00  0.00    +0.000 A 
ATOM      6  C   UNL     1      -2.423  -0.737  -0.004  0.00  0.00    +0.000 A 
ATOM      7 CL   UNL     1      -3.911  -1.601  -0.013  0.00  0.00    +0.000 Cl
ATOM      8  C   UNL     1       1.279  -1.433   0.027  0.00  0.00    +0.000 A 
ATOM      9  C   UNL     1       2.424  -0.736   0.032  0.00  0.00    +0.000 A 
ATOM     10  C   UNL     1       2.419   0.761   0.027  0.00  0.00    +0.000 A 
ATOM     11  O   UNL     1       3.445   1.434   0.031  0.00  0.00    +0.000 OA
ATOM     12  N   UNL     1       1.186   1.367   0.016  0.00  0.00    +0.000 N 
ATOM     13 CL   UNL     1       3.947  -1.541   0.045  0.00  0.00    +0.000 Cl
ATOM     14  H   UNL     1       1.152   2.351   0.012  0.00  0.00    +0.000 HD
ENDROOT
TORSDOF 0
