MODEL 1
REMARK VINA RESULT:      -4.2      0.000      0.000
REMARK  Name = *****
REMARK  2 active torsions:
REMARK  status: ('A' for Active; 'I' for Inactive)
REMARK    1  A    between atoms: C_1  and  C_2
REMARK    2  A    between atoms: N_3  and  C_4
REMARK                            x       y       z     vdW  Elec       q    Type
REMARK                         _______ _______ _______ _____ _____    ______ ____
ROOT
ATOM      1  C   UNL     1      89.013  70.415  86.095  0.00  0.00    +0.000 A 
ATOM      2  C   UNL     1      87.786  70.945  85.690  0.00  0.00    +0.000 A 
ATOM      3  C   UNL     1      86.806  71.304  86.632  0.00  0.00    +0.000 A 
ATOM      4  C   UNL     1      85.566  71.830  86.235  0.00  0.00    +0.000 A 
ATOM      5  C   UNL     1      84.604  72.181  87.183  0.00  0.00    +0.000 A 
ATOM      6  C   UNL     1      84.869  72.013  88.539  0.00  0.00    +0.000 A 
ATOM      7  C   UNL     1      86.098  71.494  88.950  0.00  0.00    +0.000 A 
ATOM      8  C   UNL     1      87.076  71.135  88.010  0.00  0.00    +0.000 A 
ATOM      9  C   UNL     1      88.319  70.619  88.407  0.00  0.00    +0.000 A 
ATOM     10  C   UNL     1      89.280  70.267  87.456  0.00  0.00    +0.000 A 
ENDROOT
BRANCH   1  13
ATOM     11  C   UNL     1      91.171  70.668  83.114  0.00  0.00    +0.000 C 
ATOM     12  C   UNL     1      90.164  70.925  84.191  0.00  0.00    +0.000 C 
ATOM     13  N   UNL     1      89.982  70.069  85.143  0.00  0.00    +0.000 NA
ENDBRANCH   1  13
TORSDOF 1
ENDMDL
