MODEL 1
REMARK VINA RESULT:      -4.4      0.000      0.000
REMARK  Name = *****
REMARK  0 active torsions:
REMARK  status: ('A' for Active; 'I' for Inactive)
REMARK                            x       y       z     vdW  Elec       q    Type
REMARK                         _______ _______ _______ _____ _____    ______ ____
ROOT
ATOM      1  C   UNL     1     102.280 125.861  81.909  0.00  0.00    +0.000 A 
ATOM      2  C   UNL     1     103.588 126.294  82.096  0.00  0.00    +0.000 A 
ATOM      3  C   UNL     1     103.848 127.508  82.727  0.00  0.00    +0.000 A 
ATOM      4  C   UNL     1     102.790 128.305  83.184  0.00  0.00    +0.000 A 
ATOM      5  C   UNL     1     101.465 127.881  83.003  0.00  0.00    +0.000 A 
ATOM      6  C   UNL     1     101.225 126.654  82.364  0.00  0.00    +0.000 A 
ATOM      7  N   UNL     1      99.917 126.201  82.167  0.00  0.00    +0.000 N 
ATOM      8  C   UNL     1      98.816 126.893  82.569  0.00  0.00    +0.000 A 
ATOM      9  O   UNL     1      97.683 126.462  82.378  0.00  0.00    +0.000 OA
ATOM     10  N   UNL     1      99.046 128.082  83.189  0.00  0.00    +0.000 N 
ATOM     11  C   UNL     1     100.272 128.650  83.447  0.00  0.00    +0.000 A 
ATOM     12  O   UNL     1     100.335 129.733  84.013  0.00  0.00    +0.000 OA
ATOM     13 CL   UNL     1     103.239 129.785  83.952  0.00  0.00    +0.000 Cl
ATOM     14 CL   UNL     1     104.895 125.324  81.540  0.00  0.00    +0.000 Cl
ATOM     15  H   UNL     1      99.786 125.336  81.716  0.00  0.00    +0.000 HD
ATOM     16  H   UNL     1      98.254 128.589  83.483  0.00  0.00    +0.000 HD
ENDROOT
TORSDOF 0
ENDMDL
