MODEL 1
REMARK VINA RESULT:      -4.4      0.000      0.000
REMARK  Name = *****
REMARK  0 active torsions:
REMARK  status: ('A' for Active; 'I' for Inactive)
REMARK                            x       y       z     vdW  Elec       q    Type
REMARK                         _______ _______ _______ _____ _____    ______ ____
ROOT
ATOM      1  C   UNL     1     100.485 128.601  83.557  0.00  0.00    +0.000 A 
ATOM      2  C   UNL     1      99.216 128.246  83.317  0.00  0.00    +0.000 A 
ATOM      3  C   UNL     1      98.889 127.021  82.558  0.00  0.00    +0.000 A 
ATOM      4  O   UNL     1      97.725 126.702  82.342  0.00  0.00    +0.000 OA
ATOM      5  N   UNL     1      99.947 126.276  82.120  0.00  0.00    +0.000 N 
ATOM      6  C   UNL     1     101.289 126.614  82.349  0.00  0.00    +0.000 A 
ATOM      7  C   UNL     1     101.609 127.782  83.073  0.00  0.00    +0.000 A 
ATOM      8  C   UNL     1     102.967 128.081  83.278  0.00  0.00    +0.000 A 
ATOM      9  C   UNL     1     103.968 127.236  82.774  0.00  0.00    +0.000 A 
ATOM     10  C   UNL     1     103.620 126.088  82.063  0.00  0.00    +0.000 A 
ATOM     11  C   UNL     1     102.283 125.770  81.846  0.00  0.00    +0.000 A 
ATOM     12  I   UNL     1     105.110 124.843  81.320  0.00  0.00    +0.000 I 
ATOM     13  I   UNL     1     103.641 129.776  84.330  0.00  0.00    +0.000 I 
ATOM     14  H   UNL     1      99.757 125.454  81.612  0.00  0.00    +0.000 HD
ENDROOT
TORSDOF 0
ENDMDL
