MODEL 1
REMARK VINA RESULT:      -4.0      0.000      0.000
REMARK  Name = *****
REMARK  0 active torsions:
REMARK  status: ('A' for Active; 'I' for Inactive)
REMARK                            x       y       z     vdW  Elec       q    Type
REMARK                         _______ _______ _______ _____ _____    ______ ____
ROOT
ATOM      1  C   UNL     1     101.468 128.923  83.816  0.00  0.00    +0.000 A 
ATOM      2  C   UNL     1     100.684 127.962  83.222  0.00  0.00    +0.000 A 
ATOM      3  C   UNL     1     101.228 126.977  82.427  0.00  0.00    +0.000 A 
ATOM      4  C   UNL     1     102.583 126.886  82.171  0.00  0.00    +0.000 A 
ATOM      5  C   UNL     1     103.416 127.854  82.761  0.00  0.00    +0.000 A 
ATOM      6  C   UNL     1     102.849 128.866  83.580  0.00  0.00    +0.000 A 
ATOM      7 CL   UNL     1     103.817 130.088  84.337  0.00  0.00    +0.000 Cl
ATOM      8 CL   UNL     1     105.131 127.815  82.492  0.00  0.00    +0.000 Cl
ATOM      9 BR   UNL     1     103.218 125.487  81.060  0.00  0.00    +0.000 Br
ATOM     10  N   UNL     1     100.173 126.210  82.012  0.00  0.00    +0.000 N 
ATOM     11  C   UNL     1      99.023 126.733  82.554  0.00  0.00    +0.000 A 
ATOM     12  O   UNL     1      97.900 126.285  82.382  0.00  0.00    +0.000 OA
ATOM     13  O   UNL     1      99.307 127.858  83.337  0.00  0.00    +0.000 OA
ATOM     14  H   UNL     1     100.227 125.420  81.427  0.00  0.00    +0.000 HD
ENDROOT
TORSDOF 0
ENDMDL
