REMARK  Name = *****
REMARK  1 active torsions:
REMARK  status: ('A' for Active; 'I' for Inactive)
REMARK    1  A    between atoms: C_1  and  N_2
REMARK                            x       y       z     vdW  Elec       q    Type
REMARK                         _______ _______ _______ _____ _____    ______ ____
ROOT
ATOM      1  C   UNL     1       1.246  -0.026  -0.076  0.00  0.00    +0.000 C 
ATOM      2  N   UNL     1       2.681   0.005  -0.075  0.00  0.00    +0.000 N 
ATOM      3  C   UNL     1       3.551   1.125  -0.076  0.00  0.00    +0.000 A 
ATOM      4  C   UNL     1       4.882   0.679  -0.077  0.00  0.00    +0.000 A 
ATOM      5  C   UNL     1       5.992   1.505  -0.078  0.00  0.00    +0.000 A 
ATOM      6  C   UNL     1       5.752   2.871  -0.079  0.00  0.00    +0.000 A 
ATOM      7  C   UNL     1       4.440   3.368  -0.078  0.00  0.00    +0.000 A 
ATOM      8  C   UNL     1       3.331   2.499  -0.077  0.00  0.00    +0.000 A 
ATOM      9 CL   UNL     1       1.784   3.250  -0.076  0.00  0.00    +0.000 Cl
ATOM     10 BR   UNL     1       7.206   4.077  -0.081  0.00  0.00    +0.000 Br
ATOM     11  C   UNL     1       4.878  -0.781  -0.076  0.00  0.00    +0.000 C 
ATOM     12  O   UNL     1       5.843  -1.509  -0.075  0.00  0.00    +0.000 OA
ATOM     13  C   UNL     1       3.396  -1.189  -0.075  0.00  0.00    +0.000 C 
ATOM     14  O   UNL     1       2.987  -2.330  -0.075  0.00  0.00    +0.000 OA
ENDROOT
TORSDOF 0
