MODEL 1
REMARK VINA RESULT:      -4.3      0.000      0.000
REMARK  Name = *****
REMARK  0 active torsions:
REMARK  status: ('A' for Active; 'I' for Inactive)
REMARK                            x       y       z     vdW  Elec       q    Type
REMARK                         _______ _______ _______ _____ _____    ______ ____
ROOT
ATOM      1  C   UNL     1      85.659  71.830  85.851  0.00  0.00    +0.000 A 
ATOM      2  C   UNL     1      84.687  72.239  86.696  0.00  0.00    +0.000 A 
ATOM      3  C   UNL     1      84.746  72.161  88.135  0.00  0.00    +0.000 A 
ATOM      4  C   UNL     1      85.142  71.938  89.389  0.00  0.00    +0.000 C 
ATOM      5  C   UNL     1      86.057  71.555  88.516  0.00  0.00    +0.000 A 
ATOM      6  C   UNL     1      87.086  71.116  87.821  0.00  0.00    +0.000 A 
ATOM      7  C   UNL     1      86.902  71.249  86.368  0.00  0.00    +0.000 A 
ATOM      8  C   UNL     1      87.887  70.830  85.556  0.00  0.00    +0.000 C 
ATOM      9  C   UNL     1      89.136  70.245  86.113  0.00  0.00    +0.000 C 
ATOM     10  O   UNL     1      90.035  69.862  85.374  0.00  0.00    +0.000 OA
ATOM     11  C   UNL     1      89.269  70.138  87.592  0.00  0.00    +0.000 C 
ATOM     12  C   UNL     1      88.283  70.556  88.397  0.00  0.00    +0.000 C 
ENDROOT
TORSDOF 0
ENDMDL
