MODEL 1
REMARK VINA RESULT:      -3.6      0.000      0.000
REMARK  Name = *****
REMARK  0 active torsions:
REMARK  status: ('A' for Active; 'I' for Inactive)
REMARK                            x       y       z     vdW  Elec       q    Type
REMARK                         _______ _______ _______ _____ _____    ______ ____
ROOT
ATOM      1  C   UNL     1      84.785  72.200  86.773  0.00  0.00    +0.000 A 
ATOM      2  C   UNL     1      85.529  71.736  87.879  0.00  0.00    +0.000 A 
ATOM      3  C   UNL     1      86.762  71.199  87.493  0.00  0.00    +0.000 A 
ATOM      4  C   UNL     1      87.688  70.675  88.359  0.00  0.00    +0.000 A 
ATOM      5  S   UNL     1      89.081  70.106  87.560  0.00  0.00    +0.000 S 
ATOM      6  C   UNL     1      88.464  70.555  86.037  0.00  0.00    +0.000 A 
ATOM      7  C   UNL     1      87.220  71.129  86.122  0.00  0.00    +0.000 A 
ATOM      8  C   UNL     1      86.482  71.589  85.026  0.00  0.00    +0.000 A 
ATOM      9  C   UNL     1      85.238  72.131  85.417  0.00  0.00    +0.000 A 
ATOM     10 CL   UNL     1      89.424  70.252  84.641  0.00  0.00    +0.000 Cl
ATOM     11 CL   UNL     1      87.609  70.530  90.072  0.00  0.00    +0.000 Cl
ENDROOT
TORSDOF 0
ENDMDL
