MODEL 1
REMARK VINA RESULT:      -4.3      0.000      0.000
REMARK  Name = *****
REMARK  5 active torsions:
REMARK  status: ('A' for Active; 'I' for Inactive)
REMARK    1  A    between atoms: C_1  and  C_2
REMARK    2  A    between atoms: C_6  and  C_7
REMARK    3  A    between atoms: C_6  and  C_8
REMARK    4  A    between atoms: C_11  and  O_13
REMARK    5  A    between atoms: O_13  and  C_14
REMARK                            x       y       z     vdW  Elec       q    Type
REMARK                         _______ _______ _______ _____ _____    ______ ____
ROOT
ATOM      1  C   UNL     1      88.069  70.864  85.622  0.00  0.00    +0.000 C 
ATOM      2  C   UNL     1      88.463  70.347  87.005  0.00  0.00    +0.000 C 
ATOM      3  C   UNL     1      88.789  68.876  86.931  0.00  0.00    +0.000 A 
ATOM      4  C   UNL     1      87.767  68.099  87.482  0.00  0.00    +0.000 A 
ATOM      5  C   UNL     1      86.646  68.956  87.982  0.00  0.00    +0.000 C 
ATOM      6  C   UNL     1      87.319  70.355  88.082  0.00  0.00    +0.000 C 
ATOM      7  C   UNL     1      87.940  70.531  89.489  0.00  0.00    +0.000 C 
ATOM      8  C   UNL     1      86.278  71.465  87.885  0.00  0.00    +0.000 C 
ATOM      9  C   UNL     1      87.848  66.718  87.487  0.00  0.00    +0.000 A 
ATOM     10  C   UNL     1      88.985  66.110  86.943  0.00  0.00    +0.000 A 
ATOM     11  C   UNL     1      90.020  66.885  86.394  0.00  0.00    +0.000 A 
ATOM     12  C   UNL     1      89.917  68.280  86.388  0.00  0.00    +0.000 A 
ENDROOT
BRANCH  11  13
ATOM     13  O   UNL     1      91.173  66.400  85.835  0.00  0.00    +0.000 OA
ATOM     14  C   UNL     1      91.108  65.106  85.251  0.00  0.00    +0.000 C 
ENDBRANCH  11  13
TORSDOF 1
ENDMDL
