REMARK  Name = *****
REMARK  2 active torsions:
REMARK  status: ('A' for Active; 'I' for Inactive)
REMARK    1  A    between atoms: C_6  and  O_11
REMARK    2  A    between atoms: O_11  and  C_12
REMARK                            x       y       z     vdW  Elec       q    Type
REMARK                         _______ _______ _______ _____ _____    ______ ____
ROOT
ATOM      1  C   UNL     1       2.430  -0.679  -0.091  0.00  0.00    +0.000 A 
ATOM      2  C   UNL     1       2.422   0.712  -0.107  0.00  0.00    +0.000 A 
ATOM      3  C   UNL     1       1.211   1.403  -0.040  0.00  0.00    +0.000 A 
ATOM      4  C   UNL     1      -0.007   0.710   0.045  0.00  0.00    +0.000 A 
ATOM      5  C   UNL     1      -1.235   1.389   0.116  0.00  0.00    +0.000 A 
ATOM      6  C   UNL     1      -2.446   0.694   0.205  0.00  0.00    +0.000 A 
ATOM      7  C   UNL     1      -2.434  -0.699   0.217  0.00  0.00    +0.000 A 
ATOM      8  C   UNL     1      -1.219  -1.391   0.145  0.00  0.00    +0.000 A 
ATOM      9  C   UNL     1       0.001  -0.702   0.061  0.00  0.00    +0.000 A 
ATOM     10  C   UNL     1       1.227  -1.383  -0.008  0.00  0.00    +0.000 A 
ENDROOT
BRANCH   6  11
ATOM     11  O   UNL     1      -3.554   1.492   0.271  0.00  0.00    +0.000 OA
BRANCH  11  12
ATOM     12  C   UNL     1      -4.801   0.838   0.446  0.00  0.00    +0.000 C 
ATOM     13  F   UNL     1      -5.746   1.814   0.529  0.00  0.00    +0.000 F 
ENDBRANCH  11  12
ENDBRANCH   6  11
TORSDOF 2
