REMARK  Name = *****
REMARK  5 active torsions:
REMARK  status: ('A' for Active; 'I' for Inactive)
REMARK    1  A    between atoms: C_1  and  C_2
REMARK    2  A    between atoms: C_5  and  O_14
REMARK    3  A    between atoms: C_9  and  O_12
REMARK    4  A    between atoms: O_12  and  C_13
REMARK    5  A    between atoms: O_14  and  C_15
REMARK                            x       y       z     vdW  Elec       q    Type
REMARK                         _______ _______ _______ _____ _____    ______ ____
ROOT
ATOM      1  C   UNL     1       1.829  -2.315   0.029  0.00  0.00    +0.000 C 
ATOM      2  C   UNL     1       1.403  -0.869   0.022  0.00  0.00    +0.000 A 
ATOM      3  C   UNL     1       0.036  -0.487  -0.018  0.00  0.00    +0.000 A 
ATOM      4  C   UNL     1      -1.021  -1.433  -0.054  0.00  0.00    +0.000 A 
ATOM      5  C   UNL     1      -2.362  -1.046  -0.093  0.00  0.00    +0.000 A 
ATOM      6  C   UNL     1      -2.671   0.308  -0.098  0.00  0.00    +0.000 A 
ATOM      7  C   UNL     1      -1.655   1.262  -0.063  0.00  0.00    +0.000 A 
ATOM      8  C   UNL     1      -0.293   0.896  -0.023  0.00  0.00    +0.000 A 
ATOM      9  C   UNL     1       0.739   1.868   0.012  0.00  0.00    +0.000 A 
ATOM     10  C   UNL     1       2.075   1.467   0.052  0.00  0.00    +0.000 A 
ATOM     11  C   UNL     1       2.402   0.114   0.057  0.00  0.00    +0.000 A 
ENDROOT
BRANCH   9  12
ATOM     12  O   UNL     1       0.336   3.184   0.004  0.00  0.00    +0.000 OA
ATOM     13  C   UNL     1       1.343   4.186   0.022  0.00  0.00    +0.000 C 
ENDBRANCH   9  12
BRANCH   5  14
ATOM     14  O   UNL     1      -3.444  -1.880  -0.129  0.00  0.00    +0.000 OA
ATOM     15  C   UNL     1      -3.185  -3.278  -0.118  0.00  0.00    +0.000 C 
ENDBRANCH   5  14
TORSDOF 2
