MODEL 1
REMARK VINA RESULT:      -4.2      0.000      0.000
REMARK  Name = *****
REMARK  3 active torsions:
REMARK  status: ('A' for Active; 'I' for Inactive)
REMARK    1  A    between atoms: C_1  and  O_2
REMARK    2  A    between atoms: O_2  and  C_3
REMARK    3  A    between atoms: C_4  and  C_13
REMARK                            x       y       z     vdW  Elec       q    Type
REMARK                         _______ _______ _______ _____ _____    ______ ____
ROOT
ATOM      1  C   UNL     1      88.222  70.533  86.952  0.00  0.00    +0.000 A 
ATOM      2  C   UNL     1      87.441  70.857  88.085  0.00  0.00    +0.000 A 
ATOM      3  C   UNL     1      86.161  71.477  87.919  0.00  0.00    +0.000 A 
ATOM      4  C   UNL     1      85.293  71.813  88.988  0.00  0.00    +0.000 A 
ATOM      5  C   UNL     1      84.056  72.425  88.773  0.00  0.00    +0.000 A 
ATOM      6  C   UNL     1      83.644  72.721  87.482  0.00  0.00    +0.000 A 
ATOM      7  C   UNL     1      84.468  72.397  86.407  0.00  0.00    +0.000 A 
ATOM      8  C   UNL     1      85.715  71.779  86.610  0.00  0.00    +0.000 A 
ATOM      9  C   UNL     1      86.516  71.459  85.509  0.00  0.00    +0.000 A 
ATOM     10  C   UNL     1      87.754  70.840  85.675  0.00  0.00    +0.000 A 
ENDROOT
BRANCH   1  12
ATOM     11  C   UNL     1      89.724  68.727  86.505  0.00  0.00    +0.000 C 
ATOM     12  O   UNL     1      89.428  69.932  87.201  0.00  0.00    +0.000 OA
ENDBRANCH   1  12
BRANCH   2  13
ATOM     13  C   UNL     1      87.973  70.519  89.460  0.00  0.00    +0.000 C 
ATOM     14 CL   UNL     1      88.725  71.941  90.219  0.00  0.00    +0.000 Cl
ENDBRANCH   2  13
TORSDOF 2
ENDMDL
