MODEL 1
REMARK VINA RESULT:      -4.2      0.000      0.000
REMARK  Name = *****
REMARK  0 active torsions:
REMARK  status: ('A' for Active; 'I' for Inactive)
REMARK                            x       y       z     vdW  Elec       q    Type
REMARK                         _______ _______ _______ _____ _____    ______ ____
ROOT
ATOM      1  C   UNL     1     102.147 126.007  82.004  0.00  0.00    +0.000 A 
ATOM      2  C   UNL     1     103.331 126.641  82.387  0.00  0.00    +0.000 A 
ATOM      3  C   UNL     1     103.317 127.849  83.107  0.00  0.00    +0.000 A 
ATOM      4  C   UNL     1     102.102 128.450  83.460  0.00  0.00    +0.000 A 
ATOM      5  C   UNL     1     100.938 127.817  83.078  0.00  0.00    +0.000 A 
ATOM      6  C   UNL     1     100.961 126.618  82.363  0.00  0.00    +0.000 A 
ATOM      7  N   UNL     1      99.679 126.158  82.084  0.00  0.00    +0.000 N 
ATOM      8  C   UNL     1      98.725 127.016  82.592  0.00  0.00    +0.000 C 
ATOM      9  O   UNL     1      97.522 126.914  82.526  0.00  0.00    +0.000 OA
ATOM     10  C   UNL     1      99.523 128.159  83.275  0.00  0.00    +0.000 C 
ATOM     11  O   UNL     1      99.055 129.116  83.844  0.00  0.00    +0.000 OA
ATOM     12 CL   UNL     1     102.119 129.923  84.337  0.00  0.00    +0.000 Cl
ATOM     13 CL   UNL     1     104.841 125.927  81.968  0.00  0.00    +0.000 Cl
ATOM     14  H   UNL     1      99.478 125.331  81.591  0.00  0.00    +0.000 HD
ENDROOT
TORSDOF 0
ENDMDL
