REMARK  Name = *****
REMARK  3 active torsions:
REMARK  status: ('A' for Active; 'I' for Inactive)
REMARK    1  A    between atoms: C_1  and  C_2
REMARK    2  A    between atoms: C_2  and  C_3
REMARK    3  A    between atoms: C_2  and  N_4
REMARK                            x       y       z     vdW  Elec       q    Type
REMARK                         _______ _______ _______ _____ _____    ______ ____
ROOT
ATOM      1  N   UNL     1       3.010   1.350  -0.186  0.00  0.00    +0.000 N 
ATOM      2  C   UNL     1       4.344   1.717  -0.495  0.00  0.00    +0.000 A 
ATOM      3  C   UNL     1       4.412   3.111  -0.525  0.00  0.00    +0.000 A 
ATOM      4  C   UNL     1       5.569   3.805  -0.799  0.00  0.00    +0.000 A 
ATOM      5  C   UNL     1       6.706   3.039  -1.055  0.00  0.00    +0.000 A 
ATOM      6  C   UNL     1       6.661   1.631  -1.031  0.00  0.00    +0.000 A 
ATOM      7  C   UNL     1       5.466   0.954  -0.748  0.00  0.00    +0.000 A 
ATOM      8 CL   UNL     1       8.196   3.828  -1.408  0.00  0.00    +0.000 Cl
ATOM      9  N   UNL     1       3.151   3.616  -0.244  0.00  0.00    +0.000 N 
ATOM     10  C   UNL     1       2.262   2.549  -0.035  0.00  0.00    +0.000 A 
ATOM     11  S   UNL     1       0.662   2.800   0.311  0.00  0.00    +0.000 S 
ATOM     12  H   UNL     1       2.916   4.571  -0.197  0.00  0.00    +0.000 HD
ENDROOT
BRANCH   1  14
ATOM     13  C   UNL     1       2.032  -0.399   1.297  0.00  0.00    +0.000 C 
ATOM     14  C   UNL     1       2.568  -0.046  -0.090  0.00  0.00    +0.000 C 
ATOM     15  C   UNL     1       1.574  -0.415  -1.191  0.00  0.00    +0.000 C 
ENDBRANCH   1  14
TORSDOF 1
