MODEL 1
REMARK VINA RESULT:      -2.6      0.000      0.000
REMARK  Name = *****
REMARK  0 active torsions:
REMARK  status: ('A' for Active; 'I' for Inactive)
REMARK                            x       y       z     vdW  Elec       q    Type
REMARK                         _______ _______ _______ _____ _____    ______ ____
ROOT
ATOM      1  C   UNL     1     103.109 125.151  83.424  0.00  0.00    +0.000 C 
ATOM      2  C   UNL     1     103.899 124.200  82.550  0.00  0.00    +0.000 A 
ATOM      3  C   UNL     1     104.136 124.290  81.220  0.00  0.00    +0.000 A 
ATOM      4  C   UNL     1     103.706 125.384  80.266  0.00  0.00    +0.000 C 
ATOM      5  S   UNL     1     103.275 126.936  81.093  0.00  0.00    +0.000 S 
ATOM      6  S   UNL     1     101.972 126.210  82.494  0.00  0.00    +0.000 S 
ATOM      7  S   UNL     1     105.068 122.982  80.505  0.00  0.00    +0.000 S 
ATOM      8  C   UNL     1     105.321 122.051  81.969  0.00  0.00    +0.000 A 
ATOM      9  S   UNL     1     106.168 120.619  82.024  0.00  0.00    +0.000 S 
ATOM     10  S   UNL     1     104.579 122.801  83.370  0.00  0.00    +0.000 S 
ENDROOT
TORSDOF 0
ENDMDL
