MODEL 1
REMARK VINA RESULT:      -3.6      0.000      0.000
REMARK  Name = *****
REMARK  0 active torsions:
REMARK  status: ('A' for Active; 'I' for Inactive)
REMARK                            x       y       z     vdW  Elec       q    Type
REMARK                         _______ _______ _______ _____ _____    ______ ____
ROOT
ATOM      1  C   UNL     1     104.774 123.708  82.199  0.00  0.00    +0.000 A 
ATOM      2  C   UNL     1     103.962 124.212  83.222  0.00  0.00    +0.000 A 
ATOM      3  C   UNL     1     102.986 125.180  82.915  0.00  0.00    +0.000 A 
ATOM      4  C   UNL     1     102.858 125.610  81.588  0.00  0.00    +0.000 A 
ATOM      5  C   UNL     1     103.662 125.116  80.553  0.00  0.00    +0.000 A 
ATOM      6  C   UNL     1     104.622 124.156  80.889  0.00  0.00    +0.000 A 
ATOM      7 CL   UNL     1     105.636 123.516  79.652  0.00  0.00    +0.000 Cl
ATOM      8  N   UNL     1     101.845 126.545  81.562  0.00  0.00    +0.000 N 
ATOM      9  C   UNL     1     101.349 126.702  82.817  0.00  0.00    +0.000 A 
ATOM     10  C   UNL     1     102.017 125.885  83.685  0.00  0.00    +0.000 A 
ATOM     11 CL   UNL     1     100.083 127.809  83.043  0.00  0.00    +0.000 Cl
ATOM     12  H   UNL     1     101.532 127.023  80.760  0.00  0.00    +0.000 HD
ENDROOT
TORSDOF 0
ENDMDL
