MODEL 1
REMARK VINA RESULT:      -4.3      0.000      0.000
REMARK  Name = *****
REMARK  5 active torsions:
REMARK  status: ('A' for Active; 'I' for Inactive)
REMARK    1  A    between atoms: C_1  and  C_2
REMARK    2  A    between atoms: C_2  and  O_3
REMARK    3  A    between atoms: O_3  and  C_4
REMARK    4  A    between atoms: C_5  and  C_15
REMARK    5  A    between atoms: C_11  and  C_14
REMARK                            x       y       z     vdW  Elec       q    Type
REMARK                         _______ _______ _______ _____ _____    ______ ____
ROOT
ATOM      1  C   UNL     1      88.937  68.743  86.771  0.00  0.00    +0.000 C 
ATOM      2  C   UNL     1      88.789  70.029  86.392  0.00  0.00    +0.000 C 
ATOM      3  C   UNL     1      87.510  70.681  86.674  0.00  0.00    +0.000 C 
ATOM      4  C   UNL     1      86.877  71.418  85.741  0.00  0.00    +0.000 C 
ATOM      5  C   UNL     1      85.501  71.993  85.898  0.00  0.00    +0.000 C 
ATOM      6  C   UNL     1      84.877  71.791  87.278  0.00  0.00    +0.000 C 
ATOM      7  C   UNL     1      85.331  70.485  87.927  0.00  0.00    +0.000 C 
ATOM      8  C   UNL     1      86.876  70.381  88.038  0.00  0.00    +0.000 C 
ATOM      9  C   UNL     1      87.247  68.968  88.585  0.00  0.00    +0.000 C 
ATOM     10  C   UNL     1      87.853  68.035  87.538  0.00  0.00    +0.000 C 
ATOM     11  C   UNL     1      87.394  71.432  89.051  0.00  0.00    +0.000 C 
ATOM     12  C   UNL     1      89.864  70.817  85.698  0.00  0.00    +0.000 C 
ENDROOT
BRANCH   1  13
ATOM     13  O   UNL     1      90.116  68.053  86.573  0.00  0.00    +0.000 OA
BRANCH  13  15
ATOM     14  C   UNL     1      90.925  66.052  85.555  0.00  0.00    +0.000 C 
ATOM     15  C   UNL     1      89.881  66.645  86.483  0.00  0.00    +0.000 C 
ENDBRANCH  13  15
ENDBRANCH   1  13
TORSDOF 2
ENDMDL
