MODEL 1
REMARK VINA RESULT:      -4.4      0.000      0.000
REMARK  Name = *****
REMARK  4 active torsions:
REMARK  status: ('A' for Active; 'I' for Inactive)
REMARK    1  A    between atoms: C_1  and  C_2
REMARK    2  A    between atoms: C_8  and  C_14
REMARK    3  A    between atoms: C_9  and  O_12
REMARK    4  A    between atoms: O_12  and  C_13
REMARK                            x       y       z     vdW  Elec       q    Type
REMARK                         _______ _______ _______ _____ _____    ______ ____
ROOT
ATOM      1  C   UNL     1      82.559  73.305  86.915  0.00  0.00    +0.000 C 
ATOM      2  C   UNL     1      83.887  72.652  87.164  0.00  0.00    +0.000 A 
ATOM      3  C   UNL     1      84.709  72.279  86.096  0.00  0.00    +0.000 A 
ATOM      4  C   UNL     1      85.943  71.636  86.310  0.00  0.00    +0.000 A 
ATOM      5  C   UNL     1      86.376  71.341  87.624  0.00  0.00    +0.000 A 
ATOM      6  C   UNL     1      85.520  71.714  88.686  0.00  0.00    +0.000 A 
ATOM      7  C   UNL     1      84.297  72.353  88.461  0.00  0.00    +0.000 A 
ATOM      8  C   UNL     1      87.633  70.690  87.810  0.00  0.00    +0.000 A 
ATOM      9  C   UNL     1      88.425  70.346  86.692  0.00  0.00    +0.000 A 
ATOM     10  C   UNL     1      87.973  70.647  85.409  0.00  0.00    +0.000 A 
ATOM     11  C   UNL     1      86.747  71.285  85.221  0.00  0.00    +0.000 A 
ATOM     12  C   UNL     1      88.113  70.366  89.208  0.00  0.00    +0.000 C 
ENDROOT
BRANCH   9  13
ATOM     13  O   UNL     1      89.616  69.721  86.960  0.00  0.00    +0.000 OA
ATOM     14  C   UNL     1      89.844  68.447  86.370  0.00  0.00    +0.000 C 
ENDBRANCH   9  13
TORSDOF 1
ENDMDL
