MODEL 1
REMARK VINA RESULT:      -4.2      0.000      0.000
REMARK  Name = *****
REMARK  4 active torsions:
REMARK  status: ('A' for Active; 'I' for Inactive)
REMARK    1  A    between atoms: C_1  and  C_2
REMARK    2  A    between atoms: C_9  and  O_13
REMARK    3  A    between atoms: C_10  and  C_12
REMARK    4  A    between atoms: O_13  and  C_14
REMARK                            x       y       z     vdW  Elec       q    Type
REMARK                         _______ _______ _______ _____ _____    ______ ____
ROOT
ATOM      1  C   UNL     1      83.641  72.937  88.167  0.00  0.00    +0.000 C 
ATOM      2  C   UNL     1      84.311  72.451  86.914  0.00  0.00    +0.000 C 
ATOM      3  C   UNL     1      83.726  72.597  85.710  0.00  0.00    +0.000 C 
ATOM      4  C   UNL     1      84.350  72.126  84.431  0.00  0.00    +0.000 C 
ATOM      5  C   UNL     1      85.876  72.081  84.502  0.00  0.00    +0.000 C 
ATOM      6  C   UNL     1      86.381  71.558  85.824  0.00  0.00    +0.000 A 
ATOM      7  C   UNL     1      85.627  71.765  86.998  0.00  0.00    +0.000 A 
ATOM      8  C   UNL     1      86.157  71.318  88.216  0.00  0.00    +0.000 A 
ATOM      9  C   UNL     1      87.398  70.671  88.264  0.00  0.00    +0.000 A 
ATOM     10  C   UNL     1      88.166  70.505  87.108  0.00  0.00    +0.000 A 
ATOM     11  C   UNL     1      87.644  70.948  85.888  0.00  0.00    +0.000 A 
ATOM     12  C   UNL     1      89.518  69.853  87.166  0.00  0.00    +0.000 C 
ENDROOT
BRANCH   9  13
ATOM     13  O   UNL     1      87.920  70.253  89.462  0.00  0.00    +0.000 OA
ATOM     14  C   UNL     1      88.221  71.360  90.310  0.00  0.00    +0.000 C 
ENDBRANCH   9  13
TORSDOF 1
ENDMDL
