MODEL 1
REMARK VINA RESULT:      -4.1      0.000      0.000
REMARK  Name = *****
REMARK  3 active torsions:
REMARK  status: ('A' for Active; 'I' for Inactive)
REMARK    1  A    between atoms: C_1  and  O_2
REMARK    2  A    between atoms: O_2  and  C_3
REMARK    3  A    between atoms: C_10  and  C_13
REMARK                            x       y       z     vdW  Elec       q    Type
REMARK                         _______ _______ _______ _____ _____    ______ ____
ROOT
ATOM      1  C   UNL     1      89.119  70.256  86.182  0.00  0.00    +0.000 A 
ATOM      2  C   UNL     1      87.978  70.815  85.599  0.00  0.00    +0.000 A 
ATOM      3  C   UNL     1      86.901  71.260  86.382  0.00  0.00    +0.000 A 
ATOM      4  C   UNL     1      86.975  71.142  87.786  0.00  0.00    +0.000 A 
ATOM      5  C   UNL     1      88.125  70.583  88.364  0.00  0.00    +0.000 A 
ATOM      6  C   UNL     1      89.189  70.143  87.569  0.00  0.00    +0.000 A 
ATOM      7  C   UNL     1      85.898  71.587  88.573  0.00  0.00    +0.000 A 
ATOM      8  C   UNL     1      84.748  72.141  87.987  0.00  0.00    +0.000 A 
ATOM      9  C   UNL     1      84.693  72.264  86.595  0.00  0.00    +0.000 A 
ATOM     10  C   UNL     1      85.755  71.826  85.801  0.00  0.00    +0.000 A 
ENDROOT
BRANCH   1  12
ATOM     11  C   UNL     1      90.503  70.831  84.337  0.00  0.00    +0.000 C 
ATOM     12  O   UNL     1      90.083  69.867  85.293  0.00  0.00    +0.000 OA
ENDBRANCH   1  12
BRANCH   8  13
ATOM     13  C   UNL     1      83.611  72.620  88.844  0.00  0.00    +0.000 C 
ATOM     14 CL   UNL     1      82.515  73.653  87.906  0.00  0.00    +0.000 Cl
ENDBRANCH   8  13
TORSDOF 2
ENDMDL
