MODEL 1
REMARK VINA RESULT:      -4.0      0.000      0.000
REMARK  Name = *****
REMARK  2 active torsions:
REMARK  status: ('A' for Active; 'I' for Inactive)
REMARK    1  A    between atoms: C_1  and  O_2
REMARK    2  A    between atoms: O_2  and  C_3
REMARK                            x       y       z     vdW  Elec       q    Type
REMARK                         _______ _______ _______ _____ _____    ______ ____
ROOT
ATOM      1  C   UNL     1      89.006  70.308  86.195  0.00  0.00    +0.000 A 
ATOM      2  C   UNL     1      87.802  70.883  85.782  0.00  0.00    +0.000 A 
ATOM      3  C   UNL     1      86.808  71.282  86.715  0.00  0.00    +0.000 A 
ATOM      4  C   UNL     1      87.071  71.082  88.093  0.00  0.00    +0.000 A 
ATOM      5  C   UNL     1      86.118  71.463  89.054  0.00  0.00    +0.000 A 
ATOM      6  C   UNL     1      84.907  72.039  88.675  0.00  0.00    +0.000 A 
ATOM      7  C   UNL     1      84.632  72.243  87.329  0.00  0.00    +0.000 A 
ATOM      8  C   UNL     1      85.568  71.871  86.358  0.00  0.00    +0.000 A 
ATOM      9 CL   UNL     1      85.134  72.166  84.705  0.00  0.00    +0.000 Cl
ATOM     10  C   UNL     1      88.283  70.503  88.496  0.00  0.00    +0.000 A 
ATOM     11  C   UNL     1      89.238  70.121  87.554  0.00  0.00    +0.000 A 
ENDROOT
BRANCH   1  13
ATOM     12  C   UNL     1      90.464  70.802  84.382  0.00  0.00    +0.000 C 
ATOM     13  O   UNL     1      90.022  69.892  85.380  0.00  0.00    +0.000 OA
ENDBRANCH   1  13
TORSDOF 1
ENDMDL
