REMARK  Name = *****
REMARK  0 active torsions:
REMARK  status: ('A' for Active; 'I' for Inactive)
REMARK                            x       y       z     vdW  Elec       q    Type
REMARK                         _______ _______ _______ _____ _____    ______ ____
ROOT
ATOM      1  C   UNL     1       1.202  -1.266   0.000  0.00  0.00    +0.000 A 
ATOM      2  C   UNL     1       2.222  -0.314  -0.000  0.00  0.00    +0.000 A 
ATOM      3  C   UNL     1       1.938   1.066  -0.001  0.00  0.00    +0.000 A 
ATOM      4  C   UNL     1       0.613   1.516  -0.001  0.00  0.00    +0.000 A 
ATOM      5  C   UNL     1      -0.398   0.573   0.000  0.00  0.00    +0.000 A 
ATOM      6  C   UNL     1      -0.092  -0.786   0.001  0.00  0.00    +0.000 A 
ATOM      7  C   UNL     1      -1.362  -1.516   0.002  0.00  0.00    +0.000 C 
ATOM      8  O   UNL     1      -1.509  -2.715   0.002  0.00  0.00    +0.000 OA
ATOM      9  C   UNL     1      -2.463  -0.420   0.001  0.00  0.00    +0.000 C 
ATOM     10  O   UNL     1      -3.659  -0.601   0.002  0.00  0.00    +0.000 OA
ATOM     11  N   UNL     1      -1.778   0.778   0.001  0.00  0.00    +0.000 N 
ATOM     12 BR   UNL     1       0.241   3.365  -0.002  0.00  0.00    +0.000 Br
ATOM     13 CL   UNL     1       3.862  -0.835  -0.001  0.00  0.00    +0.000 Cl
ATOM     14  H   UNL     1      -2.208   1.664   0.000  0.00  0.00    +0.000 HD
ENDROOT
TORSDOF 0
