MODEL 1
REMARK VINA RESULT:      -4.1      0.000      0.000
REMARK  Name = *****
REMARK  1 active torsions:
REMARK  status: ('A' for Active; 'I' for Inactive)
REMARK    1  A    between atoms: C_9  and  C_13
REMARK                            x       y       z     vdW  Elec       q    Type
REMARK                         _______ _______ _______ _____ _____    ______ ____
ROOT
ATOM      1  C   UNL     1     104.118 125.979  81.731  0.00  0.00    +0.000 A 
ATOM      2  C   UNL     1     102.775 125.643  81.551  0.00  0.00    +0.000 A 
ATOM      3  C   UNL     1     101.787 126.447  82.120  0.00  0.00    +0.000 A 
ATOM      4  C   UNL     1     102.121 127.588  82.868  0.00  0.00    +0.000 A 
ATOM      5  C   UNL     1     103.467 127.914  83.039  0.00  0.00    +0.000 A 
ATOM      6  C   UNL     1     104.456 127.112  82.473  0.00  0.00    +0.000 A 
ATOM      7 CL   UNL     1     106.114 127.520  82.689  0.00  0.00    +0.000 Cl
ATOM      8  N   UNL     1     101.147 128.420  83.447  0.00  0.00    +0.000 NA
ATOM      9  C   UNL     1      99.892 128.109  83.278  0.00  0.00    +0.000 A 
ATOM     10  C   UNL     1      99.439 126.877  82.500  0.00  0.00    +0.000 A 
ATOM     11  O   UNL     1      98.254 126.595  82.403  0.00  0.00    +0.000 OA
ATOM     12  N   UNL     1     100.441 126.117  81.950  0.00  0.00    +0.000 N 
ATOM     13  H   UNL     1     100.204 125.319  81.424  0.00  0.00    +0.000 HD
ENDROOT
BRANCH   9  14
ATOM     14  C   UNL     1      98.810 128.978  83.845  0.00  0.00    +0.000 C 
ATOM     15 BR   UNL     1      99.540 130.773  83.995  0.00  0.00    +0.000 Br
ENDBRANCH   9  14
TORSDOF 1
ENDMDL
