MODEL 1
REMARK VINA RESULT:      -3.7      0.000      0.000
REMARK  Name = *****
REMARK  0 active torsions:
REMARK  status: ('A' for Active; 'I' for Inactive)
REMARK                            x       y       z     vdW  Elec       q    Type
REMARK                         _______ _______ _______ _____ _____    ______ ____
ROOT
ATOM      1  C   UNL     1      98.559 128.162  82.935  0.00  0.00    +0.000 A 
ATOM      2  C   UNL     1      99.326 129.123  83.624  0.00  0.00    +0.000 A 
ATOM      3  C   UNL     1     100.705 128.968  83.757  0.00  0.00    +0.000 A 
ATOM      4  C   UNL     1     101.272 127.845  83.190  0.00  0.00    +0.000 A 
ATOM      5  C   UNL     1     100.529 126.887  82.509  0.00  0.00    +0.000 A 
ATOM      6  C   UNL     1      99.161 127.031  82.370  0.00  0.00    +0.000 A 
ATOM      7  N   UNL     1     101.290 125.823  82.012  0.00  0.00    +0.000 N 
ATOM      8  C   UNL     1     102.651 125.881  82.269  0.00  0.00    +0.000 C 
ATOM      9  S   UNL     1     103.765 124.754  81.799  0.00  0.00    +0.000 S 
ATOM     10  S   UNL     1     102.941 127.365  83.176  0.00  0.00    +0.000 S 
ATOM     11  S   UNL     1     103.981 128.607  82.285  0.00  0.00    +0.000 S 
ATOM     12  S   UNL     1     103.568 127.095  84.894  0.00  0.00    +0.000 S 
ATOM     13  H   UNL     1     100.883 125.079  81.512  0.00  0.00    +0.000 HD
ENDROOT
TORSDOF 0
ENDMDL
