MODEL 1
REMARK VINA RESULT:      -4.1      0.000      0.000
REMARK  Name = *****
REMARK  2 active torsions:
REMARK  status: ('A' for Active; 'I' for Inactive)
REMARK    1  A    between atoms: C_1  and  O_2
REMARK    2  A    between atoms: O_2  and  C_3
REMARK                            x       y       z     vdW  Elec       q    Type
REMARK                         _______ _______ _______ _____ _____    ______ ____
ROOT
ATOM      1  C   UNL     1      98.647 127.494  82.810  0.00  0.00    +0.000 A 
ATOM      2  C   UNL     1      99.626 126.604  82.363  0.00  0.00    +0.000 A 
ATOM      3  C   UNL     1     100.993 126.895  82.523  0.00  0.00    +0.000 A 
ATOM      4  C   UNL     1     101.379 128.105  83.146  0.00  0.00    +0.000 A 
ATOM      5  C   UNL     1     100.388 128.990  83.592  0.00  0.00    +0.000 A 
ATOM      6  C   UNL     1      99.037 128.684  83.424  0.00  0.00    +0.000 A 
ATOM      7  C   UNL     1     102.744 128.397  83.306  0.00  0.00    +0.000 A 
ATOM      8  C   UNL     1     103.720 127.506  82.857  0.00  0.00    +0.000 A 
ATOM      9  C   UNL     1     103.337 126.317  82.246  0.00  0.00    +0.000 A 
ATOM     10  C   UNL     1     101.986 126.009  82.076  0.00  0.00    +0.000 A 
ATOM     11 BR   UNL     1     104.658 125.109  81.637  0.00  0.00    +0.000 Br
ENDROOT
BRANCH   1  13
ATOM     12  C   UNL     1      96.621 126.816  83.858  0.00  0.00    +0.000 C 
ATOM     13  O   UNL     1      97.293 127.322  82.711  0.00  0.00    +0.000 OA
ENDBRANCH   1  13
TORSDOF 1
ENDMDL
