MODEL 1
REMARK VINA RESULT:      -4.1      0.000      0.000
REMARK  Name = *****
REMARK  2 active torsions:
REMARK  status: ('A' for Active; 'I' for Inactive)
REMARK    1  A    between atoms: C_1  and  C_2
REMARK    2  A    between atoms: C_3  and  C_13
REMARK                            x       y       z     vdW  Elec       q    Type
REMARK                         _______ _______ _______ _____ _____    ______ ____
ROOT
ATOM      1  C   UNL     1     104.978 122.653  80.379  0.00  0.00    +0.000 C 
ATOM      2  C   UNL     1     105.084 124.115  80.121  0.00  0.00    +0.000 A 
ATOM      3  C   UNL     1     105.977 124.766  79.283  0.00  0.00    +0.000 A 
ATOM      4  N   UNL     1     105.711 126.111  79.356  0.00  0.00    +0.000 N 
ATOM      5  C   UNL     1     104.669 126.356  80.218  0.00  0.00    +0.000 A 
ATOM      6  C   UNL     1     104.254 125.122  80.714  0.00  0.00    +0.000 A 
ATOM      7  C   UNL     1     103.184 125.092  81.633  0.00  0.00    +0.000 A 
ATOM      8  C   UNL     1     102.577 126.295  82.015  0.00  0.00    +0.000 A 
ATOM      9  C   UNL     1     103.007 127.516  81.506  0.00  0.00    +0.000 A 
ATOM     10  C   UNL     1     104.063 127.560  80.598  0.00  0.00    +0.000 A 
ATOM     11 CL   UNL     1     104.605 129.062  79.963  0.00  0.00    +0.000 Cl
ATOM     12 CL   UNL     1     101.270 126.258  83.136  0.00  0.00    +0.000 Cl
ATOM     13  C   UNL     1     107.068 124.262  78.408  0.00  0.00    +0.000 C 
ATOM     14  H   UNL     1     106.200 126.806  78.857  0.00  0.00    +0.000 HD
ENDROOT
TORSDOF 0
ENDMDL
