MODEL 1
REMARK VINA RESULT:      -3.8      0.000      0.000
REMARK  Name = *****
REMARK  3 active torsions:
REMARK  status: ('A' for Active; 'I' for Inactive)
REMARK    1  A    between atoms: C_1  and  O_2
REMARK    2  A    between atoms: O_2  and  C_3
REMARK    3  A    between atoms: C_4  and  S_13
REMARK                            x       y       z     vdW  Elec       q    Type
REMARK                         _______ _______ _______ _____ _____    ______ ____
ROOT
ATOM      1  C   UNL     1      88.697  70.131  86.703  0.00  0.00    +0.000 A 
ATOM      2  C   UNL     1      87.661  70.703  85.925  0.00  0.00    +0.000 A 
ATOM      3  C   UNL     1      86.523  71.299  86.549  0.00  0.00    +0.000 A 
ATOM      4  C   UNL     1      85.437  71.889  85.853  0.00  0.00    +0.000 A 
ATOM      5  C   UNL     1      84.347  72.455  86.520  0.00  0.00    +0.000 A 
ATOM      6  C   UNL     1      84.308  72.452  87.906  0.00  0.00    +0.000 A 
ATOM      7  C   UNL     1      85.358  71.882  88.623  0.00  0.00    +0.000 A 
ATOM      8  C   UNL     1      86.459  71.307  87.964  0.00  0.00    +0.000 A 
ATOM      9  C   UNL     1      87.499  70.742  88.713  0.00  0.00    +0.000 A 
ATOM     10  C   UNL     1      88.606  70.161  88.093  0.00  0.00    +0.000 A 
ENDROOT
BRANCH   1  12
ATOM     11  C   UNL     1      89.923  68.169  86.091  0.00  0.00    +0.000 C 
ATOM     12  O   UNL     1      89.752  69.579  86.015  0.00  0.00    +0.000 OA
ENDBRANCH   1  12
BRANCH   2  13
ATOM     13  S   UNL     1      87.812  70.658  84.122  0.00  0.00    +0.000 S 
ATOM     14  H   UNL     1      88.170  71.888  83.665  0.00  0.00    +0.000 HD
ENDBRANCH   2  13
TORSDOF 2
ENDMDL
