MODEL 1
REMARK VINA RESULT:      -4.1      0.000      0.000
REMARK  Name = *****
REMARK  0 active torsions:
REMARK  status: ('A' for Active; 'I' for Inactive)
REMARK                            x       y       z     vdW  Elec       q    Type
REMARK                         _______ _______ _______ _____ _____    ______ ____
ROOT
ATOM      1  C   UNL     1      88.594  67.113  86.430  0.00  0.00    +0.000 A 
ATOM      2  C   UNL     1      87.687  67.053  87.487  0.00  0.00    +0.000 A 
ATOM      3  C   UNL     1      87.568  65.896  88.255  0.00  0.00    +0.000 A 
ATOM      4  C   UNL     1      88.366  64.790  87.959  0.00  0.00    +0.000 A 
ATOM      5  C   UNL     1      89.279  64.846  86.898  0.00  0.00    +0.000 A 
ATOM      6  C   UNL     1      89.389  65.997  86.143  0.00  0.00    +0.000 A 
ATOM      7  C   UNL     1      90.357  66.019  85.038  0.00  0.00    +0.000 A 
ATOM      8  O   UNL     1      90.469  67.034  84.357  0.00  0.00    +0.000 OA
ATOM      9  O   UNL     1      91.101  64.920  84.798  0.00  0.00    +0.000 OA
ATOM     10  C   UNL     1      90.989  63.790  85.541  0.00  0.00    +0.000 A 
ATOM     11  O   UNL     1      91.673  62.798  85.309  0.00  0.00    +0.000 OA
ATOM     12  N   UNL     1      90.090  63.772  86.567  0.00  0.00    +0.000 N 
ATOM     13 CL   UNL     1      88.207  63.366  88.919  0.00  0.00    +0.000 Cl
ATOM     14 BR   UNL     1      86.609  68.553  87.884  0.00  0.00    +0.000 Br
ATOM     15  H   UNL     1      90.014  62.949  87.104  0.00  0.00    +0.000 HD
ENDROOT
TORSDOF 0
ENDMDL
