MODEL 1
REMARK VINA RESULT:      -4.3      0.000      0.000
REMARK  Name = *****
REMARK  0 active torsions:
REMARK  status: ('A' for Active; 'I' for Inactive)
REMARK                            x       y       z     vdW  Elec       q    Type
REMARK                         _______ _______ _______ _____ _____    ______ ____
ROOT
ATOM      1  C   UNL     1     102.706 128.313  83.176  0.00  0.00    +0.000 A 
ATOM      2  C   UNL     1     101.409 127.828  82.973  0.00  0.00    +0.000 A 
ATOM      3  C   UNL     1     101.211 126.622  82.328  0.00  0.00    +0.000 A 
ATOM      4  C   UNL     1     102.293 125.874  81.869  0.00  0.00    +0.000 A 
ATOM      5  C   UNL     1     103.594 126.351  82.067  0.00  0.00    +0.000 A 
ATOM      6  C   UNL     1     103.801 127.573  82.721  0.00  0.00    +0.000 A 
ATOM      7 CL   UNL     1     105.378 128.219  82.998  0.00  0.00    +0.000 Cl
ATOM      8 CL   UNL     1     104.899 125.383  81.480  0.00  0.00    +0.000 Cl
ATOM      9  N   UNL     1      99.915 126.179  82.150  0.00  0.00    +0.000 N 
ATOM     10  C   UNL     1      98.819 126.871  82.581  0.00  0.00    +0.000 A 
ATOM     11  O   UNL     1      97.696 126.414  82.389  0.00  0.00    +0.000 OA
ATOM     12  O   UNL     1      99.004 128.057  83.214  0.00  0.00    +0.000 OA
ATOM     13  C   UNL     1     100.232 128.575  83.434  0.00  0.00    +0.000 A 
ATOM     14  O   UNL     1     100.387 129.648  84.007  0.00  0.00    +0.000 OA
ATOM     15  H   UNL     1      99.774 125.320  81.690  0.00  0.00    +0.000 HD
ENDROOT
TORSDOF 0
ENDMDL
