MODEL 1
REMARK VINA RESULT:      -4.3      0.000      0.000
REMARK  Name = *****
REMARK  0 active torsions:
REMARK  status: ('A' for Active; 'I' for Inactive)
REMARK                            x       y       z     vdW  Elec       q    Type
REMARK                         _______ _______ _______ _____ _____    ______ ____
ROOT
ATOM      1  C   UNL     1      84.783  72.149  88.180  0.00  0.00    +0.000 A 
ATOM      2  C   UNL     1      84.571  72.267  86.811  0.00  0.00    +0.000 A 
ATOM      3  C   UNL     1      85.548  71.828  85.917  0.00  0.00    +0.000 A 
ATOM      4  C   UNL     1      86.756  71.262  86.377  0.00  0.00    +0.000 A 
ATOM      5  C   UNL     1      86.959  71.147  87.763  0.00  0.00    +0.000 A 
ATOM      6  C   UNL     1      85.970  71.591  88.654  0.00  0.00    +0.000 A 
ATOM      7  C   UNL     1      88.189  70.568  88.298  0.00  0.00    +0.000 C 
ATOM      8  C   UNL     1      89.177  70.125  87.518  0.00  0.00    +0.000 C 
ATOM      9  C   UNL     1      89.085  70.194  86.041  0.00  0.00    +0.000 C 
ATOM     10  O   UNL     1      90.049  69.763  85.402  0.00  0.00    +0.000 OA
ATOM     11  C   UNL     1      87.819  70.783  85.402  0.00  0.00    +0.000 C 
ATOM     12 CL   UNL     1      87.129  69.496  84.351  0.00  0.00    +0.000 Cl
ATOM     13 CL   UNL     1      88.356  72.162  84.377  0.00  0.00    +0.000 Cl
ENDROOT
TORSDOF 0
ENDMDL
