MODEL 1
REMARK VINA RESULT:      -4.1      0.000      0.000
REMARK  Name = *****
REMARK  3 active torsions:
REMARK  status: ('A' for Active; 'I' for Inactive)
REMARK    1  A    between atoms: C_1  and  O_2
REMARK    2  A    between atoms: O_2  and  C_3
REMARK    3  A    between atoms: C_4  and  S_13
REMARK                            x       y       z     vdW  Elec       q    Type
REMARK                         _______ _______ _______ _____ _____    ______ ____
ROOT
ATOM      1  C   UNL     1      88.705  70.126  86.735  0.00  0.00    +0.000 A 
ATOM      2  C   UNL     1      87.684  70.709  85.944  0.00  0.00    +0.000 A 
ATOM      3  C   UNL     1      86.533  71.302  86.559  0.00  0.00    +0.000 A 
ATOM      4  C   UNL     1      85.449  71.917  85.877  0.00  0.00    +0.000 A 
ATOM      5  C   UNL     1      84.358  72.476  86.550  0.00  0.00    +0.000 A 
ATOM      6  C   UNL     1      84.311  72.444  87.934  0.00  0.00    +0.000 A 
ATOM      7  C   UNL     1      85.354  71.853  88.641  0.00  0.00    +0.000 A 
ATOM      8  C   UNL     1      86.455  71.288  87.976  0.00  0.00    +0.000 A 
ATOM      9  C   UNL     1      87.479  70.708  88.732  0.00  0.00    +0.000 A 
ATOM     10  C   UNL     1      88.593  70.135  88.123  0.00  0.00    +0.000 A 
ENDROOT
BRANCH   2  11
ATOM     11  S   UNL     1      87.947  70.648  84.135  0.00  0.00    +0.000 S 
ATOM     12  O   UNL     1      86.630  70.305  83.504  0.00  0.00    +0.000 OA
ATOM     13 CL   UNL     1      88.036  72.581  83.707  0.00  0.00    +0.000 Cl
ENDBRANCH   2  11
BRANCH   1  15
ATOM     14  C   UNL     1      89.951  68.174  86.122  0.00  0.00    +0.000 C 
ATOM     15  O   UNL     1      89.775  69.585  86.062  0.00  0.00    +0.000 OA
ENDBRANCH   1  15
TORSDOF 2
ENDMDL
