MODEL 1
REMARK VINA RESULT:      -4.1      0.000      0.000
REMARK  Name = *****
REMARK  0 active torsions:
REMARK  status: ('A' for Active; 'I' for Inactive)
REMARK                            x       y       z     vdW  Elec       q    Type
REMARK                         _______ _______ _______ _____ _____    ______ ____
ROOT
ATOM      1  C   UNL     1      86.199  61.532  88.780  0.00  0.00    +0.000 A 
ATOM      2  C   UNL     1      85.655  61.563  90.063  0.00  0.00    +0.000 A 
ATOM      3  C   UNL     1      85.906  62.633  90.916  0.00  0.00    +0.000 A 
ATOM      4  C   UNL     1      86.712  63.689  90.481  0.00  0.00    +0.000 A 
ATOM      5  C   UNL     1      87.276  63.689  89.193  0.00  0.00    +0.000 A 
ATOM      6  C   UNL     1      87.003  62.592  88.355  0.00  0.00    +0.000 A 
ATOM      7  N   UNL     1      87.538  62.561  87.063  0.00  0.00    +0.000 N 
ATOM      8  C   UNL     1      88.320  63.579  86.585  0.00  0.00    +0.000 A 
ATOM      9  O   UNL     1      88.765  63.625  85.446  0.00  0.00    +0.000 OA
ATOM     10  C   UNL     1      88.610  64.728  87.573  0.00  0.00    +0.000 A 
ATOM     11  N   UNL     1      88.094  64.758  88.767  0.00  0.00    +0.000 NA
ATOM     12  N   UNL     1      89.421  65.752  87.152  0.00  0.00    +0.000 N 
ATOM     13 CL   UNL     1      86.989  64.996  91.580  0.00  0.00    +0.000 Cl
ATOM     14 CL   UNL     1      84.663  60.262  90.596  0.00  0.00    +0.000 Cl
ATOM     15  H   UNL     1      87.347  61.790  86.482  0.00  0.00    +0.000 HD
ATOM     16  H   UNL     1      89.812  65.731  86.249  0.00  0.00    +0.000 HD
ATOM     17  H   UNL     1      89.610  66.507  87.754  0.00  0.00    +0.000 HD
ENDROOT
TORSDOF 0
ENDMDL
