MODEL 1
REMARK VINA RESULT:      -4.2      0.000      0.000
REMARK  Name = *****
REMARK  2 active torsions:
REMARK  status: ('A' for Active; 'I' for Inactive)
REMARK    1  A    between atoms: C_1  and  O_2
REMARK    2  A    between atoms: O_2  and  C_3
REMARK                            x       y       z     vdW  Elec       q    Type
REMARK                         _______ _______ _______ _____ _____    ______ ____
ROOT
ATOM      1  C   UNL     1      98.599 127.607  82.895  0.00  0.00    +0.000 A 
ATOM      2  C   UNL     1      99.540 126.695  82.408  0.00  0.00    +0.000 A 
ATOM      3  C   UNL     1     100.911 126.952  82.518  0.00  0.00    +0.000 A 
ATOM      4  C   UNL     1     101.346 128.140  83.127  0.00  0.00    +0.000 A 
ATOM      5  C   UNL     1     102.823 128.384  83.317  0.00  0.00    +0.000 C 
ATOM      6  C   UNL     1     103.685 127.701  82.246  0.00  0.00    +0.000 C 
ATOM      7  C   UNL     1     103.179 126.333  81.878  0.00  0.00    +0.000 C 
ATOM      8  C   UNL     1     101.891 125.984  82.013  0.00  0.00    +0.000 C 
ATOM      9 BR   UNL     1     104.457 125.152  81.200  0.00  0.00    +0.000 Br
ATOM     10  C   UNL     1     100.404 129.046  83.625  0.00  0.00    +0.000 A 
ATOM     11  C   UNL     1      99.037 128.784  83.502  0.00  0.00    +0.000 A 
ENDROOT
BRANCH   1  13
ATOM     12  C   UNL     1      96.567 126.866  83.884  0.00  0.00    +0.000 C 
ATOM     13  O   UNL     1      97.295 127.230  82.718  0.00  0.00    +0.000 OA
ENDBRANCH   1  13
TORSDOF 1
ENDMDL
