MODEL 1
REMARK VINA RESULT:      -4.4      0.000      0.000
REMARK  Name = *****
REMARK  3 active torsions:
REMARK  status: ('A' for Active; 'I' for Inactive)
REMARK    1  A    between atoms: C_1  and  O_2
REMARK    2  A    between atoms: O_2  and  C_3
REMARK    3  A    between atoms: C_3  and  C_5
REMARK                            x       y       z     vdW  Elec       q    Type
REMARK                         _______ _______ _______ _____ _____    ______ ____
ROOT
ATOM      1  C   UNL     1     102.359 126.098  81.950  0.00  0.00    +0.000 A 
ATOM      2  C   UNL     1     102.594 127.251  82.677  0.00  0.00    +0.000 A 
ATOM      3  C   UNL     1     101.340 127.834  83.033  0.00  0.00    +0.000 A 
ATOM      4  C   UNL     1     100.353 127.001  82.500  0.00  0.00    +0.000 A 
ATOM      5  N   UNL     1     100.993 125.968  81.855  0.00  0.00    +0.000 N 
ATOM      6  C   UNL     1      98.984 127.255  82.650  0.00  0.00    +0.000 A 
ATOM      7  C   UNL     1      98.607 128.397  83.365  0.00  0.00    +0.000 A 
ATOM      8  C   UNL     1      99.563 129.254  83.913  0.00  0.00    +0.000 A 
ATOM      9  C   UNL     1     100.924 128.977  83.749  0.00  0.00    +0.000 A 
ATOM     10 CL   UNL     1     102.191 129.950  84.372  0.00  0.00    +0.000 Cl
ATOM     11 CL   UNL     1      99.007 130.640  84.781  0.00  0.00    +0.000 Cl
ATOM     12  H   UNL     1     100.534 125.234  81.387  0.00  0.00    +0.000 HD
ENDROOT
BRANCH   1  13
ATOM     13  C   UNL     1     103.262 125.144  81.357  0.00  0.00    +0.000 C 
ATOM     14  O   UNL     1     103.487 125.063  80.157  0.00  0.00    +0.000 OA
BRANCH  13  16
ATOM     15  C   UNL     1     104.620 123.295  81.809  0.00  0.00    +0.000 C 
ATOM     16  O   UNL     1     103.815 124.357  82.319  0.00  0.00    +0.000 OA
ENDBRANCH  13  16
ENDBRANCH   1  13
TORSDOF 2
ENDMDL
