MODEL 1
REMARK VINA RESULT:      -4.0      0.000      0.000
REMARK  Name = *****
REMARK  3 active torsions:
REMARK  status: ('A' for Active; 'I' for Inactive)
REMARK    1  A    between atoms: C_1  and  C_2
REMARK    2  A    between atoms: C_2  and  O_3
REMARK    3  A    between atoms: O_3  and  C_4
REMARK                            x       y       z     vdW  Elec       q    Type
REMARK                         _______ _______ _______ _____ _____    ______ ____
ROOT
ATOM      1  C   UNL     1      98.569 127.581  82.895  0.00  0.00    +0.000 A 
ATOM      2  C   UNL     1      99.454 126.629  82.387  0.00  0.00    +0.000 A 
ATOM      3  C   UNL     1     100.827 126.842  82.489  0.00  0.00    +0.000 A 
ATOM      4  C   UNL     1     101.345 127.988  83.086  0.00  0.00    +0.000 A 
ATOM      5  C   UNL     1     100.459 128.941  83.592  0.00  0.00    +0.000 A 
ATOM      6  C   UNL     1      99.075 128.738  83.496  0.00  0.00    +0.000 A 
ATOM      7  C   UNL     1     102.788 128.153  83.163  0.00  0.00    +0.000 A 
ATOM      8  C   UNL     1     103.592 127.209  82.663  0.00  0.00    +0.000 A 
ATOM      9  C   UNL     1     103.050 125.996  82.029  0.00  0.00    +0.000 A 
ATOM     10  S   UNL     1     103.946 124.751  81.372  0.00  0.00    +0.000 S 
ATOM     11  O   UNL     1     101.677 125.850  81.963  0.00  0.00    +0.000 OA
ENDROOT
BRANCH   1  12
ATOM     12  O   UNL     1      97.246 127.269  82.742  0.00  0.00    +0.000 OA
BRANCH  12  14
ATOM     13  C   UNL     1      96.168 125.335  83.621  0.00  0.00    +0.000 C 
ATOM     14  C   UNL     1      96.554 126.779  83.888  0.00  0.00    +0.000 C 
ENDBRANCH  12  14
ENDBRANCH   1  12
TORSDOF 2
ENDMDL
