REMARK  Name = *****
REMARK  0 active torsions:
REMARK  status: ('A' for Active; 'I' for Inactive)
REMARK                            x       y       z     vdW  Elec       q    Type
REMARK                         _______ _______ _______ _____ _____    ______ ____
ROOT
ATOM      1  C   UNL     1       1.971  -1.177  -0.737  0.00  0.00    +0.000 C 
ATOM      2  C   UNL     1       2.775  -0.112  -0.025  0.00  0.00    +0.000 C 
ATOM      3  O   UNL     1       4.009  -0.142  -0.036  0.00  0.00    +0.000 OA
ATOM      4  C   UNL     1       2.038   0.991   0.700  0.00  0.00    +0.000 C 
ATOM      5  S   UNL     1       0.756   1.694  -0.352  0.00  0.00    +0.000 S 
ATOM      6  C   UNL     1      -0.616   0.645  -0.131  0.00  0.00    +0.000 A 
ATOM      7  C   UNL     1      -0.651  -0.684   0.108  0.00  0.00    +0.000 A 
ATOM      8  S   UNL     1       0.662  -1.803   0.331  0.00  0.00    +0.000 S 
ATOM      9  S   UNL     1      -2.249  -1.402   0.266  0.00  0.00    +0.000 S 
ATOM     10  C   UNL     1      -3.181   0.048  -0.019  0.00  0.00    +0.000 A 
ATOM     11  S   UNL     1      -4.846   0.090  -0.028  0.00  0.00    +0.000 S 
ATOM     12  S   UNL     1      -2.173   1.447  -0.294  0.00  0.00    +0.000 S 
ENDROOT
TORSDOF 0
