MODEL 1
REMARK VINA RESULT:      -4.0      0.000      0.000
REMARK  Name = *****
REMARK  0 active torsions:
REMARK  status: ('A' for Active; 'I' for Inactive)
REMARK                            x       y       z     vdW  Elec       q    Type
REMARK                         _______ _______ _______ _____ _____    ______ ____
ROOT
ATOM      1  C   UNL     1     103.093 125.169  81.463  0.00  0.00    +0.000 A 
ATOM      2  C   UNL     1     104.220 125.153  80.626  0.00  0.00    +0.000 A 
ATOM      3  C   UNL     1     104.715 126.377  80.161  0.00  0.00    +0.000 A 
ATOM      4  C   UNL     1     104.119 127.581  80.509  0.00  0.00    +0.000 A 
ATOM      5  N   UNL     1     103.041 127.597  81.308  0.00  0.00    +0.000 NA
ATOM      6  C   UNL     1     102.566 126.418  81.756  0.00  0.00    +0.000 A 
ATOM      7 CL   UNL     1     101.187 126.556  82.770  0.00  0.00    +0.000 Cl
ATOM      8 CL   UNL     1     104.691 129.094  79.963  0.00  0.00    +0.000 Cl
ATOM      9  N   UNL     1     105.809 126.104  79.370  0.00  0.00    +0.000 N 
ATOM     10  C   UNL     1     106.008 124.759  79.329  0.00  0.00    +0.000 A 
ATOM     11  C   UNL     1     105.057 124.131  80.086  0.00  0.00    +0.000 A 
ATOM     12 CL   UNL     1     104.873 122.465  80.357  0.00  0.00    +0.000 Cl
ATOM     13 CL   UNL     1     107.313 124.187  78.406  0.00  0.00    +0.000 Cl
ATOM     14  H   UNL     1     106.359 126.775  78.906  0.00  0.00    +0.000 HD
ENDROOT
TORSDOF 0
ENDMDL
