MODEL 1
REMARK VINA RESULT:      -4.2      0.000      0.000
REMARK  Name = *****
REMARK  3 active torsions:
REMARK  status: ('A' for Active; 'I' for Inactive)
REMARK    1  A    between atoms: C_1  and  O_2
REMARK    2  A    between atoms: O_2  and  C_3
REMARK    3  A    between atoms: C_9  and  C_13
REMARK                            x       y       z     vdW  Elec       q    Type
REMARK                         _______ _______ _______ _____ _____    ______ ____
ROOT
ATOM      1  C   UNL     1      89.130  70.273  86.183  0.00  0.00    +0.000 A 
ATOM      2  C   UNL     1      87.969  70.830  85.644  0.00  0.00    +0.000 A 
ATOM      3  C   UNL     1      86.909  71.259  86.461  0.00  0.00    +0.000 A 
ATOM      4  C   UNL     1      87.004  71.134  87.869  0.00  0.00    +0.000 A 
ATOM      5  C   UNL     1      88.188  70.557  88.390  0.00  0.00    +0.000 A 
ATOM      6  C   UNL     1      89.235  70.134  87.561  0.00  0.00    +0.000 A 
ATOM      7  C   UNL     1      85.901  71.579  88.651  0.00  0.00    +0.000 A 
ATOM      8  C   UNL     1      84.757  72.124  88.046  0.00  0.00    +0.000 A 
ATOM      9  C   UNL     1      84.686  72.238  86.663  0.00  0.00    +0.000 A 
ATOM     10  C   UNL     1      85.755  71.809  85.880  0.00  0.00    +0.000 A 
ENDROOT
BRANCH   7  11
ATOM     11  C   UNL     1      85.915  71.494  90.139  0.00  0.00    +0.000 C 
ATOM     12  O   UNL     1      85.288  70.582  90.672  0.00  0.00    +0.000 OA
ATOM     13 CL   UNL     1      86.837  72.693  91.024  0.00  0.00    +0.000 Cl
ENDBRANCH   7  11
BRANCH   1  15
ATOM     14  C   UNL     1      90.501  70.907  84.348  0.00  0.00    +0.000 C 
ATOM     15  O   UNL     1      90.071  69.905  85.261  0.00  0.00    +0.000 OA
ENDBRANCH   1  15
TORSDOF 2
ENDMDL
