MODEL 1
REMARK VINA RESULT:      -3.6      0.000      0.000
REMARK  Name = *****
REMARK  0 active torsions:
REMARK  status: ('A' for Active; 'I' for Inactive)
REMARK                            x       y       z     vdW  Elec       q    Type
REMARK                         _______ _______ _______ _____ _____    ______ ____
ROOT
ATOM      1  C   UNL     1      99.249 127.070  82.579  0.00  0.00    +0.000 A 
ATOM      2  C   UNL     1      98.726 128.153  83.287  0.00  0.00    +0.000 A 
ATOM      3  C   UNL     1      99.578 129.105  83.879  0.00  0.00    +0.000 A 
ATOM      4  C   UNL     1     100.974 128.985  83.771  0.00  0.00    +0.000 A 
ATOM      5  C   UNL     1     101.484 127.902  83.063  0.00  0.00    +0.000 A 
ATOM      6  C   UNL     1     100.625 126.966  82.481  0.00  0.00    +0.000 A 
ATOM      7  N   UNL     1     101.288 125.941  81.808  0.00  0.00    +0.000 N 
ATOM      8  C   UNL     1     102.664 126.013  81.824  0.00  0.00    +0.000 A 
ATOM      9  S   UNL     1     103.648 124.904  81.090  0.00  0.00    +0.000 S 
ATOM     10  S   UNL     1     103.172 127.439  82.727  0.00  0.00    +0.000 S 
ATOM     11 CL   UNL     1     102.044 130.137  84.487  0.00  0.00    +0.000 Cl
ATOM     12 CL   UNL     1      98.828 130.409  84.734  0.00  0.00    +0.000 Cl
ATOM     13  H   UNL     1     100.807 125.213  81.352  0.00  0.00    +0.000 HD
ENDROOT
TORSDOF 0
ENDMDL
