MODEL 1
REMARK VINA RESULT:      -4.9      0.000      0.000
REMARK  Name = *****
REMARK  6 active torsions:
REMARK  status: ('A' for Active; 'I' for Inactive)
REMARK    1  A    between atoms: C_1  and  C_2
REMARK    2  A    between atoms: C_3  and  C_16
REMARK    3  A    between atoms: C_4  and  C_15
REMARK    4  A    between atoms: C_7  and  O_13
REMARK    5  A    between atoms: C_11  and  C_12
REMARK    6  A    between atoms: O_13  and  C_14
REMARK                            x       y       z     vdW  Elec       q    Type
REMARK                         _______ _______ _______ _____ _____    ______ ____
ROOT
ATOM      1  C   UNL     1      83.619  72.483  89.121  0.00  0.00    +0.000 C 
ATOM      2  C   UNL     1      84.774  72.112  88.217  0.00  0.00    +0.000 A 
ATOM      3  C   UNL     1      84.660  72.277  86.816  0.00  0.00    +0.000 A 
ATOM      4  C   UNL     1      85.682  71.784  85.964  0.00  0.00    +0.000 A 
ATOM      5  C   UNL     1      86.888  71.255  86.514  0.00  0.00    +0.000 A 
ATOM      6  C   UNL     1      87.968  70.815  85.703  0.00  0.00    +0.000 A 
ATOM      7  C   UNL     1      89.146  70.278  86.225  0.00  0.00    +0.000 A 
ATOM      8  C   UNL     1      89.274  70.164  87.597  0.00  0.00    +0.000 A 
ATOM      9  C   UNL     1      88.236  70.603  88.425  0.00  0.00    +0.000 A 
ATOM     10  C   UNL     1      87.036  71.166  87.920  0.00  0.00    +0.000 A 
ATOM     11  C   UNL     1      85.988  71.629  88.770  0.00  0.00    +0.000 A 
ATOM     12  C   UNL     1      86.164  71.577  90.276  0.00  0.00    +0.000 C 
ATOM     13  C   UNL     1      85.505  71.839  84.459  0.00  0.00    +0.000 C 
ATOM     14  C   UNL     1      83.437  72.947  86.228  0.00  0.00    +0.000 C 
ENDROOT
BRANCH   7  15
ATOM     15  O   UNL     1      90.073  69.905  85.293  0.00  0.00    +0.000 OA
ATOM     16  C   UNL     1      90.492  70.901  84.369  0.00  0.00    +0.000 C 
ENDBRANCH   7  15
TORSDOF 1
ENDMDL
