REMARK  Name = *****
REMARK  1 active torsions:
REMARK  status: ('A' for Active; 'I' for Inactive)
REMARK    1  A    between atoms: C_6  and  C_10
REMARK                            x       y       z     vdW  Elec       q    Type
REMARK                         _______ _______ _______ _____ _____    ______ ____
ROOT
ATOM      1  C   UNL     1       2.401   0.712   1.110  0.00  0.00    +0.000 C 
ATOM      2  C   UNL     1       3.451   0.849   1.944  0.00  0.00    +0.000 C 
ATOM      3  C   UNL     1       4.834   0.446   1.689  0.00  0.00    +0.000 C 
ATOM      4  C   UNL     1       5.271  -0.466   0.801  0.00  0.00    +0.000 C 
ATOM      5  C   UNL     1       4.479  -1.246  -0.117  0.00  0.00    +0.000 C 
ATOM      6  C   UNL     1       5.292  -2.037  -0.810  0.00  0.00    +0.000 C 
ATOM      7  C   UNL     1       6.638  -1.738  -0.324  0.00  0.00    +0.000 C 
ATOM      8  S   UNL     1       8.119  -2.353  -0.756  0.00  0.00    +0.000 S 
ATOM      9  O   UNL     1       6.615  -0.780   0.656  0.00  0.00    +0.000 OA
ATOM     10  C   UNL     1       3.025  -1.173  -0.212  0.00  0.00    +0.000 C 
ATOM     11  C   UNL     1       2.525   0.080  -0.200  0.00  0.00    +0.000 C 
ENDROOT
BRANCH   6  12
ATOM     12  C   UNL     1       4.951  -2.974  -1.803  0.00  0.00    +0.000 C 
ATOM     13  N   UNL     1       4.653  -3.746  -2.617  0.00  0.00    +0.000 NA
ENDBRANCH   6  12
TORSDOF 1
