MODEL 1
REMARK VINA RESULT:      -4.3      0.000      0.000
REMARK  Name = *****
REMARK  2 active torsions:
REMARK  status: ('A' for Active; 'I' for Inactive)
REMARK    1  A    between atoms: C_1  and  C_2
REMARK    2  A    between atoms: C_2  and  N_4
REMARK                            x       y       z     vdW  Elec       q    Type
REMARK                         _______ _______ _______ _____ _____    ______ ____
ROOT
ATOM      1  N   UNL     1      99.876 128.015  83.254  0.00  0.00    +0.000 N 
ATOM      2  C   UNL     1     101.231 127.576  83.222  0.00  0.00    +0.000 A 
ATOM      3  C   UNL     1     101.309 126.443  82.408  0.00  0.00    +0.000 A 
ATOM      4  C   UNL     1     102.477 125.754  82.162  0.00  0.00    +0.000 A 
ATOM      5  C   UNL     1     103.624 126.227  82.793  0.00  0.00    +0.000 A 
ATOM      6  C   UNL     1     103.574 127.341  83.649  0.00  0.00    +0.000 A 
ATOM      7  C   UNL     1     102.366 128.019  83.877  0.00  0.00    +0.000 A 
ATOM      8 CL   UNL     1     105.124 125.419  82.544  0.00  0.00    +0.000 Cl
ATOM      9  N   UNL     1     100.040 126.142  81.949  0.00  0.00    +0.000 N 
ATOM     10  C   UNL     1      99.124 127.070  82.462  0.00  0.00    +0.000 A 
ATOM     11  O   UNL     1      97.928 127.032  82.215  0.00  0.00    +0.000 OA
ATOM     12  H   UNL     1      99.815 125.391  81.354  0.00  0.00    +0.000 HD
ENDROOT
BRANCH   1  14
ATOM     13  C   UNL     1      98.510 128.879  85.145  0.00  0.00    +0.000 C 
ATOM     14  C   UNL     1      99.303 129.119  83.882  0.00  0.00    +0.000 C 
ATOM     15  C   UNL     1      99.390 130.377  83.419  0.00  0.00    +0.000 C 
ENDBRANCH   1  14
TORSDOF 1
ENDMDL
