MODEL 1
REMARK VINA RESULT:      -3.9      0.000      0.000
REMARK  Name = *****
REMARK  3 active torsions:
REMARK  status: ('A' for Active; 'I' for Inactive)
REMARK    1  A    between atoms: C_1  and  O_2
REMARK    2  A    between atoms: O_2  and  C_3
REMARK    3  A    between atoms: C_10  and  C_12
REMARK                            x       y       z     vdW  Elec       q    Type
REMARK                         _______ _______ _______ _____ _____    ______ ____
ROOT
ATOM      1  C   UNL     1      98.523 127.593  82.962  0.00  0.00    +0.000 A 
ATOM      2  C   UNL     1      99.356 126.615  82.404  0.00  0.00    +0.000 A 
ATOM      3  C   UNL     1     100.728 126.845  82.463  0.00  0.00    +0.000 A 
ATOM      4  C   UNL     1     101.304 127.970  83.037  0.00  0.00    +0.000 A 
ATOM      5  C   UNL     1     100.460 128.943  83.595  0.00  0.00    +0.000 A 
ATOM      6  C   UNL     1      99.069 128.740  83.549  0.00  0.00    +0.000 A 
ATOM      7  C   UNL     1     102.704 127.804  82.884  0.00  0.00    +0.000 A 
ATOM      8  C   UNL     1     102.904 126.599  82.231  0.00  0.00    +0.000 A 
ATOM      9  O   UNL     1     101.690 126.015  81.976  0.00  0.00    +0.000 OA
ENDROOT
BRANCH   8  10
ATOM     10  C   UNL     1     104.134 125.945  81.823  0.00  0.00    +0.000 C 
ATOM     11  O   UNL     1     105.231 126.333  82.218  0.00  0.00    +0.000 OA
ATOM     12 CL   UNL     1     103.928 124.583  80.742  0.00  0.00    +0.000 Cl
ENDBRANCH   8  10
BRANCH   1  14
ATOM     13  C   UNL     1      96.691 126.253  83.687  0.00  0.00    +0.000 C 
ATOM     14  O   UNL     1      97.186 127.305  82.869  0.00  0.00    +0.000 OA
ENDBRANCH   1  14
TORSDOF 2
ENDMDL
