MODEL 1
REMARK VINA RESULT:      -3.6      0.000      0.000
REMARK  Name = *****
REMARK  0 active torsions:
REMARK  status: ('A' for Active; 'I' for Inactive)
REMARK                            x       y       z     vdW  Elec       q    Type
REMARK                         _______ _______ _______ _____ _____    ______ ____
ROOT
ATOM      1  C   UNL     1      83.579  72.765  86.313  0.00  0.00    +0.000 C 
ATOM      2  C   UNL     1      84.693  72.195  86.787  0.00  0.00    +0.000 C 
ATOM      3  C   UNL     1      85.862  71.749  85.936  0.00  0.00    +0.000 C 
ATOM      4  C   UNL     1      86.635  70.871  86.912  0.00  0.00    +0.000 C 
ATOM      5  C   UNL     1      88.113  70.653  86.625  0.00  0.00    +0.000 C 
ATOM      6  C   UNL     1      88.746  69.853  87.770  0.00  0.00    +0.000 C 
ATOM      7  C   UNL     1      88.479  70.472  89.150  0.00  0.00    +0.000 C 
ATOM      8  C   UNL     1      86.994  70.772  89.392  0.00  0.00    +0.000 C 
ATOM      9  C   UNL     1      86.449  71.606  88.241  0.00  0.00    +0.000 C 
ATOM     10  C   UNL     1      84.955  71.906  88.250  0.00  0.00    +0.000 C 
ENDROOT
TORSDOF 0
ENDMDL
