MODEL 1
REMARK VINA RESULT:      -4.1      0.000      0.000
REMARK  Name = *****
REMARK  1 active torsions:
REMARK  status: ('A' for Active; 'I' for Inactive)
REMARK    1  A    between atoms: C_9  and  O_13
REMARK                            x       y       z     vdW  Elec       q    Type
REMARK                         _______ _______ _______ _____ _____    ______ ____
ROOT
ATOM      1  C   UNL     1      88.128  66.697  87.294  0.00  0.00    +0.000 A 
ATOM      2  C   UNL     1      87.509  65.478  87.571  0.00  0.00    +0.000 A 
ATOM      3  C   UNL     1      88.075  64.295  87.103  0.00  0.00    +0.000 A 
ATOM      4  C   UNL     1      89.264  64.327  86.357  0.00  0.00    +0.000 A 
ATOM      5  C   UNL     1      89.898  65.550  86.071  0.00  0.00    +0.000 A 
ATOM      6  C   UNL     1      89.314  66.737  86.551  0.00  0.00    +0.000 A 
ATOM      7 CL   UNL     1      90.007  68.295  86.259  0.00  0.00    +0.000 Cl
ATOM      8  C   UNL     1      91.142  65.516  85.283  0.00  0.00    +0.000 A 
ATOM      9  C   UNL     1      91.668  64.362  84.843  0.00  0.00    +0.000 A 
ATOM     10  C   UNL     1      90.985  63.058  85.153  0.00  0.00    +0.000 A 
ATOM     11  O   UNL     1      91.426  61.977  84.774  0.00  0.00    +0.000 OA
ATOM     12  N   UNL     1      89.833  63.132  85.887  0.00  0.00    +0.000 N 
ATOM     13 CL   UNL     1      87.283  62.803  87.465  0.00  0.00    +0.000 Cl
ATOM     14  H   UNL     1      89.371  62.290  86.101  0.00  0.00    +0.000 HD
ENDROOT
BRANCH   9  15
ATOM     15  O   UNL     1      92.835  64.324  84.101  0.00  0.00    +0.000 OA
ATOM     16  H   UNL     1      92.795  64.292  83.166  0.00  0.00    +0.000 HD
ENDBRANCH   9  15
TORSDOF 1
ENDMDL
