MODEL 1
REMARK VINA RESULT:      -4.1      0.000      0.000
REMARK  Name = *****
REMARK  3 active torsions:
REMARK  status: ('A' for Active; 'I' for Inactive)
REMARK    1  A    between atoms: C_1  and  O_2
REMARK    2  A    between atoms: O_2  and  C_3
REMARK    3  A    between atoms: C_9  and  C_12
REMARK                            x       y       z     vdW  Elec       q    Type
REMARK                         _______ _______ _______ _____ _____    ______ ____
ROOT
ATOM      1  C   UNL     1      89.122  70.267  86.173  0.00  0.00    +0.000 A 
ATOM      2  C   UNL     1      87.940  70.819  85.666  0.00  0.00    +0.000 A 
ATOM      3  C   UNL     1      86.951  71.207  86.556  0.00  0.00    +0.000 A 
ATOM      4  C   UNL     1      87.112  71.054  87.936  0.00  0.00    +0.000 A 
ATOM      5  C   UNL     1      88.279  70.515  88.450  0.00  0.00    +0.000 A 
ATOM      6  C   UNL     1      89.287  70.119  87.561  0.00  0.00    +0.000 A 
ATOM      7  C   UNL     1      85.913  71.543  88.634  0.00  0.00    +0.000 C 
ATOM      8  C   UNL     1      85.080  71.984  87.669  0.00  0.00    +0.000 C 
ATOM      9  C   UNL     1      85.619  71.818  86.272  0.00  0.00    +0.000 C 
ENDROOT
BRANCH   7  10
ATOM     10  C   UNL     1      85.703  71.577  90.079  0.00  0.00    +0.000 C 
ATOM     11  C   UNL     1      84.932  72.724  90.683  0.00  0.00    +0.000 C 
ATOM     12  C   UNL     1      86.409  72.614  90.917  0.00  0.00    +0.000 C 
ENDBRANCH   7  10
BRANCH   1  14
ATOM     13  C   UNL     1      90.412  70.925  84.287  0.00  0.00    +0.000 C 
ATOM     14  O   UNL     1      90.037  69.916  85.216  0.00  0.00    +0.000 OA
ENDBRANCH   1  14
TORSDOF 2
ENDMDL
