REMARK  Name = *****
REMARK  2 active torsions:
REMARK  status: ('A' for Active; 'I' for Inactive)
REMARK    1  A    between atoms: C_1  and  O_2
REMARK    2  A    between atoms: O_2  and  C_3
REMARK                            x       y       z     vdW  Elec       q    Type
REMARK                         _______ _______ _______ _____ _____    ______ ____
ROOT
ATOM      1  C   UNL     1       3.002  -1.066   0.712  0.00  0.00    +0.000 A 
ATOM      2  C   UNL     1       2.670  -2.417   0.603  0.00  0.00    +0.000 A 
ATOM      3  C   UNL     1       3.506  -3.412   1.144  0.00  0.00    +0.000 A 
ATOM      4  C   UNL     1       4.699  -3.035   1.806  0.00  0.00    +0.000 A 
ATOM      5  C   UNL     1       5.022  -1.675   1.908  0.00  0.00    +0.000 A 
ATOM      6  C   UNL     1       4.180  -0.703   1.365  0.00  0.00    +0.000 A 
ATOM      7  C   UNL     1       5.533  -4.026   2.348  0.00  0.00    +0.000 A 
ATOM      8  C   UNL     1       5.198  -5.376   2.238  0.00  0.00    +0.000 A 
ATOM      9  C   UNL     1       4.025  -5.744   1.586  0.00  0.00    +0.000 A 
ATOM     10  C   UNL     1       3.183  -4.775   1.042  0.00  0.00    +0.000 A 
ATOM     11 CL   UNL     1       3.610  -7.409   1.450  0.00  0.00    +0.000 Cl
ENDROOT
BRANCH   1  13
ATOM     12  C   UNL     1       1.052  -0.325  -0.432  0.00  0.00    +0.000 C 
ATOM     13  O   UNL     1       2.273  -0.014   0.229  0.00  0.00    +0.000 OA
ENDBRANCH   1  13
TORSDOF 1
