MODEL 1
REMARK VINA RESULT:      -4.2      0.000      0.000
REMARK  Name = *****
REMARK  2 active torsions:
REMARK  status: ('A' for Active; 'I' for Inactive)
REMARK    1  A    between atoms: C_1  and  C_2
REMARK    2  A    between atoms: C_2  and  C_4
REMARK                            x       y       z     vdW  Elec       q    Type
REMARK                         _______ _______ _______ _____ _____    ______ ____
ROOT
ATOM      1  C   UNL     1      86.999  64.213  88.236  0.00  0.00    +0.000 C 
ATOM      2  C   UNL     1      86.952  65.712  88.341  0.00  0.00    +0.000 C 
ATOM      3  C   UNL     1      87.815  66.540  87.737  0.00  0.00    +0.000 C 
ATOM      4  C   UNL     1      88.891  65.965  86.931  0.00  0.00    +0.000 A 
ATOM      5  C   UNL     1      88.931  64.572  86.727  0.00  0.00    +0.000 A 
ATOM      6  N   UNL     1      87.919  63.736  87.207  0.00  0.00    +0.000 N 
ATOM      7  C   UNL     1      89.936  64.039  85.911  0.00  0.00    +0.000 A 
ATOM      8  C   UNL     1      90.910  64.870  85.357  0.00  0.00    +0.000 A 
ATOM      9  C   UNL     1      90.886  66.243  85.587  0.00  0.00    +0.000 A 
ATOM     10  C   UNL     1      89.871  66.794  86.369  0.00  0.00    +0.000 A 
ATOM     11 CL   UNL     1      92.150  64.192  84.373  0.00  0.00    +0.000 Cl
ATOM     12  H   UNL     1      87.826  62.823  86.850  0.00  0.00    +0.000 HD
ENDROOT
BRANCH   1  14
ATOM     13  C   UNL     1      88.707  63.827  90.149  0.00  0.00    +0.000 C 
ATOM     14  C   UNL     1      87.352  63.542  89.553  0.00  0.00    +0.000 C 
ATOM     15  C   UNL     1      86.492  62.716  90.178  0.00  0.00    +0.000 C 
ENDBRANCH   1  14
TORSDOF 1
ENDMDL
