MODEL 1
REMARK VINA RESULT:      -4.6      0.000      0.000
REMARK  Name = *****
REMARK  3 active torsions:
REMARK  status: ('A' for Active; 'I' for Inactive)
REMARK    1  A    between atoms: C_1  and  C_2
REMARK    2  A    between atoms: C_2  and  C_3
REMARK    3  A    between atoms: C_10  and  C_12
REMARK                            x       y       z     vdW  Elec       q    Type
REMARK                         _______ _______ _______ _____ _____    ______ ____
ROOT
ATOM      1  C   UNL     1      99.530 129.162  83.843  0.00  0.00    +0.000 A 
ATOM      2  C   UNL     1     100.904 128.904  83.689  0.00  0.00    +0.000 A 
ATOM      3  C   UNL     1     101.325 127.762  82.979  0.00  0.00    +0.000 A 
ATOM      4  C   UNL     1     100.363 126.908  82.448  0.00  0.00    +0.000 A 
ATOM      5  C   UNL     1      98.991 127.135  82.590  0.00  0.00    +0.000 A 
ATOM      6  C   UNL     1      98.594 128.275  83.299  0.00  0.00    +0.000 A 
ATOM      7  N   UNL     1     101.034 125.889  81.816  0.00  0.00    +0.000 N 
ATOM      8  C   UNL     1     102.399 126.054  81.921  0.00  0.00    +0.000 A 
ATOM      9  C   UNL     1     102.597 127.219  82.644  0.00  0.00    +0.000 A 
ATOM     10  H   UNL     1     100.598 125.140  81.350  0.00  0.00    +0.000 HD
ENDROOT
BRANCH   8  11
ATOM     11  C   UNL     1     103.328 125.105  81.334  0.00  0.00    +0.000 C 
ATOM     12  O   UNL     1     103.524 125.089  80.121  0.00  0.00    +0.000 OA
ATOM     13 CL   UNL     1     104.111 124.028  82.462  0.00  0.00    +0.000 Cl
ENDBRANCH   8  11
BRANCH   1  15
ATOM     14  C   UNL     1      99.883 131.609  84.269  0.00  0.00    +0.000 C 
ATOM     15  C   UNL     1      99.072 130.371  84.619  0.00  0.00    +0.000 C 
ENDBRANCH   1  15
TORSDOF 2
ENDMDL
