MODEL 1
REMARK VINA RESULT:      -4.0      0.000      0.000
REMARK  Name = *****
REMARK  3 active torsions:
REMARK  status: ('A' for Active; 'I' for Inactive)
REMARK    1  A    between atoms: C_1  and  O_2
REMARK    2  A    between atoms: O_2  and  C_3
REMARK    3  A    between atoms: C_3  and  C_5
REMARK                            x       y       z     vdW  Elec       q    Type
REMARK                         _______ _______ _______ _____ _____    ______ ____
ROOT
ATOM      1  C   UNL     1      95.389  96.159  85.601  0.00  0.00    +0.000 A 
ATOM      2  N   UNL     1      95.729  95.352  86.591  0.00  0.00    +0.000 NA
ATOM      3  C   UNL     1      94.871  94.285  86.518  0.00  0.00    +0.000 A 
ATOM      4  C   UNL     1      94.792  93.144  87.327  0.00  0.00    +0.000 A 
ATOM      5  C   UNL     1      93.811  92.184  87.040  0.00  0.00    +0.000 A 
ATOM      6  C   UNL     1      92.925  92.360  85.967  0.00  0.00    +0.000 A 
ATOM      7  C   UNL     1      92.994  93.499  85.150  0.00  0.00    +0.000 A 
ATOM      8  C   UNL     1      93.981  94.436  85.461  0.00  0.00    +0.000 A 
ATOM      9  N   UNL     1      94.331  95.635  84.895  0.00  0.00    +0.000 N 
ATOM     10 CL   UNL     1      91.702  91.196  85.583  0.00  0.00    +0.000 Cl
ATOM     11 CL   UNL     1      93.748  90.789  88.064  0.00  0.00    +0.000 Cl
ATOM     12  H   UNL     1      93.898  96.051  84.115  0.00  0.00    +0.000 HD
ENDROOT
BRANCH   1  13
ATOM     13  C   UNL     1      96.009  97.424  85.267  0.00  0.00    +0.000 C 
ATOM     14  O   UNL     1      96.255  97.788  84.123  0.00  0.00    +0.000 OA
BRANCH  13  16
ATOM     15  C   UNL     1      96.756  99.463  86.144  0.00  0.00    +0.000 C 
ATOM     16  O   UNL     1      96.279  98.143  86.392  0.00  0.00    +0.000 OA
ENDBRANCH  13  16
ENDBRANCH   1  13
TORSDOF 2
ENDMDL
