MODEL 1
REMARK VINA RESULT:      -4.0      0.000      0.000
REMARK  Name = *****
REMARK  0 active torsions:
REMARK  status: ('A' for Active; 'I' for Inactive)
REMARK                            x       y       z     vdW  Elec       q    Type
REMARK                         _______ _______ _______ _____ _____    ______ ____
ROOT
ATOM      1  C   UNL     1     101.593 128.872  83.707  0.00  0.00    +0.000 A 
ATOM      2  C   UNL     1     102.943 128.724  83.372  0.00  0.00    +0.000 A 
ATOM      3  C   UNL     1     103.391 127.682  82.535  0.00  0.00    +0.000 A 
ATOM      4  C   UNL     1     102.481 126.758  82.012  0.00  0.00    +0.000 A 
ATOM      5  C   UNL     1     101.154 126.911  82.346  0.00  0.00    +0.000 A 
ATOM      6  C   UNL     1     100.726 127.946  83.176  0.00  0.00    +0.000 A 
ATOM      7  N   UNL     1      99.348 127.836  83.326  0.00  0.00    +0.000 N 
ATOM      8  C   UNL     1      98.900 126.728  82.593  0.00  0.00    +0.000 A 
ATOM      9  O   UNL     1      97.751 126.334  82.501  0.00  0.00    +0.000 OA
ATOM     10  N   UNL     1     100.031 126.164  81.990  0.00  0.00    +0.000 N 
ATOM     11 CL   UNL     1     103.015 125.486  80.992  0.00  0.00    +0.000 Cl
ATOM     12 CL   UNL     1     104.091 129.845  84.001  0.00  0.00    +0.000 Cl
ATOM     13  H   UNL     1      98.780 128.437  83.861  0.00  0.00    +0.000 HD
ATOM     14  H   UNL     1     100.035 125.369  81.409  0.00  0.00    +0.000 HD
ENDROOT
TORSDOF 0
ENDMDL
