MODEL 1
REMARK VINA RESULT:      -4.1      0.000      0.000
REMARK  Name = *****
REMARK  3 active torsions:
REMARK  status: ('A' for Active; 'I' for Inactive)
REMARK    1  A    between atoms: C_1  and  O_2
REMARK    2  A    between atoms: O_2  and  C_3
REMARK    3  A    between atoms: C_3  and  C_5
REMARK                            x       y       z     vdW  Elec       q    Type
REMARK                         _______ _______ _______ _____ _____    ______ ____
ROOT
ATOM      1  C   UNL     1     100.278 126.993  82.682  0.00  0.00    +0.000 A 
ATOM      2  C   UNL     1     101.276 127.881  83.046  0.00  0.00    +0.000 A 
ATOM      3  C   UNL     1     102.501 127.438  82.476  0.00  0.00    +0.000 A 
ATOM      4  C   UNL     1     103.822 127.922  82.498  0.00  0.00    +0.000 A 
ATOM      5  C   UNL     1     104.809 127.219  81.807  0.00  0.00    +0.000 A 
ATOM      6  C   UNL     1     104.509 126.056  81.100  0.00  0.00    +0.000 A 
ATOM      7  C   UNL     1     103.203 125.557  81.063  0.00  0.00    +0.000 A 
ATOM      8  C   UNL     1     102.221 126.272  81.762  0.00  0.00    +0.000 A 
ATOM      9  N   UNL     1     100.876 126.027  81.903  0.00  0.00    +0.000 N 
ATOM     10 CL   UNL     1     105.747 125.207  80.253  0.00  0.00    +0.000 Cl
ATOM     11  F   UNL     1     106.065 127.691  81.837  0.00  0.00    +0.000 F 
ATOM     12  H   UNL     1     100.402 125.263  81.502  0.00  0.00    +0.000 HD
ENDROOT
BRANCH   1  13
ATOM     13  C   UNL     1      98.870 126.968  82.985  0.00  0.00    +0.000 C 
ATOM     14  O   UNL     1      97.983 127.077  82.148  0.00  0.00    +0.000 OA
BRANCH  13  16
ATOM     15  C   UNL     1      97.958 127.878  84.935  0.00  0.00    +0.000 C 
ATOM     16  O   UNL     1      98.677 126.808  84.321  0.00  0.00    +0.000 OA
ENDBRANCH  13  16
ENDBRANCH   1  13
TORSDOF 2
ENDMDL
