MODEL 1
REMARK VINA RESULT:      -4.1      0.000      0.000
REMARK  Name = *****
REMARK  0 active torsions:
REMARK  status: ('A' for Active; 'I' for Inactive)
REMARK                            x       y       z     vdW  Elec       q    Type
REMARK                         _______ _______ _______ _____ _____    ______ ____
ROOT
ATOM      1  C   UNL     1      85.927  61.983  89.997  0.00  0.00    +0.000 A 
ATOM      2  C   UNL     1      86.420  61.802  88.704  0.00  0.00    +0.000 A 
ATOM      3  C   UNL     1      87.205  62.798  88.123  0.00  0.00    +0.000 A 
ATOM      4  C   UNL     1      87.505  63.975  88.821  0.00  0.00    +0.000 A 
ATOM      5  C   UNL     1      87.010  64.152  90.115  0.00  0.00    +0.000 A 
ATOM      6  C   UNL     1      86.224  63.155  90.696  0.00  0.00    +0.000 A 
ATOM      7 BR   UNL     1      85.553  63.392  92.447  0.00  0.00    +0.000 Br
ATOM      8  C   UNL     1      88.334  64.994  88.175  0.00  0.00    +0.000 A 
ATOM      9  C   UNL     1      88.805  64.811  86.930  0.00  0.00    +0.000 A 
ATOM     10  C   UNL     1      88.485  63.550  86.180  0.00  0.00    +0.000 A 
ATOM     11  O   UNL     1      88.889  63.331  85.041  0.00  0.00    +0.000 OA
ATOM     12  N   UNL     1      87.705  62.625  86.828  0.00  0.00    +0.000 N 
ATOM     13 BR   UNL     1      89.864  66.098  86.089  0.00  0.00    +0.000 Br
ATOM     14  H   UNL     1      87.483  61.791  86.354  0.00  0.00    +0.000 HD
ENDROOT
TORSDOF 0
ENDMDL
