MODEL 1
REMARK VINA RESULT:      -3.2      0.000      0.000
REMARK  Name = *****
REMARK  0 active torsions:
REMARK  status: ('A' for Active; 'I' for Inactive)
REMARK                            x       y       z     vdW  Elec       q    Type
REMARK                         _______ _______ _______ _____ _____    ______ ____
ROOT
ATOM      1  C   UNL     1      86.295  71.527  85.708  0.00  0.00    +0.000 A 
ATOM      2  C   UNL     1      87.508  70.888  85.910  0.00  0.00    +0.000 A 
ATOM      3  C   UNL     1      87.954  70.603  87.206  0.00  0.00    +0.000 A 
ATOM      4  C   UNL     1      87.161  70.971  88.320  0.00  0.00    +0.000 A 
ATOM      5  C   UNL     1      85.926  71.621  88.145  0.00  0.00    +0.000 A 
ATOM      6  C   UNL     1      85.524  71.885  86.811  0.00  0.00    +0.000 A 
ATOM      7 CL   UNL     1      84.018  72.677  86.606  0.00  0.00    +0.000 Cl
ATOM      8  C   UNL     1      85.302  71.894  89.416  0.00  0.00    +0.000 A 
ATOM      9  C   UNL     1      86.045  71.464  90.488  0.00  0.00    +0.000 A 
ATOM     10  S   UNL     1      87.498  70.727  90.000  0.00  0.00    +0.000 S 
ATOM     11 CL   UNL     1      89.472  69.805  87.396  0.00  0.00    +0.000 Cl
ENDROOT
TORSDOF 0
ENDMDL
