REMARK  Name = *****
REMARK  3 active torsions:
REMARK  status: ('A' for Active; 'I' for Inactive)
REMARK    1  A    between atoms: C_1  and  C_2
REMARK    2  A    between atoms: C_5  and  C_12
REMARK    3  A    between atoms: C_8  and  C_11
REMARK                            x       y       z     vdW  Elec       q    Type
REMARK                         _______ _______ _______ _____ _____    ______ ____
ROOT
ATOM      1  C   UNL     1      -3.742   0.109  -0.116  0.00  0.00    +0.000 C 
ATOM      2  C   UNL     1      -2.259   0.031  -0.076  0.00  0.00    +0.000 C 
ATOM      3  C   UNL     1      -1.510  -1.084  -0.057  0.00  0.00    +0.000 C 
ATOM      4  C   UNL     1      -0.108  -0.689  -0.018  0.00  0.00    +0.000 A 
ATOM      5  C   UNL     1       1.040  -1.472   0.012  0.00  0.00    +0.000 A 
ATOM      6  C   UNL     1       2.274  -0.805   0.041  0.00  0.00    +0.000 A 
ATOM      7  C   UNL     1       2.345   0.600   0.042  0.00  0.00    +0.000 A 
ATOM      8  C   UNL     1       1.185   1.384   0.016  0.00  0.00    +0.000 A 
ATOM      9  C   UNL     1      -0.034   0.715  -0.016  0.00  0.00    +0.000 A 
ATOM     10  C   UNL     1      -1.421   1.289  -0.053  0.00  0.00    +0.000 C 
ATOM     11  C   UNL     1       1.257   2.879   0.014  0.00  0.00    +0.000 C 
ATOM     12  C   UNL     1       0.975  -2.968   0.005  0.00  0.00    +0.000 C 
ENDROOT
TORSDOF 0
