REMARK  Name = *****
REMARK  3 active torsions:
REMARK  status: ('A' for Active; 'I' for Inactive)
REMARK    1  A    between atoms: C_1  and  C_2
REMARK    2  A    between atoms: C_2  and  O_3
REMARK    3  A    between atoms: O_3  and  C_4
REMARK                            x       y       z     vdW  Elec       q    Type
REMARK                         _______ _______ _______ _____ _____    ______ ____
ROOT
ATOM      1  C   UNL     1       4.320   0.869  -1.177  0.00  0.00    +0.000 A 
ATOM      2  C   UNL     1       4.814   2.163  -1.368  0.00  0.00    +0.000 A 
ATOM      3  C   UNL     1       6.184   2.400  -1.563  0.00  0.00    +0.000 A 
ATOM      4  C   UNL     1       7.079   1.306  -1.566  0.00  0.00    +0.000 A 
ATOM      5  C   UNL     1       6.574   0.011  -1.373  0.00  0.00    +0.000 A 
ATOM      6  C   UNL     1       5.206  -0.206  -1.180  0.00  0.00    +0.000 A 
ATOM      7  C   UNL     1       8.450   1.537  -1.761  0.00  0.00    +0.000 A 
ATOM      8  C   UNL     1       8.925   2.835  -1.950  0.00  0.00    +0.000 A 
ATOM      9  C   UNL     1       8.049   3.916  -1.948  0.00  0.00    +0.000 A 
ATOM     10  C   UNL     1       6.684   3.699  -1.755  0.00  0.00    +0.000 A 
ATOM     11 BR   UNL     1      10.774   3.128  -2.212  0.00  0.00    +0.000 Br
ENDROOT
BRANCH   1  12
ATOM     12  O   UNL     1       2.966   0.796  -1.001  0.00  0.00    +0.000 OA
BRANCH  12  14
ATOM     13  C   UNL     1       0.904  -0.339  -0.635  0.00  0.00    +0.000 C 
ATOM     14  C   UNL     1       2.404  -0.500  -0.801  0.00  0.00    +0.000 C 
ENDBRANCH  12  14
ENDBRANCH   1  12
TORSDOF 2
