REMARK  Name = *****
REMARK  2 active torsions:
REMARK  status: ('A' for Active; 'I' for Inactive)
REMARK    1  A    between atoms: C_1  and  O_2
REMARK    2  A    between atoms: O_2  and  C_3
REMARK                            x       y       z     vdW  Elec       q    Type
REMARK                         _______ _______ _______ _____ _____    ______ ____
ROOT
ATOM      1  C   UNL     1       2.844  -1.127  -0.666  0.00  0.00    +0.000 A 
ATOM      2  C   UNL     1       3.906  -1.761  -0.016  0.00  0.00    +0.000 A 
ATOM      3  C   UNL     1       4.663  -2.757  -0.655  0.00  0.00    +0.000 A 
ATOM      4  C   UNL     1       4.343  -3.120  -1.982  0.00  0.00    +0.000 A 
ATOM      5  C   UNL     1       3.277  -2.476  -2.628  0.00  0.00    +0.000 A 
ATOM      6  C   UNL     1       2.533  -1.486  -1.975  0.00  0.00    +0.000 A 
ATOM      7  C   UNL     1       5.096  -4.115  -2.626  0.00  0.00    +0.000 A 
ATOM      8  C   UNL     1       6.150  -4.740  -1.960  0.00  0.00    +0.000 A 
ATOM      9  C   UNL     1       6.471  -4.386  -0.653  0.00  0.00    +0.000 A 
ATOM     10  C   UNL     1       5.730  -3.398  -0.003  0.00  0.00    +0.000 A 
ATOM     11 CL   UNL     1       7.063  -5.959  -2.762  0.00  0.00    +0.000 Cl
ENDROOT
BRANCH   1  13
ATOM     12  C   UNL     1       1.087   0.469  -0.519  0.00  0.00    +0.000 C 
ATOM     13  O   UNL     1       2.199  -0.181   0.083  0.00  0.00    +0.000 OA
ENDBRANCH   1  13
TORSDOF 1
