MODEL 1
REMARK VINA RESULT:      -4.3      0.000      0.000
REMARK  Name = *****
REMARK  3 active torsions:
REMARK  status: ('A' for Active; 'I' for Inactive)
REMARK    1  A    between atoms: C_1  and  C_2
REMARK    2  A    between atoms: C_8  and  O_10
REMARK    3  A    between atoms: O_10  and  C_11
REMARK                            x       y       z     vdW  Elec       q    Type
REMARK                         _______ _______ _______ _____ _____    ______ ____
ROOT
ATOM      1  C   UNL     1      83.440  72.825  86.279  0.00  0.00    +0.000 C 
ATOM      2  C   UNL     1      84.691  72.239  86.863  0.00  0.00    +0.000 A 
ATOM      3  C   UNL     1      85.733  71.793  86.042  0.00  0.00    +0.000 A 
ATOM      4  C   UNL     1      86.905  71.233  86.580  0.00  0.00    +0.000 A 
ATOM      5  C   UNL     1      87.049  71.110  87.982  0.00  0.00    +0.000 A 
ATOM      6  C   UNL     1      88.246  70.537  88.472  0.00  0.00    +0.000 A 
ATOM      7  C   UNL     1      89.260  70.099  87.611  0.00  0.00    +0.000 A 
ATOM      8  C   UNL     1      89.107  70.224  86.236  0.00  0.00    +0.000 A 
ATOM      9  C   UNL     1      87.934  70.791  85.732  0.00  0.00    +0.000 A 
ATOM     10  C   UNL     1      85.987  71.567  88.802  0.00  0.00    +0.000 A 
ATOM     11  C   UNL     1      84.828  72.121  88.247  0.00  0.00    +0.000 A 
ATOM     12 CL   UNL     1      86.056  71.468  90.532  0.00  0.00    +0.000 Cl
ENDROOT
BRANCH   8  13
ATOM     13  O   UNL     1      90.012  69.841  85.285  0.00  0.00    +0.000 OA
ATOM     14  C   UNL     1      90.445  70.840  84.370  0.00  0.00    +0.000 C 
ENDBRANCH   8  13
TORSDOF 1
ENDMDL
