REMARK  Name = *****
REMARK  4 active torsions:
REMARK  status: ('A' for Active; 'I' for Inactive)
REMARK    1  A    between atoms: C_1  and  O_2
REMARK    2  A    between atoms: O_2  and  C_3
REMARK    3  A    between atoms: C_10  and  O_13
REMARK    4  A    between atoms: O_13  and  C_14
REMARK                            x       y       z     vdW  Elec       q    Type
REMARK                         _______ _______ _______ _____ _____    ______ ____
ROOT
ATOM      1  C   UNL     1       2.773   1.109   0.732  0.00  0.00    +0.000 A 
ATOM      2  C   UNL     1       3.816   1.931   0.300  0.00  0.00    +0.000 A 
ATOM      3  C   UNL     1       4.618   2.643   1.209  0.00  0.00    +0.000 A 
ATOM      4  C   UNL     1       4.376   2.537   2.601  0.00  0.00    +0.000 A 
ATOM      5  C   UNL     1       3.313   1.697   3.012  0.00  0.00    +0.000 A 
ATOM      6  C   UNL     1       2.523   0.995   2.093  0.00  0.00    +0.000 A 
ATOM      7  C   UNL     1       5.210   3.272   3.488  0.00  0.00    +0.000 A 
ATOM      8  C   UNL     1       6.229   4.096   2.986  0.00  0.00    +0.000 A 
ATOM      9  C   UNL     1       6.468   4.169   1.617  0.00  0.00    +0.000 A 
ATOM     10  C   UNL     1       5.662   3.453   0.736  0.00  0.00    +0.000 A 
ATOM     11 CL   UNL     1       4.997   3.148   5.210  0.00  0.00    +0.000 Cl
ENDROOT
BRANCH   1  13
ATOM     12  C   UNL     1       1.027  -0.384   0.120  0.00  0.00    +0.000 C 
ATOM     13  O   UNL     1       2.085   0.483  -0.270  0.00  0.00    +0.000 OA
ENDBRANCH   1  13
BRANCH   8  14
ATOM     14  O   UNL     1       7.077   4.806   3.797  0.00  0.00    +0.000 OA
ATOM     15  C   UNL     1       6.480   6.036   4.213  0.00  0.00    +0.000 C 
ENDBRANCH   8  14
TORSDOF 2
