MODEL 1
REMARK VINA RESULT:      -3.9      0.000      0.000
REMARK  Name = *****
REMARK  1 active torsions:
REMARK  status: ('A' for Active; 'I' for Inactive)
REMARK    1  A    between atoms: C_1  and  N_2
REMARK                            x       y       z     vdW  Elec       q    Type
REMARK                         _______ _______ _______ _____ _____    ______ ____
ROOT
ATOM      1  C   UNL     1      87.788  70.175  85.079  0.00  0.00    +0.000 C 
ATOM      2  N   UNL     1      87.629  70.771  86.413  0.00  0.00    +0.000 N 
ATOM      3  C   UNL     1      86.358  71.297  86.819  0.00  0.00    +0.000 A 
ATOM      4  C   UNL     1      85.469  71.934  85.962  0.00  0.00    +0.000 A 
ATOM      5  C   UNL     1      84.319  72.525  86.489  0.00  0.00    +0.000 A 
ATOM      6  C   UNL     1      84.085  72.513  87.867  0.00  0.00    +0.000 A 
ATOM      7  C   UNL     1      85.002  71.918  88.733  0.00  0.00    +0.000 A 
ATOM      8  C   UNL     1      86.149  71.311  88.210  0.00  0.00    +0.000 A 
ATOM      9  C   UNL     1      87.244  70.671  89.028  0.00  0.00    +0.000 C 
ATOM     10  S   UNL     1      88.195  69.791  87.724  0.00  0.00    +0.000 S 
ATOM     11  O   UNL     1      89.628  69.985  87.817  0.00  0.00    +0.000 OA
ATOM     12  O   UNL     1      87.657  68.460  87.495  0.00  0.00    +0.000 OA
ATOM     13 CL   UNL     1      88.260  71.909  89.794  0.00  0.00    +0.000 Cl
ATOM     14 CL   UNL     1      86.642  69.501  90.214  0.00  0.00    +0.000 Cl
ENDROOT
TORSDOF 0
ENDMDL
