MODEL 1
REMARK VINA RESULT:      -4.2      0.000      0.000
REMARK  Name = *****
REMARK  1 active torsions:
REMARK  status: ('A' for Active; 'I' for Inactive)
REMARK    1  A    between atoms: N_15  and  O_16
REMARK                            x       y       z     vdW  Elec       q    Type
REMARK                         _______ _______ _______ _____ _____    ______ ____
ROOT
ATOM      1  C   UNL     1     102.012 125.917  81.921  0.00  0.00    +0.000 A 
ATOM      2  C   UNL     1     101.201 126.920  82.454  0.00  0.00    +0.000 A 
ATOM      3  C   UNL     1     101.786 128.018  83.094  0.00  0.00    +0.000 A 
ATOM      4  C   UNL     1     103.186 128.112  83.200  0.00  0.00    +0.000 A 
ATOM      5  C   UNL     1     104.004 127.103  82.664  0.00  0.00    +0.000 A 
ATOM      6  C   UNL     1     103.404 126.006  82.024  0.00  0.00    +0.000 A 
ATOM      7 CL   UNL     1     104.327 124.715  81.335  0.00  0.00    +0.000 Cl
ATOM      8 CL   UNL     1     105.732 127.207  82.788  0.00  0.00    +0.000 Cl
ATOM      9 CL   UNL     1     103.866 129.496  84.003  0.00  0.00    +0.000 Cl
ATOM     10  N   UNL     1     100.955 129.020  83.626  0.00  0.00    +0.000 N 
ATOM     11  C   UNL     1      99.580 129.003  83.567  0.00  0.00    +0.000 A 
ATOM     12  O   UNL     1      98.905 129.902  84.047  0.00  0.00    +0.000 OA
ATOM     13  C   UNL     1      98.926 127.800  82.863  0.00  0.00    +0.000 A 
ATOM     14  O   UNL     1      97.709 127.695  82.759  0.00  0.00    +0.000 OA
ATOM     15  N   UNL     1      99.803 126.860  82.367  0.00  0.00    +0.000 N 
ATOM     16  H   UNL     1     101.387 129.784  84.072  0.00  0.00    +0.000 HD
ENDROOT
BRANCH  15  17
ATOM     17  O   UNL     1      99.240 125.739  81.715  0.00  0.00    +0.000 OA
ATOM     18  H   UNL     1      99.166 125.729  80.781  0.00  0.00    +0.000 HD
ENDBRANCH  15  17
TORSDOF 1
ENDMDL
