REMARK  Name = *****
REMARK  0 active torsions:
REMARK  status: ('A' for Active; 'I' for Inactive)
REMARK                            x       y       z     vdW  Elec       q    Type
REMARK                         _______ _______ _______ _____ _____    ______ ____
ROOT
ATOM      1  C   UNL     1       1.041  -0.051   0.051  0.00  0.00    +0.000 C 
ATOM      2  C   UNL     1       2.376   0.022   0.106  0.00  0.00    +0.000 C 
ATOM      3  C   UNL     1       3.308  -1.167   0.014  0.00  0.00    +0.000 C 
ATOM      4  C   UNL     1       4.621  -0.566   0.501  0.00  0.00    +0.000 C 
ATOM      5  C   UNL     1       5.902  -1.271   0.080  0.00  0.00    +0.000 C 
ATOM      6  C   UNL     1       7.114  -0.459   0.556  0.00  0.00    +0.000 C 
ATOM      7  C   UNL     1       7.057   1.011   0.120  0.00  0.00    +0.000 C 
ATOM      8  C   UNL     1       5.723   1.686   0.467  0.00  0.00    +0.000 C 
ATOM      9  C   UNL     1       4.574   0.850  -0.076  0.00  0.00    +0.000 C 
ATOM     10  C   UNL     1       3.161   1.305   0.275  0.00  0.00    +0.000 C 
ENDROOT
TORSDOF 0
