MODEL 1
REMARK VINA RESULT:      -3.5      0.000      0.000
REMARK  Name = *****
REMARK  0 active torsions:
REMARK  status: ('A' for Active; 'I' for Inactive)
REMARK                            x       y       z     vdW  Elec       q    Type
REMARK                         _______ _______ _______ _____ _____    ______ ____
ROOT
ATOM      1  C   UNL     1      98.439 128.065  83.042  0.00  0.00    +0.000 A 
ATOM      2  C   UNL     1      99.105 126.996  82.437  0.00  0.00    +0.000 A 
ATOM      3  C   UNL     1     100.492 126.963  82.482  0.00  0.00    +0.000 A 
ATOM      4  C   UNL     1     101.207 127.949  83.163  0.00  0.00    +0.000 A 
ATOM      5  C   UNL     1     100.556 129.013  83.768  0.00  0.00    +0.000 A 
ATOM      6  C   UNL     1      99.160 129.072  83.702  0.00  0.00    +0.000 A 
ATOM      7 BR   UNL     1     101.489 130.381  84.680  0.00  0.00    +0.000 Br
ATOM      8  S   UNL     1     102.926 127.540  83.047  0.00  0.00    +0.000 S 
ATOM      9  N   UNL     1     102.667 126.248  82.011  0.00  0.00    +0.000 NA
ATOM     10  N   UNL     1     101.292 125.909  81.991  0.00  0.00    +0.000 N 
ATOM     11 BR   UNL     1     103.691 124.790  82.526  0.00  0.00    +0.000 Br
ATOM     12  H   UNL     1     100.939 125.047  81.676  0.00  0.00    +0.000 HD
ENDROOT
TORSDOF 0
ENDMDL
