MODEL 1
REMARK VINA RESULT:      -4.1      0.000      0.000
REMARK  Name = *****
REMARK  2 active torsions:
REMARK  status: ('A' for Active; 'I' for Inactive)
REMARK    1  A    between atoms: C_1  and  O_2
REMARK    2  A    between atoms: O_2  and  C_3
REMARK                            x       y       z     vdW  Elec       q    Type
REMARK                         _______ _______ _______ _____ _____    ______ ____
ROOT
ATOM      1  C   UNL     1      88.919  70.371  86.372  0.00  0.00    +0.000 A 
ATOM      2  C   UNL     1      87.798  70.881  85.712  0.00  0.00    +0.000 A 
ATOM      3  C   UNL     1      86.676  71.344  86.418  0.00  0.00    +0.000 A 
ATOM      4  C   UNL     1      85.562  71.849  85.726  0.00  0.00    +0.000 A 
ATOM      5  C   UNL     1      84.440  72.311  86.411  0.00  0.00    +0.000 A 
ATOM      6  C   UNL     1      84.415  72.277  87.799  0.00  0.00    +0.000 A 
ATOM      7  C   UNL     1      85.515  71.779  88.502  0.00  0.00    +0.000 A 
ATOM      8  C   UNL     1      86.669  71.302  87.832  0.00  0.00    +0.000 A 
ATOM      9  C   UNL     1      87.817  70.785  88.483  0.00  0.00    +0.000 A 
ATOM     10  C   UNL     1      88.926  70.325  87.761  0.00  0.00    +0.000 A 
ATOM     11 CL   UNL     1      87.919  70.688  90.213  0.00  0.00    +0.000 Cl
ENDROOT
BRANCH   1  13
ATOM     12  C   UNL     1      90.384  70.883  84.569  0.00  0.00    +0.000 C 
ATOM     13  O   UNL     1      89.927  69.956  85.547  0.00  0.00    +0.000 OA
ENDBRANCH   1  13
TORSDOF 1
ENDMDL
