MODEL 1
REMARK VINA RESULT:      -4.2      0.000      0.000
REMARK  Name = *****
REMARK  3 active torsions:
REMARK  status: ('A' for Active; 'I' for Inactive)
REMARK    1  A    between atoms: C_1  and  O_2
REMARK    2  A    between atoms: O_2  and  C_3
REMARK    3  A    between atoms: C_10  and  C_13
REMARK                            x       y       z     vdW  Elec       q    Type
REMARK                         _______ _______ _______ _____ _____    ______ ____
ROOT
ATOM      1  C   UNL     1      88.465  70.273  86.560  0.00  0.00    +0.000 A 
ATOM      2  C   UNL     1      87.668  70.654  87.661  0.00  0.00    +0.000 A 
ATOM      3  C   UNL     1      86.421  71.317  87.483  0.00  0.00    +0.000 A 
ATOM      4  C   UNL     1      85.990  71.588  86.164  0.00  0.00    +0.000 A 
ATOM      5  C   UNL     1      86.789  71.200  85.079  0.00  0.00    +0.000 A 
ATOM      6  C   UNL     1      88.011  70.551  85.272  0.00  0.00    +0.000 A 
ATOM      7  C   UNL     1      84.764  72.242  85.939  0.00  0.00    +0.000 A 
ATOM      8  C   UNL     1      83.946  72.655  86.997  0.00  0.00    +0.000 A 
ATOM      9  C   UNL     1      84.356  72.377  88.300  0.00  0.00    +0.000 A 
ATOM     10  C   UNL     1      85.572  71.725  88.539  0.00  0.00    +0.000 A 
ATOM     11 CL   UNL     1      88.245  70.296  89.269  0.00  0.00    +0.000 Cl
ENDROOT
BRANCH   1  13
ATOM     12  C   UNL     1      89.867  68.355  86.270  0.00  0.00    +0.000 C 
ATOM     13  O   UNL     1      89.650  69.640  86.837  0.00  0.00    +0.000 OA
ENDBRANCH   1  13
BRANCH   8  14
ATOM     14  C   UNL     1      82.666  73.308  86.695  0.00  0.00    +0.000 C 
ATOM     15  C   UNL     1      82.344  73.832  85.505  0.00  0.00    +0.000 C 
ENDBRANCH   8  14
TORSDOF 2
ENDMDL
