REMARK  Name = *****
REMARK  0 active torsions:
REMARK  status: ('A' for Active; 'I' for Inactive)
REMARK                            x       y       z     vdW  Elec       q    Type
REMARK                         _______ _______ _______ _____ _____    ______ ____
ROOT
ATOM      1  C   UNL     1      -1.266   1.477   0.188  0.00  0.00    +0.000 C 
ATOM      2  C   UNL     1      -2.440   0.695  -0.387  0.00  0.00    +0.000 C 
ATOM      3  C   UNL     1      -2.435  -0.760   0.074  0.00  0.00    +0.000 C 
ATOM      4  O   UNL     1      -3.443  -1.446   0.235  0.00  0.00    +0.000 OA
ATOM      5  N   UNL     1      -1.198  -1.352   0.183  0.00  0.00    +0.000 N 
ATOM      6  C   UNL     1       0.018  -0.673   0.070  0.00  0.00    +0.000 A 
ATOM      7  C   UNL     1       1.210  -1.395   0.032  0.00  0.00    +0.000 A 
ATOM      8  C   UNL     1       2.430  -0.717  -0.068  0.00  0.00    +0.000 A 
ATOM      9  C   UNL     1       2.452   0.682  -0.115  0.00  0.00    +0.000 A 
ATOM     10  C   UNL     1       1.252   1.400  -0.060  0.00  0.00    +0.000 A 
ATOM     11  C   UNL     1       0.028   0.724   0.023  0.00  0.00    +0.000 A 
ATOM     12 CL   UNL     1       3.922   1.583  -0.223  0.00  0.00    +0.000 Cl
ATOM     13 CL   UNL     1       3.872  -1.667  -0.123  0.00  0.00    +0.000 Cl
ATOM     14 CL   UNL     1      -3.970   1.490   0.073  0.00  0.00    +0.000 Cl
ATOM     15  H   UNL     1      -1.167  -2.321   0.352  0.00  0.00    +0.000 HD
ENDROOT
TORSDOF 0
