REMARK  Name = *****
REMARK  2 active torsions:
REMARK  status: ('A' for Active; 'I' for Inactive)
REMARK    1  A    between atoms: C_1  and  O_2
REMARK    2  A    between atoms: O_2  and  C_3
REMARK                            x       y       z     vdW  Elec       q    Type
REMARK                         _______ _______ _______ _____ _____    ______ ____
ROOT
ATOM      1  C   UNL     1       3.055  -0.706  -1.369  0.00  0.00    +0.000 A 
ATOM      2  C   UNL     1       2.841  -1.068  -2.723  0.00  0.00    +0.000 A 
ATOM      3  C   UNL     1       3.590  -2.108  -3.300  0.00  0.00    +0.000 A 
ATOM      4  C   UNL     1       4.538  -2.740  -2.509  0.00  0.00    +0.000 A 
ATOM      5  C   UNL     1       4.741  -2.353  -1.186  0.00  0.00    +0.000 A 
ATOM      6  C   UNL     1       4.027  -1.338  -0.587  0.00  0.00    +0.000 A 
ATOM      7  C   UNL     1       5.802  -3.202  -0.640  0.00  0.00    +0.000 C 
ATOM      8  O   UNL     1       6.250  -3.170   0.482  0.00  0.00    +0.000 OA
ATOM      9  C   UNL     1       6.209  -4.147  -1.803  0.00  0.00    +0.000 C 
ATOM     10  O   UNL     1       7.058  -5.007  -1.768  0.00  0.00    +0.000 OA
ATOM     11  N   UNL     1       5.397  -3.787  -2.859  0.00  0.00    +0.000 N 
ATOM     12 CL   UNL     1       3.382  -2.622  -4.935  0.00  0.00    +0.000 Cl
ATOM     13 CL   UNL     1       1.641  -0.218  -3.643  0.00  0.00    +0.000 Cl
ATOM     14  H   UNL     1       5.419  -4.213  -3.746  0.00  0.00    +0.000 HD
ENDROOT
BRANCH   1  16
ATOM     15  C   UNL     1       1.328  -0.120   0.046  0.00  0.00    +0.000 C 
ATOM     16  O   UNL     1       2.364   0.347  -0.821  0.00  0.00    +0.000 OA
ENDBRANCH   1  16
TORSDOF 1
