MODEL 1
REMARK VINA RESULT:      -4.4      0.000      0.000
REMARK  Name = *****
REMARK  0 active torsions:
REMARK  status: ('A' for Active; 'I' for Inactive)
REMARK                            x       y       z     vdW  Elec       q    Type
REMARK                         _______ _______ _______ _____ _____    ______ ____
ROOT
ATOM      1  C   UNL     1     100.408 128.670  83.445  0.00  0.00    +0.000 A 
ATOM      2  C   UNL     1      99.154 128.252  83.231  0.00  0.00    +0.000 A 
ATOM      3  C   UNL     1      98.874 126.966  82.548  0.00  0.00    +0.000 A 
ATOM      4  O   UNL     1      97.723 126.593  82.357  0.00  0.00    +0.000 OA
ATOM      5  N   UNL     1      99.959 126.230  82.151  0.00  0.00    +0.000 N 
ATOM      6  C   UNL     1     101.284 126.634  82.355  0.00  0.00    +0.000 A 
ATOM      7  C   UNL     1     102.332 125.825  81.918  0.00  0.00    +0.000 A 
ATOM      8  C   UNL     1     103.652 126.237  82.125  0.00  0.00    +0.000 A 
ATOM      9  C   UNL     1     103.916 127.454  82.770  0.00  0.00    +0.000 A 
ATOM     10  C   UNL     1     102.859 128.260  83.207  0.00  0.00    +0.000 A 
ATOM     11  C   UNL     1     101.538 127.852  83.001  0.00  0.00    +0.000 A 
ATOM     12 CL   UNL     1     105.524 128.019  83.056  0.00  0.00    +0.000 Cl
ATOM     13 CL   UNL     1     104.913 125.198  81.562  0.00  0.00    +0.000 Cl
ATOM     14  H   UNL     1      99.798 125.372  81.696  0.00  0.00    +0.000 HD
ENDROOT
TORSDOF 0
ENDMDL
