MODEL 1
REMARK VINA RESULT:      -4.0      0.000      0.000
REMARK  Name = *****
REMARK  2 active torsions:
REMARK  status: ('A' for Active; 'I' for Inactive)
REMARK    1  A    between atoms: C_8  and  O_11
REMARK    2  A    between atoms: O_11  and  C_12
REMARK                            x       y       z     vdW  Elec       q    Type
REMARK                         _______ _______ _______ _____ _____    ______ ____
ROOT
ATOM      1  C   UNL     1      85.638  71.840  85.938  0.00  0.00    +0.000 A 
ATOM      2  C   UNL     1      84.562  72.285  86.708  0.00  0.00    +0.000 A 
ATOM      3  C   UNL     1      84.619  72.185  88.095  0.00  0.00    +0.000 A 
ATOM      4  C   UNL     1      85.744  71.642  88.720  0.00  0.00    +0.000 A 
ATOM      5  C   UNL     1      86.832  71.192  87.954  0.00  0.00    +0.000 A 
ATOM      6  C   UNL     1      86.779  71.292  86.547  0.00  0.00    +0.000 A 
ATOM      7  C   UNL     1      87.869  70.841  85.785  0.00  0.00    +0.000 A 
ATOM      8  C   UNL     1      89.004  70.297  86.395  0.00  0.00    +0.000 A 
ATOM      9  C   UNL     1      89.052  70.199  87.783  0.00  0.00    +0.000 A 
ATOM     10  C   UNL     1      87.974  70.643  88.556  0.00  0.00    +0.000 A 
ATOM     11  I   UNL     1      83.019  72.847  89.245  0.00  0.00    +0.000 I 
ENDROOT
BRANCH   8  12
ATOM     12  O   UNL     1      89.985  69.902  85.525  0.00  0.00    +0.000 OA
ATOM     13  C   UNL     1      90.428  70.862  84.576  0.00  0.00    +0.000 C 
ENDBRANCH   8  12
TORSDOF 1
ENDMDL
