MODEL 1
REMARK VINA RESULT:      -2.8      0.000      0.000
REMARK  Name = *****
REMARK  0 active torsions:
REMARK  status: ('A' for Active; 'I' for Inactive)
REMARK                            x       y       z     vdW  Elec       q    Type
REMARK                         _______ _______ _______ _____ _____    ______ ____
ROOT
ATOM      1  C   UNL     1     102.203 126.513  81.984  0.00  0.00    +0.000 C 
ATOM      2  C   UNL     1     103.125 127.344  81.086  0.00  0.00    +0.000 C 
ATOM      3  C   UNL     1     103.965 126.476  80.143  0.00  0.00    +0.000 C 
ATOM      4  C   UNL     1     104.717 125.416  80.944  0.00  0.00    +0.000 C 
ATOM      5  C   UNL     1     103.739 124.551  81.730  0.00  0.00    +0.000 C 
ATOM      6  C   UNL     1     102.955 125.402  82.725  0.00  0.00    +0.000 C 
ATOM      7  S   UNL     1     104.736 123.253  82.515  0.00  0.00    +0.000 S 
ATOM      8  C   UNL     1     105.809 123.013  81.136  0.00  0.00    +0.000 C 
ATOM      9  S   UNL     1     106.844 121.716  81.002  0.00  0.00    +0.000 S 
ATOM     10  S   UNL     1     105.679 124.275  79.911  0.00  0.00    +0.000 S 
ENDROOT
TORSDOF 0
ENDMDL
