MODEL 1
REMARK VINA RESULT:      -3.7      0.000      0.000
REMARK  Name = *****
REMARK  1 active torsions:
REMARK  status: ('A' for Active; 'I' for Inactive)
REMARK    1  A    between atoms: C_6  and  C_10
REMARK                            x       y       z     vdW  Elec       q    Type
REMARK                         _______ _______ _______ _____ _____    ______ ____
ROOT
ATOM      1  C   UNL     1     102.577 127.669  81.961  0.00  0.00    +0.000 C 
ATOM      2  C   UNL     1     102.156 126.617  82.691  0.00  0.00    +0.000 C 
ATOM      3  C   UNL     1     102.804 125.310  82.804  0.00  0.00    +0.000 C 
ATOM      4  C   UNL     1     103.675 124.751  81.944  0.00  0.00    +0.000 C 
ATOM      5  C   UNL     1     104.186 125.317  80.721  0.00  0.00    +0.000 C 
ATOM      6  C   UNL     1     105.013 124.439  80.162  0.00  0.00    +0.000 C 
ATOM      7  C   UNL     1     105.034 123.290  81.065  0.00  0.00    +0.000 C 
ATOM      8  S   UNL     1     105.856 121.849  80.984  0.00  0.00    +0.000 S 
ATOM      9  O   UNL     1     104.217 123.490  82.148  0.00  0.00    +0.000 OA
ATOM     10  C   UNL     1     103.805 126.627  80.202  0.00  0.00    +0.000 C 
ATOM     11  C   UNL     1     103.773 127.608  81.127  0.00  0.00    +0.000 C 
ENDROOT
BRANCH   6  12
ATOM     12  C   UNL     1     105.724 124.566  78.954  0.00  0.00    +0.000 C 
ATOM     13  N   UNL     1     106.322 124.681  77.966  0.00  0.00    +0.000 NA
ENDBRANCH   6  12
TORSDOF 1
ENDMDL
