MODEL 1
REMARK VINA RESULT:      -3.8      0.000      0.000
REMARK  Name = *****
REMARK  2 active torsions:
REMARK  status: ('A' for Active; 'I' for Inactive)
REMARK    1  A    between atoms: C_1  and  C_2
REMARK    2  A    between atoms: N_10  and  C_13
REMARK                            x       y       z     vdW  Elec       q    Type
REMARK                         _______ _______ _______ _____ _____    ______ ____
ROOT
ATOM      1  C   UNL     1     103.705 126.854  80.296  0.00  0.00    +0.000 C 
ATOM      2  C   UNL     1     102.959 125.679  80.918  0.00  0.00    +0.000 C 
ATOM      3  C   UNL     1     102.213 126.092  82.160  0.00  0.00    +0.000 A 
ATOM      4  C   UNL     1     102.702 125.395  83.268  0.00  0.00    +0.000 A 
ATOM      5  C   UNL     1     102.184 125.610  84.533  0.00  0.00    +0.000 A 
ATOM      6  C   UNL     1     101.152 126.545  84.675  0.00  0.00    +0.000 A 
ATOM      7  C   UNL     1     100.658 127.237  83.559  0.00  0.00    +0.000 A 
ATOM      8  C   UNL     1     101.184 127.015  82.287  0.00  0.00    +0.000 A 
ATOM      9 CL   UNL     1      99.387 128.379  83.764  0.00  0.00    +0.000 Cl
ATOM     10  N   UNL     1     103.721 124.520  82.859  0.00  0.00    +0.000 N 
ATOM     11  C   UNL     1     103.912 124.599  81.469  0.00  0.00    +0.000 C 
ATOM     12  S   UNL     1     104.930 123.676  80.524  0.00  0.00    +0.000 S 
ATOM     13  C   UNL     1     104.422 123.617  83.749  0.00  0.00    +0.000 C 
ENDROOT
TORSDOF 0
ENDMDL
