MODEL 1
REMARK VINA RESULT:      -3.5      0.000      0.000
REMARK  Name = *****
REMARK  3 active torsions:
REMARK  status: ('A' for Active; 'I' for Inactive)
REMARK    1  A    between atoms: C_1  and  O_2
REMARK    2  A    between atoms: O_2  and  C_3
REMARK    3  A    between atoms: C_9  and  C_12
REMARK                            x       y       z     vdW  Elec       q    Type
REMARK                         _______ _______ _______ _____ _____    ______ ____
ROOT
ATOM      1  C   UNL     1     105.352 123.182  80.739  0.00  0.00    +0.000 A 
ATOM      2  C   UNL     1     105.250 124.311  79.950  0.00  0.00    +0.000 A 
ATOM      3  C   UNL     1     104.448 125.362  80.520  0.00  0.00    +0.000 A 
ATOM      4  C   UNL     1     104.111 126.651  80.023  0.00  0.00    +0.000 A 
ATOM      5  C   UNL     1     103.303 127.521  80.759  0.00  0.00    +0.000 A 
ATOM      6  C   UNL     1     102.815 127.135  81.998  0.00  0.00    +0.000 A 
ATOM      7  C   UNL     1     103.128 125.873  82.516  0.00  0.00    +0.000 A 
ATOM      8  C   UNL     1     103.945 124.990  81.772  0.00  0.00    +0.000 A 
ATOM      9  S   UNL     1     104.467 123.401  82.188  0.00  0.00    +0.000 S 
ATOM     10 CL   UNL     1     106.009 124.471  78.412  0.00  0.00    +0.000 Cl
ENDROOT
BRANCH   1  12
ATOM     11  C   UNL     1     107.413 121.992  80.800  0.00  0.00    +0.000 C 
ATOM     12  O   UNL     1     106.045 122.074  80.421  0.00  0.00    +0.000 OA
ENDBRANCH   1  12
BRANCH   7  13
ATOM     13  C   UNL     1     102.630 125.466  83.793  0.00  0.00    +0.000 C 
ATOM     14  N   UNL     1     102.242 125.126  84.833  0.00  0.00    +0.000 NA
ENDBRANCH   7  13
TORSDOF 2
ENDMDL
