REMARK  Name = *****
REMARK  0 active torsions:
REMARK  status: ('A' for Active; 'I' for Inactive)
REMARK                            x       y       z     vdW  Elec       q    Type
REMARK                         _______ _______ _______ _____ _____    ______ ____
ROOT
ATOM      1  C   UNL     1       2.491  -0.119   0.465  0.00  0.00    +0.000 C 
ATOM      2  C   UNL     1       1.565   1.015  -0.033  0.00  0.00    +0.000 C 
ATOM      3  C   UNL     1       0.424   0.235  -0.536  0.00  0.00    +0.000 C 
ATOM      4  C   UNL     1       0.452  -1.044  -0.159  0.00  0.00    +0.000 C 
ATOM      5  C   UNL     1       1.619  -1.379   0.672  0.00  0.00    +0.000 C 
ATOM      6  C   UNL     1      -0.885  -1.644  -0.441  0.00  0.00    +0.000 C 
ATOM      7  C   UNL     1      -1.906  -1.012   0.532  0.00  0.00    +0.000 C 
ATOM      8  C   UNL     1      -1.939   0.484   0.091  0.00  0.00    +0.000 C 
ATOM      9  C   UNL     1      -0.934   0.530  -1.081  0.00  0.00    +0.000 C 
ATOM     10  C   UNL     1      -1.204  -0.847  -1.723  0.00  0.00    +0.000 C 
ENDROOT
TORSDOF 0
