MODEL 1
REMARK VINA RESULT:      -3.7      0.000      0.000
REMARK  Name = *****
REMARK  4 active torsions:
REMARK  status: ('A' for Active; 'I' for Inactive)
REMARK    1  A    between atoms: C_1  and  C_2
REMARK    2  A    between atoms: C_3  and  C_14
REMARK    3  A    between atoms: C_9  and  O_12
REMARK    4  A    between atoms: O_12  and  C_13
REMARK                            x       y       z     vdW  Elec       q    Type
REMARK                         _______ _______ _______ _____ _____    ______ ____
ROOT
ATOM      1  C   UNL     1     103.530 127.482  80.010  0.00  0.00    +0.000 C 
ATOM      2  C   UNL     1     103.539 126.422  81.070  0.00  0.00    +0.000 A 
ATOM      3  C   UNL     1     102.909 126.501  82.299  0.00  0.00    +0.000 A 
ATOM      4  S   UNL     1     103.148 125.094  83.232  0.00  0.00    +0.000 S 
ATOM      5  C   UNL     1     104.107 124.324  82.023  0.00  0.00    +0.000 A 
ATOM      6  C   UNL     1     104.236 125.157  80.907  0.00  0.00    +0.000 A 
ATOM      7  C   UNL     1     104.997 124.676  79.812  0.00  0.00    +0.000 A 
ATOM      8  C   UNL     1     105.599 123.414  79.843  0.00  0.00    +0.000 A 
ATOM      9  C   UNL     1     105.465 122.593  80.956  0.00  0.00    +0.000 A 
ATOM     10  C   UNL     1     104.714 123.043  82.060  0.00  0.00    +0.000 A 
ATOM     11 BR   UNL     1     104.518 121.930  83.601  0.00  0.00    +0.000 Br
ATOM     12  C   UNL     1     102.085 127.600  82.891  0.00  0.00    +0.000 C 
ENDROOT
BRANCH   9  13
ATOM     13  O   UNL     1     106.024 121.344  81.060  0.00  0.00    +0.000 OA
ATOM     14  C   UNL     1     107.440 121.239  81.014  0.00  0.00    +0.000 C 
ENDBRANCH   9  13
TORSDOF 1
ENDMDL
