MODEL 1
REMARK VINA RESULT:      -3.4      0.000      0.000
REMARK  Name = *****
REMARK  0 active torsions:
REMARK  status: ('A' for Active; 'I' for Inactive)
REMARK                            x       y       z     vdW  Elec       q    Type
REMARK                         _______ _______ _______ _____ _____    ______ ____
ROOT
ATOM      1  C   UNL     1      95.678 117.641  79.855  0.00  0.00    +0.000 C 
ATOM      2  C   UNL     1      95.271 118.807  80.742  0.00  0.00    +0.000 C 
ATOM      3  C   UNL     1      96.299 118.789  81.874  0.00  0.00    +0.000 C 
ATOM      4  C   UNL     1      96.849 120.170  82.287  0.00  0.00    +0.000 C 
ATOM      5  C   UNL     1      97.744 119.982  83.528  0.00  0.00    +0.000 C 
ATOM      6  C   UNL     1      98.987 119.276  82.956  0.00  0.00    +0.000 C 
ATOM      7  C   UNL     1      98.653 119.145  81.458  0.00  0.00    +0.000 C 
ATOM      8  C   UNL     1      97.901 120.455  81.211  0.00  0.00    +0.000 C 
ATOM      9  C   UNL     1      97.550 118.078  81.300  0.00  0.00    +0.000 C 
ATOM     10  C   UNL     1      97.198 117.710  79.858  0.00  0.00    +0.000 C 
ENDROOT
TORSDOF 0
ENDMDL
