MODEL 1
REMARK VINA RESULT:      -4.1      0.000      0.000
REMARK  Name = *****
REMARK  4 active torsions:
REMARK  status: ('A' for Active; 'I' for Inactive)
REMARK    1  A    between atoms: C_1  and  C_2
REMARK    2  A    between atoms: C_9  and  O_13
REMARK    3  A    between atoms: C_10  and  C_12
REMARK    4  A    between atoms: O_13  and  C_14
REMARK                            x       y       z     vdW  Elec       q    Type
REMARK                         _______ _______ _______ _____ _____    ______ ____
ROOT
ATOM      1  C   UNL     1      99.363 130.387  83.437  0.00  0.00    +0.000 C 
ATOM      2  C   UNL     1      99.730 129.174  84.303  0.00  0.00    +0.000 C 
ATOM      3  C   UNL     1      98.465 128.452  84.814  0.00  0.00    +0.000 C 
ATOM      4  C   UNL     1      97.889 127.478  83.826  0.00  0.00    +0.000 C 
ATOM      5  C   UNL     1      98.646 126.878  82.896  0.00  0.00    +0.000 C 
ATOM      6  C   UNL     1     100.086 127.147  82.829  0.00  0.00    +0.000 A 
ATOM      7  C   UNL     1     100.637 128.240  83.520  0.00  0.00    +0.000 A 
ATOM      8  C   UNL     1     102.017 128.491  83.439  0.00  0.00    +0.000 A 
ATOM      9  C   UNL     1     102.851 127.664  82.680  0.00  0.00    +0.000 A 
ATOM     10  C   UNL     1     102.302 126.568  81.993  0.00  0.00    +0.000 A 
ATOM     11  C   UNL     1     100.921 126.322  82.069  0.00  0.00    +0.000 A 
ATOM     12  C   UNL     1     103.176 125.657  81.175  0.00  0.00    +0.000 C 
ENDROOT
BRANCH   9  13
ATOM     13  O   UNL     1     104.205 127.834  82.541  0.00  0.00    +0.000 OA
ATOM     14  C   UNL     1     104.673 129.145  82.257  0.00  0.00    +0.000 C 
ENDBRANCH   9  13
TORSDOF 1
ENDMDL
