MODEL 1
REMARK VINA RESULT:      -4.0      0.000      0.000
REMARK  Name = *****
REMARK  2 active torsions:
REMARK  status: ('A' for Active; 'I' for Inactive)
REMARK    1  A    between atoms: C_1  and  O_2
REMARK    2  A    between atoms: O_2  and  C_3
REMARK                            x       y       z     vdW  Elec       q    Type
REMARK                         _______ _______ _______ _____ _____    ______ ____
ROOT
ATOM      1  C   UNL     1      88.231  70.534  86.886  0.00  0.00    +0.000 A 
ATOM      2  C   UNL     1      87.418  70.848  87.994  0.00  0.00    +0.000 A 
ATOM      3  C   UNL     1      86.150  71.476  87.832  0.00  0.00    +0.000 A 
ATOM      4  C   UNL     1      85.283  71.826  88.898  0.00  0.00    +0.000 A 
ATOM      5  C   UNL     1      84.050  72.443  88.673  0.00  0.00    +0.000 A 
ATOM      6  C   UNL     1      83.646  72.728  87.376  0.00  0.00    +0.000 A 
ATOM      7  C   UNL     1      84.475  72.396  86.306  0.00  0.00    +0.000 A 
ATOM      8  C   UNL     1      85.717  71.776  86.518  0.00  0.00    +0.000 A 
ATOM      9  C   UNL     1      86.533  71.451  85.425  0.00  0.00    +0.000 A 
ATOM     10  C   UNL     1      87.775  70.837  85.604  0.00  0.00    +0.000 A 
ATOM     11 CL   UNL     1      87.999  70.456  89.593  0.00  0.00    +0.000 Cl
ENDROOT
BRANCH   1  13
ATOM     12  C   UNL     1      89.731  68.714  86.480  0.00  0.00    +0.000 C 
ATOM     13  O   UNL     1      89.437  69.931  87.149  0.00  0.00    +0.000 OA
ENDBRANCH   1  13
TORSDOF 1
ENDMDL
