REMARK  Name = *****
REMARK  0 active torsions:
REMARK  status: ('A' for Active; 'I' for Inactive)
REMARK                            x       y       z     vdW  Elec       q    Type
REMARK                         _______ _______ _______ _____ _____    ______ ____
ROOT
ATOM      1  C   UNL     1       1.966  -1.270  -0.755  0.00  0.00    +0.000 C 
ATOM      2  S   UNL     1       3.149  -0.135   0.016  0.00  0.00    +0.000 S 
ATOM      3  C   UNL     1       2.017   1.053   0.783  0.00  0.00    +0.000 C 
ATOM      4  S   UNL     1       0.779   1.665  -0.369  0.00  0.00    +0.000 S 
ATOM      5  C   UNL     1      -0.588   0.616  -0.128  0.00  0.00    +0.000 A 
ATOM      6  C   UNL     1      -0.620  -0.709   0.138  0.00  0.00    +0.000 A 
ATOM      7  S   UNL     1       0.695  -1.820   0.392  0.00  0.00    +0.000 S 
ATOM      8  S   UNL     1      -2.217  -1.429   0.305  0.00  0.00    +0.000 S 
ATOM      9  C   UNL     1      -3.152   0.011  -0.012  0.00  0.00    +0.000 A 
ATOM     10  S   UNL     1      -4.817   0.048  -0.027  0.00  0.00    +0.000 S 
ATOM     11  S   UNL     1      -2.148   1.408  -0.313  0.00  0.00    +0.000 S 
ENDROOT
TORSDOF 0
