MODEL 1
REMARK VINA RESULT:      -4.2      0.000      0.000
REMARK  Name = *****
REMARK  3 active torsions:
REMARK  status: ('A' for Active; 'I' for Inactive)
REMARK    1  A    between atoms: C_1  and  C_2
REMARK    2  A    between atoms: C_11  and  O_12
REMARK    3  A    between atoms: O_12  and  C_13
REMARK                            x       y       z     vdW  Elec       q    Type
REMARK                         _______ _______ _______ _____ _____    ______ ____
ROOT
ATOM      1  C   UNL     1      89.544  69.843  87.063  0.00  0.00    +0.000 C 
ATOM      2  C   UNL     1      88.223  70.508  87.329  0.00  0.00    +0.000 A 
ATOM      3  C   UNL     1      87.472  70.879  86.188  0.00  0.00    +0.000 A 
ATOM      4  C   UNL     1      86.216  71.502  86.279  0.00  0.00    +0.000 A 
ATOM      5  C   UNL     1      85.481  71.861  85.137  0.00  0.00    +0.000 A 
ATOM      6  C   UNL     1      84.233  72.477  85.255  0.00  0.00    +0.000 A 
ATOM      7  C   UNL     1      83.707  72.743  86.515  0.00  0.00    +0.000 A 
ATOM      8  C   UNL     1      84.428  72.392  87.657  0.00  0.00    +0.000 A 
ATOM      9  C   UNL     1      85.684  71.770  87.551  0.00  0.00    +0.000 A 
ATOM     10  C   UNL     1      86.427  71.405  88.684  0.00  0.00    +0.000 A 
ATOM     11  C   UNL     1      87.685  70.780  88.595  0.00  0.00    +0.000 A 
ENDROOT
BRANCH  11  12
ATOM     12  O   UNL     1      88.186  70.526  89.841  0.00  0.00    +0.000 OA
ATOM     13  C   UNL     1      88.449  71.569  90.757  0.00  0.00    +0.000 C 
ENDBRANCH  11  12
TORSDOF 1
ENDMDL
