MODEL 1
REMARK VINA RESULT:      -3.6      0.000      0.000
REMARK  Name = *****
REMARK  1 active torsions:
REMARK  status: ('A' for Active; 'I' for Inactive)
REMARK    1  A    between atoms: C_8  and  N_10
REMARK                            x       y       z     vdW  Elec       q    Type
REMARK                         _______ _______ _______ _____ _____    ______ ____
ROOT
ATOM      1  C   UNL     1     104.673 123.889  80.400  0.00  0.00    +0.000 A 
ATOM      2  C   UNL     1     104.849 123.245  81.617  0.00  0.00    +0.000 A 
ATOM      3  C   UNL     1     104.239 123.734  82.775  0.00  0.00    +0.000 A 
ATOM      4  C   UNL     1     103.440 124.890  82.686  0.00  0.00    +0.000 A 
ATOM      5  C   UNL     1     103.245 125.553  81.474  0.00  0.00    +0.000 A 
ATOM      6  C   UNL     1     103.880 125.037  80.318  0.00  0.00    +0.000 A 
ATOM      7  C   UNL     1     102.397 126.697  81.641  0.00  0.00    +0.000 A 
ATOM      8  C   UNL     1     101.945 126.875  82.935  0.00  0.00    +0.000 A 
ATOM      9  S   UNL     1     102.606 125.675  83.970  0.00  0.00    +0.000 S 
ENDROOT
BRANCH   8  10
ATOM     10  N   UNL     1     101.149 127.854  83.448  0.00  0.00    +0.000 NA
ATOM     11  C   UNL     1     100.021 127.721  83.146  0.00  0.00    +0.000 C 
ATOM     12  S   UNL     1      98.483 127.572  82.754  0.00  0.00    +0.000 S 
ENDBRANCH   8  10
TORSDOF 1
ENDMDL
