MODEL 1
REMARK VINA RESULT:      -3.9      0.000      0.000
REMARK  Name = *****
REMARK  1 active torsions:
REMARK  status: ('A' for Active; 'I' for Inactive)
REMARK    1  A    between atoms: C_9  and  C_11
REMARK                            x       y       z     vdW  Elec       q    Type
REMARK                         _______ _______ _______ _____ _____    ______ ____
ROOT
ATOM      1  C   UNL     1      98.620 128.316  83.435  0.00  0.00    +0.000 A 
ATOM      2  C   UNL     1      98.984 127.158  82.739  0.00  0.00    +0.000 A 
ATOM      3  C   UNL     1     100.349 126.944  82.517  0.00  0.00    +0.000 A 
ATOM      4  C   UNL     1     101.335 127.829  82.956  0.00  0.00    +0.000 A 
ATOM      5  C   UNL     1     100.947 128.989  83.653  0.00  0.00    +0.000 A 
ATOM      6  C   UNL     1      99.586 129.214  83.882  0.00  0.00    +0.000 A 
ATOM      7 CL   UNL     1      99.097 130.629  84.736  0.00  0.00    +0.000 Cl
ATOM      8  C   UNL     1     102.591 127.292  82.555  0.00  0.00    +0.000 A 
ATOM      9  C   UNL     1     102.348 126.109  81.891  0.00  0.00    +0.000 A 
ATOM     10  N   UNL     1     100.992 125.909  81.873  0.00  0.00    +0.000 N 
ATOM     11  H   UNL     1     100.542 125.138  81.460  0.00  0.00    +0.000 HD
ENDROOT
BRANCH   9  12
ATOM     12  C   UNL     1     103.286 125.215  81.308  0.00  0.00    +0.000 C 
ATOM     13  N   UNL     1     104.055 124.504  80.811  0.00  0.00    +0.000 NA
ENDBRANCH   9  12
TORSDOF 1
ENDMDL
