MODEL 1
REMARK VINA RESULT:      -4.1      0.000      0.000
REMARK  Name = *****
REMARK  3 active torsions:
REMARK  status: ('A' for Active; 'I' for Inactive)
REMARK    1  A    between atoms: C_1  and  C_2
REMARK    2  A    between atoms: C_2  and  O_3
REMARK    3  A    between atoms: O_3  and  C_4
REMARK                            x       y       z     vdW  Elec       q    Type
REMARK                         _______ _______ _______ _____ _____    ______ ____
ROOT
ATOM      1  C   UNL     1      89.038  70.251  86.143  0.00  0.00    +0.000 A 
ATOM      2  C   UNL     1      87.838  70.791  85.677  0.00  0.00    +0.000 A 
ATOM      3  C   UNL     1      86.847  71.230  86.575  0.00  0.00    +0.000 A 
ATOM      4  C   UNL     1      87.071  71.120  87.967  0.00  0.00    +0.000 A 
ATOM      5  C   UNL     1      88.279  70.578  88.424  0.00  0.00    +0.000 A 
ATOM      6  C   UNL     1      89.250  70.148  87.518  0.00  0.00    +0.000 A 
ATOM      7  C   UNL     1      86.081  71.556  88.863  0.00  0.00    +0.000 A 
ATOM      8  C   UNL     1      84.882  72.096  88.395  0.00  0.00    +0.000 A 
ATOM      9  C   UNL     1      84.666  72.202  87.025  0.00  0.00    +0.000 A 
ATOM     10  C   UNL     1      85.635  71.774  86.117  0.00  0.00    +0.000 A 
ATOM     11 BR   UNL     1      83.042  72.932  86.387  0.00  0.00    +0.000 Br
ENDROOT
BRANCH   1  12
ATOM     12  O   UNL     1      90.069  69.792  85.373  0.00  0.00    +0.000 OA
BRANCH  12  14
ATOM     13  C   UNL     1      91.075  71.273  83.800  0.00  0.00    +0.000 C 
ATOM     14  C   UNL     1      90.066  70.155  83.993  0.00  0.00    +0.000 C 
ENDBRANCH  12  14
ENDBRANCH   1  12
TORSDOF 2
ENDMDL
