MODEL 1
REMARK VINA RESULT:      -3.5      0.000      0.000
REMARK  Name = *****
REMARK  0 active torsions:
REMARK  status: ('A' for Active; 'I' for Inactive)
REMARK                            x       y       z     vdW  Elec       q    Type
REMARK                         _______ _______ _______ _____ _____    ______ ____
ROOT
ATOM      1  C   UNL     1      84.811  72.350  86.903  0.00  0.00    +0.000 C 
ATOM      2  C   UNL     1      84.812  72.055  88.441  0.00  0.00    +0.000 C 
ATOM      3  C   UNL     1      86.225  71.565  88.615  0.00  0.00    +0.000 C 
ATOM      4  C   UNL     1      86.896  70.739  89.723  0.00  0.00    +0.000 C 
ATOM      5  C   UNL     1      88.403  71.084  89.603  0.00  0.00    +0.000 C 
ATOM      6  C   UNL     1      88.752  70.552  88.188  0.00  0.00    +0.000 C 
ATOM      7  C   UNL     1      87.503  69.744  87.783  0.00  0.00    +0.000 C 
ATOM      8  C   UNL     1      86.973  69.303  89.173  0.00  0.00    +0.000 C 
ATOM      9  C   UNL     1      86.302  70.607  87.420  0.00  0.00    +0.000 C 
ATOM     10  C   UNL     1      86.016  71.559  86.292  0.00  0.00    +0.000 C 
ENDROOT
TORSDOF 0
ENDMDL
