MODEL 1
REMARK VINA RESULT:      -4.6      0.000      0.000
REMARK  Name = *****
REMARK  0 active torsions:
REMARK  status: ('A' for Active; 'I' for Inactive)
REMARK                            x       y       z     vdW  Elec       q    Type
REMARK                         _______ _______ _______ _____ _____    ______ ____
ROOT
ATOM      1  C   UNL     1      87.547  70.719  88.292  0.00  0.00    +0.000 C 
ATOM      2  C   UNL     1      86.181  71.379  88.323  0.00  0.00    +0.000 C 
ATOM      3  C   UNL     1      85.574  71.814  87.205  0.00  0.00    +0.000 C 
ATOM      4  C   UNL     1      86.234  71.736  85.917  0.00  0.00    +0.000 C 
ATOM      5  C   UNL     1      87.314  70.953  85.778  0.00  0.00    +0.000 C 
ATOM      6  C   UNL     1      87.858  70.125  86.914  0.00  0.00    +0.000 C 
ATOM      7  C   UNL     1      89.334  69.999  86.554  0.00  0.00    +0.000 C 
ATOM      8  C   UNL     1      89.258  69.749  85.059  0.00  0.00    +0.000 C 
ATOM      9  C   UNL     1      88.276  70.845  84.637  0.00  0.00    +0.000 C 
ATOM     10  F   UNL     1      87.683  70.588  83.451  0.00  0.00    +0.000 F 
ATOM     11  F   UNL     1      88.922  72.035  84.500  0.00  0.00    +0.000 F 
ATOM     12  F   UNL     1      88.752  68.515  84.798  0.00  0.00    +0.000 F 
ATOM     13  F   UNL     1      90.452  69.821  84.436  0.00  0.00    +0.000 F 
ATOM     14  F   UNL     1      89.961  69.023  87.241  0.00  0.00    +0.000 F 
ATOM     15  F   UNL     1      89.991  71.155  86.829  0.00  0.00    +0.000 F 
ATOM     16  F   UNL     1      87.270  68.893  86.851  0.00  0.00    +0.000 F 
ATOM     17 CL   UNL     1      84.036  72.587  87.281  0.00  0.00    +0.000 Cl
ENDROOT
TORSDOF 0
ENDMDL
