REMARK  Name = *****
REMARK  5 active torsions:
REMARK  status: ('A' for Active; 'I' for Inactive)
REMARK    1  A    between atoms: C_1  and  C_2
REMARK    2  A    between atoms: C_6  and  C_7
REMARK    3  A    between atoms: C_6  and  C_8
REMARK    4  A    between atoms: C_10  and  O_13
REMARK    5  A    between atoms: O_13  and  C_14
REMARK                            x       y       z     vdW  Elec       q    Type
REMARK                         _______ _______ _______ _____ _____    ______ ____
ROOT
ATOM      1  C   UNL     1       1.451   0.052  -0.274  0.00  0.00    +0.000 C 
ATOM      2  C   UNL     1       2.899  -0.015   0.198  0.00  0.00    +0.000 C 
ATOM      3  C   UNL     1       3.335   1.137   1.066  0.00  0.00    +0.000 A 
ATOM      4  C   UNL     1       4.234   0.703   2.043  0.00  0.00    +0.000 A 
ATOM      5  C   UNL     1       4.483  -0.770   1.940  0.00  0.00    +0.000 C 
ATOM      6  C   UNL     1       3.264  -1.247   1.097  0.00  0.00    +0.000 C 
ATOM      7  C   UNL     1       3.654  -2.456   0.235  0.00  0.00    +0.000 C 
ATOM      8  C   UNL     1       2.119  -1.670   2.043  0.00  0.00    +0.000 C 
ATOM      9  C   UNL     1       4.813   1.596   2.932  0.00  0.00    +0.000 A 
ATOM     10  C   UNL     1       4.476   2.951   2.850  0.00  0.00    +0.000 A 
ATOM     11  C   UNL     1       3.572   3.386   1.868  0.00  0.00    +0.000 A 
ATOM     12  C   UNL     1       3.003   2.478   0.966  0.00  0.00    +0.000 A 
ENDROOT
BRANCH  10  13
ATOM     13  O   UNL     1       5.097   3.746   3.776  0.00  0.00    +0.000 OA
ATOM     14  C   UNL     1       4.798   5.135   3.733  0.00  0.00    +0.000 C 
ENDBRANCH  10  13
TORSDOF 1
