MODEL 1
REMARK VINA RESULT:      -4.1      0.000      0.000
REMARK  Name = *****
REMARK  0 active torsions:
REMARK  status: ('A' for Active; 'I' for Inactive)
REMARK                            x       y       z     vdW  Elec       q    Type
REMARK                         _______ _______ _______ _____ _____    ______ ____
ROOT
ATOM      1  C   UNL     1     103.213 125.016  81.757  0.00  0.00    +0.000 A 
ATOM      2  C   UNL     1     102.637 126.223  82.147  0.00  0.00    +0.000 A 
ATOM      3  C   UNL     1     103.056 127.426  81.581  0.00  0.00    +0.000 A 
ATOM      4  C   UNL     1     104.063 127.416  80.617  0.00  0.00    +0.000 A 
ATOM      5  C   UNL     1     104.647 126.207  80.222  0.00  0.00    +0.000 A 
ATOM      6  C   UNL     1     104.224 125.019  80.788  0.00  0.00    +0.000 A 
ATOM      7  C   UNL     1     104.858 123.769  80.349  0.00  0.00    +0.000 A 
ATOM      8  O   UNL     1     104.493 122.707  80.841  0.00  0.00    +0.000 OA
ATOM      9  O   UNL     1     105.829 123.822  79.414  0.00  0.00    +0.000 OA
ATOM     10  C   UNL     1     106.242 124.990  78.860  0.00  0.00    +0.000 A 
ATOM     11  O   UNL     1     107.126 125.019  78.010  0.00  0.00    +0.000 OA
ATOM     12  N   UNL     1     105.650 126.149  79.268  0.00  0.00    +0.000 N 
ATOM     13 CL   UNL     1     104.570 128.913  79.926  0.00  0.00    +0.000 Cl
ATOM     14 CL   UNL     1     101.395 126.230  83.337  0.00  0.00    +0.000 Cl
ATOM     15  H   UNL     1     105.954 126.993  78.861  0.00  0.00    +0.000 HD
ENDROOT
TORSDOF 0
ENDMDL
