REMARK  Name = *****
REMARK  2 active torsions:
REMARK  status: ('A' for Active; 'I' for Inactive)
REMARK    1  A    between atoms: C_1  and  C_2
REMARK    2  A    between atoms: C_2  and  N_3
REMARK                            x       y       z     vdW  Elec       q    Type
REMARK                         _______ _______ _______ _____ _____    ______ ____
ROOT
ATOM      1  N   UNL     1       2.921  -1.122   0.886  0.00  0.00    +0.000 N 
ATOM      2  C   UNL     1       2.661  -2.464   0.680  0.00  0.00    +0.000 A 
ATOM      3  C   UNL     1       3.090  -3.277   1.647  0.00  0.00    +0.000 A 
ATOM      4  S   UNL     1       3.863  -2.430   2.924  0.00  0.00    +0.000 S 
ATOM      5  C   UNL     1       3.577  -0.870   2.102  0.00  0.00    +0.000 A 
ATOM      6  S   UNL     1       4.044   0.588   2.756  0.00  0.00    +0.000 S 
ATOM      7  S   UNL     1       2.818  -4.959   1.493  0.00  0.00    +0.000 S 
ATOM      8  C   UNL     1       1.993  -4.834  -0.064  0.00  0.00    +0.000 A 
ATOM      9  O   UNL     1       1.557  -5.798  -0.672  0.00  0.00    +0.000 OA
ATOM     10  S   UNL     1       1.859  -3.173  -0.659  0.00  0.00    +0.000 S 
ENDROOT
BRANCH   1  12
ATOM     11  C   UNL     1       1.078   0.410   0.252  0.00  0.00    +0.000 C 
ATOM     12  C   UNL     1       2.488  -0.076  -0.046  0.00  0.00    +0.000 C 
ENDBRANCH   1  12
TORSDOF 1
