MODEL 1
REMARK VINA RESULT:      -4.0      0.000      0.000
REMARK  Name = *****
REMARK  2 active torsions:
REMARK  status: ('A' for Active; 'I' for Inactive)
REMARK    1  A    between atoms: C_1  and  O_2
REMARK    2  A    between atoms: O_2  and  C_3
REMARK                            x       y       z     vdW  Elec       q    Type
REMARK                         _______ _______ _______ _____ _____    ______ ____
ROOT
ATOM      1  C   UNL     1      98.674 127.591  82.860  0.00  0.00    +0.000 A 
ATOM      2  C   UNL     1      99.624 126.670  82.405  0.00  0.00    +0.000 A 
ATOM      3  C   UNL     1     101.000 126.913  82.542  0.00  0.00    +0.000 A 
ATOM      4  C   UNL     1     101.429 128.114  83.153  0.00  0.00    +0.000 A 
ATOM      5  C   UNL     1     100.469 129.032  83.607  0.00  0.00    +0.000 A 
ATOM      6  C   UNL     1      99.102 128.772  83.461  0.00  0.00    +0.000 A 
ATOM      7  C   UNL     1     102.803 128.362  83.291  0.00  0.00    +0.000 A 
ATOM      8  C   UNL     1     103.729 127.433  82.831  0.00  0.00    +0.000 A 
ATOM      9  C   UNL     1     103.320 126.250  82.231  0.00  0.00    +0.000 A 
ATOM     10  C   UNL     1     101.957 125.990  82.086  0.00  0.00    +0.000 A 
ATOM     11  F   UNL     1     105.037 127.683  82.970  0.00  0.00    +0.000 F 
ENDROOT
BRANCH   1  13
ATOM     12  C   UNL     1      96.614 126.877  83.809  0.00  0.00    +0.000 C 
ATOM     13  O   UNL     1      97.375 127.218  82.656  0.00  0.00    +0.000 OA
ENDBRANCH   1  13
TORSDOF 1
ENDMDL
