MODEL 1
REMARK VINA RESULT:      -4.0      0.000      0.000
REMARK  Name = *****
REMARK  2 active torsions:
REMARK  status: ('A' for Active; 'I' for Inactive)
REMARK    1  A    between atoms: C_1  and  C_2
REMARK    2  A    between atoms: C_4  and  C_5
REMARK                            x       y       z     vdW  Elec       q    Type
REMARK                         _______ _______ _______ _____ _____    ______ ____
ROOT
ATOM      1  C   UNL     1      84.325  72.360  88.903  0.00  0.00    +0.000 C 
ATOM      2  C   UNL     1      85.200  71.980  87.768  0.00  0.00    +0.000 C 
ATOM      3  C   UNL     1      84.964  72.113  86.447  0.00  0.00    +0.000 C 
ATOM      4  C   UNL     1      86.098  71.607  85.695  0.00  0.00    +0.000 C 
ATOM      5  C   UNL     1      86.199  71.586  84.363  0.00  0.00    +0.000 C 
ATOM      6  C   UNL     1      87.093  71.135  86.658  0.00  0.00    +0.000 A 
ATOM      7  C   UNL     1      88.347  70.564  86.518  0.00  0.00    +0.000 A 
ATOM      8  C   UNL     1      89.047  70.223  87.678  0.00  0.00    +0.000 A 
ATOM      9  C   UNL     1      88.489  70.454  88.946  0.00  0.00    +0.000 A 
ATOM     10  C   UNL     1      87.222  71.031  89.078  0.00  0.00    +0.000 A 
ATOM     11  C   UNL     1      86.529  71.370  87.926  0.00  0.00    +0.000 A 
ENDROOT
TORSDOF 0
ENDMDL
