MODEL 1
REMARK VINA RESULT:      -4.5      0.000      0.000
REMARK  Name = *****
REMARK  1 active torsions:
REMARK  status: ('A' for Active; 'I' for Inactive)
REMARK    1  A    between atoms: C_1  and  C_2
REMARK                            x       y       z     vdW  Elec       q    Type
REMARK                         _______ _______ _______ _____ _____    ______ ____
ROOT
ATOM      1  C   UNL     1      99.058 129.261  83.118  0.00  0.00    +0.000 C 
ATOM      2  C   UNL     1      99.740 127.951  83.479  0.00  0.00    +0.000 C 
ATOM      3  C   UNL     1     101.223 127.939  83.197  0.00  0.00    +0.000 A 
ATOM      4  C   UNL     1     101.516 126.910  82.299  0.00  0.00    +0.000 A 
ATOM      5  C   UNL     1     102.807 126.660  81.865  0.00  0.00    +0.000 A 
ATOM      6  C   UNL     1     103.833 127.471  82.346  0.00  0.00    +0.000 A 
ATOM      7  C   UNL     1     103.543 128.508  83.250  0.00  0.00    +0.000 A 
ATOM      8  C   UNL     1     102.236 128.752  83.684  0.00  0.00    +0.000 A 
ATOM      9 CL   UNL     1     104.823 129.499  83.834  0.00  0.00    +0.000 Cl
ATOM     10 CL   UNL     1     103.150 125.394  80.755  0.00  0.00    +0.000 Cl
ATOM     11  N   UNL     1     100.347 126.243  81.951  0.00  0.00    +0.000 N 
ATOM     12  C   UNL     1      99.235 126.791  82.585  0.00  0.00    +0.000 C 
ATOM     13  O   UNL     1      98.086 126.411  82.430  0.00  0.00    +0.000 OA
ATOM     14 CL   UNL     1      99.441 127.520  85.182  0.00  0.00    +0.000 Cl
ATOM     15  H   UNL     1     100.310 125.479  81.332  0.00  0.00    +0.000 HD
ENDROOT
TORSDOF 0
ENDMDL
