MODEL 1
REMARK VINA RESULT:      -4.6      0.000      0.000
REMARK  Name = *****
REMARK  6 active torsions:
REMARK  status: ('A' for Active; 'I' for Inactive)
REMARK    1  A    between atoms: C_1  and  C_2
REMARK    2  A    between atoms: C_3  and  C_15
REMARK    3  A    between atoms: C_4  and  C_14
REMARK    4  A    between atoms: C_7  and  C_8
REMARK    5  A    between atoms: C_9  and  C_13
REMARK    6  A    between atoms: C_10  and  C_12
REMARK                            x       y       z     vdW  Elec       q    Type
REMARK                         _______ _______ _______ _____ _____    ______ ____
ROOT
ATOM      1  C   UNL     1      84.363  72.370  89.026  0.00  0.00    +0.000 C 
ATOM      2  C   UNL     1      85.142  72.011  87.776  0.00  0.00    +0.000 A 
ATOM      3  C   UNL     1      84.611  72.332  86.501  0.00  0.00    +0.000 A 
ATOM      4  C   UNL     1      85.362  72.089  85.323  0.00  0.00    +0.000 A 
ATOM      5  C   UNL     1      86.615  71.465  85.487  0.00  0.00    +0.000 A 
ATOM      6  C   UNL     1      87.148  71.082  86.720  0.00  0.00    +0.000 A 
ATOM      7  C   UNL     1      86.382  71.312  87.898  0.00  0.00    +0.000 A 
ATOM      8  C   UNL     1      86.860  70.871  89.260  0.00  0.00    +0.000 C 
ATOM      9  C   UNL     1      88.455  70.519  86.454  0.00  0.00    +0.000 A 
ATOM     10  C   UNL     1      88.642  70.534  85.083  0.00  0.00    +0.000 A 
ATOM     11  N   UNL     1      87.534  71.105  84.525  0.00  0.00    +0.000 N 
ATOM     12  C   UNL     1      89.779  70.075  84.243  0.00  0.00    +0.000 C 
ATOM     13  C   UNL     1      89.446  70.019  87.447  0.00  0.00    +0.000 C 
ATOM     14  C   UNL     1      84.837  72.477  83.966  0.00  0.00    +0.000 C 
ATOM     15  C   UNL     1      83.249  72.986  86.398  0.00  0.00    +0.000 C 
ATOM     16  H   UNL     1      87.407  71.243  83.558  0.00  0.00    +0.000 HD
ENDROOT
TORSDOF 0
ENDMDL
