MODEL 1
REMARK VINA RESULT:      -4.1      0.000      0.000
REMARK  Name = *****
REMARK  0 active torsions:
REMARK  status: ('A' for Active; 'I' for Inactive)
REMARK                            x       y       z     vdW  Elec       q    Type
REMARK                         _______ _______ _______ _____ _____    ______ ____
ROOT
ATOM      1  C   UNL     1     101.810 129.099  83.940  0.00  0.00    +0.000 A 
ATOM      2  C   UNL     1     103.179 128.995  83.683  0.00  0.00    +0.000 A 
ATOM      3  C   UNL     1     103.692 127.977  82.844  0.00  0.00    +0.000 A 
ATOM      4  C   UNL     1     102.833 127.037  82.244  0.00  0.00    +0.000 A 
ATOM      5  C   UNL     1     101.475 127.154  82.510  0.00  0.00    +0.000 A 
ATOM      6  C   UNL     1     100.991 128.167  83.340  0.00  0.00    +0.000 A 
ATOM      7  C   UNL     1      99.536 128.017  83.416  0.00  0.00    +0.000 C 
ATOM      8  O   UNL     1      98.766 128.709  84.039  0.00  0.00    +0.000 OA
ATOM      9  C   UNL     1      99.206 126.789  82.527  0.00  0.00    +0.000 C 
ATOM     10  O   UNL     1      98.108 126.325  82.318  0.00  0.00    +0.000 OA
ATOM     11  N   UNL     1     100.424 126.357  82.043  0.00  0.00    +0.000 N 
ATOM     12  I   UNL     1     103.502 125.499  80.991  0.00  0.00    +0.000 I 
ATOM     13 CL   UNL     1     105.407 127.965  82.611  0.00  0.00    +0.000 Cl
ATOM     14  H   UNL     1     100.539 125.586  81.443  0.00  0.00    +0.000 HD
ENDROOT
TORSDOF 0
ENDMDL
