MODEL 1
REMARK VINA RESULT:      -4.1      0.000      0.000
REMARK  Name = *****
REMARK  3 active torsions:
REMARK  status: ('A' for Active; 'I' for Inactive)
REMARK    1  A    between atoms: C_1  and  C_2
REMARK    2  A    between atoms: C_12  and  S_13
REMARK    3  A    between atoms: S_13  and  C_14
REMARK                            x       y       z     vdW  Elec       q    Type
REMARK                         _______ _______ _______ _____ _____    ______ ____
ROOT
ATOM      1  C   UNL     1      86.949  64.222  91.827  0.00  0.00    +0.000 C 
ATOM      2  C   UNL     1      87.138  63.663  90.443  0.00  0.00    +0.000 A 
ATOM      3  C   UNL     1      88.020  64.315  89.564  0.00  0.00    +0.000 A 
ATOM      4  C   UNL     1      88.119  63.858  88.260  0.00  0.00    +0.000 A 
ATOM      5  C   UNL     1      87.374  62.759  87.836  0.00  0.00    +0.000 A 
ATOM      6  C   UNL     1      86.526  62.072  88.673  0.00  0.00    +0.000 A 
ATOM      7  C   UNL     1      86.404  62.539  89.987  0.00  0.00    +0.000 A 
ATOM      8 CL   UNL     1      85.295  61.713  91.025  0.00  0.00    +0.000 Cl
ATOM      9  N   UNL     1      87.581  62.540  86.482  0.00  0.00    +0.000 N 
ATOM     10  C   UNL     1      88.443  63.494  85.937  0.00  0.00    +0.000 C 
ATOM     11  O   UNL     1      88.747  63.561  84.758  0.00  0.00    +0.000 OA
ATOM     12  C   UNL     1      88.920  64.393  87.102  0.00  0.00    +0.000 C 
ATOM     13  H   UNL     1      87.173  61.806  85.971  0.00  0.00    +0.000 HD
ENDROOT
BRANCH  12  14
ATOM     14  S   UNL     1      88.694  66.166  86.781  0.00  0.00    +0.000 S 
ATOM     15  C   UNL     1      90.307  66.626  86.091  0.00  0.00    +0.000 C 
ENDBRANCH  12  14
TORSDOF 1
ENDMDL
