MODEL 1
REMARK VINA RESULT:      -4.2      0.000      0.000
REMARK  Name = *****
REMARK  1 active torsions:
REMARK  status: ('A' for Active; 'I' for Inactive)
REMARK    1  A    between atoms: C_8  and  C_10
REMARK                            x       y       z     vdW  Elec       q    Type
REMARK                         _______ _______ _______ _____ _____    ______ ____
ROOT
ATOM      1  C   UNL     1     103.197 125.607  80.892  0.00  0.00    +0.000 A 
ATOM      2  C   UNL     1     104.495 126.134  80.857  0.00  0.00    +0.000 A 
ATOM      3  C   UNL     1     104.829 127.300  81.536  0.00  0.00    +0.000 A 
ATOM      4  C   UNL     1     103.847 127.960  82.269  0.00  0.00    +0.000 A 
ATOM      5  C   UNL     1     102.526 127.474  82.338  0.00  0.00    +0.000 A 
ATOM      6  C   UNL     1     102.234 126.300  81.641  0.00  0.00    +0.000 A 
ATOM      7  N   UNL     1     100.905 126.021  81.851  0.00  0.00    +0.000 N 
ATOM      8  C   UNL     1     100.320 126.972  82.658  0.00  0.00    +0.000 A 
ATOM      9  C   UNL     1     101.314 127.884  82.971  0.00  0.00    +0.000 A 
ATOM     10 CL   UNL     1     104.178 129.399  83.130  0.00  0.00    +0.000 Cl
ATOM     11 CL   UNL     1     105.705 125.310  79.947  0.00  0.00    +0.000 Cl
ATOM     12  H   UNL     1     100.433 125.243  81.475  0.00  0.00    +0.000 HD
ENDROOT
BRANCH   8  13
ATOM     13  C   UNL     1      98.916 126.899  83.026  0.00  0.00    +0.000 C 
ATOM     14  O   UNL     1      98.042 127.070  82.181  0.00  0.00    +0.000 OA
ATOM     15 CL   UNL     1      98.599 126.564  84.709  0.00  0.00    +0.000 Cl
ENDBRANCH   8  13
TORSDOF 1
ENDMDL
