REMARK  Name = *****
REMARK  1 active torsions:
REMARK  status: ('A' for Active; 'I' for Inactive)
REMARK    1  A    between atoms: C_1  and  N_2
REMARK                            x       y       z     vdW  Elec       q    Type
REMARK                         _______ _______ _______ _____ _____    ______ ____
ROOT
ATOM      1  C   UNL     1       0.969   0.167  -0.048  0.00  0.00    +0.000 C 
ATOM      2  N   UNL     1       2.418   0.045   0.045  0.00  0.00    +0.000 NA
ATOM      3  C   UNL     1       3.116   0.991  -0.479  0.00  0.00    +0.000 C 
ATOM      4  C   UNL     1       4.577   1.029  -0.478  0.00  0.00    +0.000 A 
ATOM      5  C   UNL     1       4.956   2.197  -1.135  0.00  0.00    +0.000 A 
ATOM      6  C   UNL     1       6.292   2.510  -1.293  0.00  0.00    +0.000 A 
ATOM      7  C   UNL     1       7.246   1.626  -0.776  0.00  0.00    +0.000 A 
ATOM      8  C   UNL     1       6.839   0.450  -0.115  0.00  0.00    +0.000 A 
ATOM      9  C   UNL     1       5.490   0.134   0.044  0.00  0.00    +0.000 A 
ATOM     10 BR   UNL     1       8.153  -0.725   0.572  0.00  0.00    +0.000 Br
ATOM     11 BR   UNL     1       6.842   4.083  -2.178  0.00  0.00    +0.000 Br
ATOM     12  N   UNL     1       3.838   2.915  -1.559  0.00  0.00    +0.000 N 
ATOM     13  C   UNL     1       2.668   2.272  -1.211  0.00  0.00    +0.000 C 
ATOM     14  O   UNL     1       1.533   2.629  -1.429  0.00  0.00    +0.000 OA
ATOM     15  H   UNL     1       3.878   3.771  -2.044  0.00  0.00    +0.000 HD
ENDROOT
TORSDOF 0
