MODEL 1
REMARK VINA RESULT:      -4.5      0.000      0.000
REMARK  Name = *****
REMARK  1 active torsions:
REMARK  status: ('A' for Active; 'I' for Inactive)
REMARK    1  A    between atoms: C_1  and  C_2
REMARK                            x       y       z     vdW  Elec       q    Type
REMARK                         _______ _______ _______ _____ _____    ______ ____
ROOT
ATOM      1  C   UNL     1      98.749 128.914  83.891  0.00  0.00    +0.000 C 
ATOM      2  C   UNL     1      99.854 128.104  83.288  0.00  0.00    +0.000 A 
ATOM      3  C   UNL     1     101.154 128.422  83.404  0.00  0.00    +0.000 A 
ATOM      4  C   UNL     1     102.187 127.588  82.789  0.00  0.00    +0.000 A 
ATOM      5  C   UNL     1     103.543 127.905  82.900  0.00  0.00    +0.000 A 
ATOM      6  C   UNL     1     104.505 127.087  82.297  0.00  0.00    +0.000 A 
ATOM      7  C   UNL     1     104.110 125.948  81.583  0.00  0.00    +0.000 A 
ATOM      8  C   UNL     1     102.754 125.627  81.471  0.00  0.00    +0.000 A 
ATOM      9  C   UNL     1     101.802 126.447  82.074  0.00  0.00    +0.000 A 
ATOM     10  N   UNL     1     100.443 126.135  81.967  0.00  0.00    +0.000 N 
ATOM     11  C   UNL     1      99.443 126.885  82.526  0.00  0.00    +0.000 A 
ATOM     12  O   UNL     1      98.264 126.567  82.403  0.00  0.00    +0.000 OA
ATOM     13 CL   UNL     1     105.248 124.897  80.816  0.00  0.00    +0.000 Cl
ATOM     14 CL   UNL     1     106.164 127.539  82.472  0.00  0.00    +0.000 Cl
ATOM     15  H   UNL     1     100.191 125.328  81.461  0.00  0.00    +0.000 HD
ENDROOT
TORSDOF 0
ENDMDL
