REMARK  Name = *****
REMARK  0 active torsions:
REMARK  status: ('A' for Active; 'I' for Inactive)
REMARK                            x       y       z     vdW  Elec       q    Type
REMARK                         _______ _______ _______ _____ _____    ______ ____
ROOT
ATOM      1  C   UNL     1       0.919  -1.384  -0.001  0.00  0.00    +0.000 A 
ATOM      2  C   UNL     1      -0.246  -0.653  -0.000  0.00  0.00    +0.000 A 
ATOM      3  C   UNL     1      -0.231   0.728  -0.000  0.00  0.00    +0.000 A 
ATOM      4  C   UNL     1       0.939   1.462  -0.000  0.00  0.00    +0.000 A 
ATOM      5  C   UNL     1       2.149   0.746   0.000  0.00  0.00    +0.000 A 
ATOM      6  C   UNL     1       2.128  -0.674  -0.000  0.00  0.00    +0.000 A 
ATOM      7 CL   UNL     1       3.582  -1.614  -0.001  0.00  0.00    +0.000 Cl
ATOM      8 CL   UNL     1       3.662   1.598   0.002  0.00  0.00    +0.000 Cl
ATOM      9 CL   UNL     1       0.850   3.184  -0.000  0.00  0.00    +0.000 Cl
ATOM     10  N   UNL     1      -1.547   1.116  -0.000  0.00  0.00    +0.000 N 
ATOM     11  C   UNL     1      -2.305  -0.025   0.000  0.00  0.00    +0.000 A 
ATOM     12  S   UNL     1      -3.951  -0.127   0.001  0.00  0.00    +0.000 S 
ATOM     13  O   UNL     1      -1.530  -1.181  -0.000  0.00  0.00    +0.000 OA
ATOM     14  H   UNL     1      -1.884   2.041  -0.000  0.00  0.00    +0.000 HD
ENDROOT
TORSDOF 0
