REMARK  Name = *****
REMARK  5 active torsions:
REMARK  status: ('A' for Active; 'I' for Inactive)
REMARK    1  A    between atoms: C_1  and  C_2
REMARK    2  A    between atoms: C_2  and  C_3
REMARK    3  A    between atoms: C_4  and  C_14
REMARK    4  A    between atoms: C_7  and  C_13
REMARK    5  A    between atoms: C_9  and  C_12
REMARK                            x       y       z     vdW  Elec       q    Type
REMARK                         _______ _______ _______ _____ _____    ______ ____
ROOT
ATOM      1  C   UNL     1       2.783  -0.903   1.108  0.00  0.00    +0.000 A 
ATOM      2  C   UNL     1       2.584  -2.274   1.070  0.00  0.00    +0.000 A 
ATOM      3  C   UNL     1       3.096  -2.807   2.299  0.00  0.00    +0.000 A 
ATOM      4  C   UNL     1       3.171  -4.109   2.836  0.00  0.00    +0.000 A 
ATOM      5  C   UNL     1       3.755  -4.317   4.093  0.00  0.00    +0.000 A 
ATOM      6  C   UNL     1       4.235  -3.223   4.819  0.00  0.00    +0.000 A 
ATOM      7  C   UNL     1       4.177  -1.906   4.322  0.00  0.00    +0.000 A 
ATOM      8  C   UNL     1       3.598  -1.744   3.049  0.00  0.00    +0.000 A 
ATOM      9  N   UNL     1       3.397  -0.608   2.300  0.00  0.00    +0.000 N 
ATOM     10  C   UNL     1       4.722  -0.783   5.156  0.00  0.00    +0.000 C 
ATOM     11  C   UNL     1       3.807  -5.697   4.681  0.00  0.00    +0.000 C 
ATOM     12  C   UNL     1       1.952  -3.059  -0.024  0.00  0.00    +0.000 C 
ATOM     13  H   UNL     1       3.659   0.299   2.582  0.00  0.00    +0.000 HD
ENDROOT
BRANCH   1  15
ATOM     14  C   UNL     1       3.576   0.382  -0.876  0.00  0.00    +0.000 C 
ATOM     15  C   UNL     1       2.449   0.169   0.123  0.00  0.00    +0.000 C 
ENDBRANCH   1  15
TORSDOF 1
