MODEL 1
REMARK VINA RESULT:      -4.2      0.000      0.000
REMARK  Name = *****
REMARK  0 active torsions:
REMARK  status: ('A' for Active; 'I' for Inactive)
REMARK                            x       y       z     vdW  Elec       q    Type
REMARK                         _______ _______ _______ _____ _____    ______ ____
ROOT
ATOM      1  C   UNL     1      98.700 128.543  83.102  0.00  0.00    +0.000 A 
ATOM      2  C   UNL     1      99.079 127.346  82.489  0.00  0.00    +0.000 A 
ATOM      3  C   UNL     1     100.418 127.016  82.517  0.00  0.00    +0.000 A 
ATOM      4  C   UNL     1     101.383 127.824  83.126  0.00  0.00    +0.000 A 
ATOM      5  C   UNL     1     101.012 129.014  83.736  0.00  0.00    +0.000 A 
ATOM      6  C   UNL     1      99.660 129.366  83.719  0.00  0.00    +0.000 A 
ATOM      7 CL   UNL     1      99.158 130.833  84.465  0.00  0.00    +0.000 Cl
ATOM      8  C   UNL     1     102.729 127.176  82.976  0.00  0.00    +0.000 C 
ATOM      9  C   UNL     1     102.392 125.885  82.198  0.00  0.00    +0.000 C 
ATOM     10  O   UNL     1     103.146 125.001  81.822  0.00  0.00    +0.000 OA
ATOM     11  N   UNL     1     101.012 125.887  81.978  0.00  0.00    +0.000 N 
ATOM     12 BR   UNL     1     103.893 128.253  81.875  0.00  0.00    +0.000 Br
ATOM     13 BR   UNL     1     103.448 126.672  84.694  0.00  0.00    +0.000 Br
ATOM     14  H   UNL     1     100.525 125.177  81.501  0.00  0.00    +0.000 HD
ENDROOT
TORSDOF 0
ENDMDL
