MODEL 1
REMARK VINA RESULT:      -4.2      0.000      0.000
REMARK  Name = *****
REMARK  3 active torsions:
REMARK  status: ('A' for Active; 'I' for Inactive)
REMARK    1  A    between atoms: C_1  and  C_2
REMARK    2  A    between atoms: C_9  and  O_12
REMARK    3  A    between atoms: O_12  and  C_13
REMARK                            x       y       z     vdW  Elec       q    Type
REMARK                         _______ _______ _______ _____ _____    ______ ____
ROOT
ATOM      1  C   UNL     1      83.623  72.647  88.876  0.00  0.00    +0.000 C 
ATOM      2  C   UNL     1      84.765  72.158  88.035  0.00  0.00    +0.000 A 
ATOM      3  C   UNL     1      85.909  71.603  88.625  0.00  0.00    +0.000 A 
ATOM      4  C   UNL     1      86.983  71.146  87.839  0.00  0.00    +0.000 A 
ATOM      5  C   UNL     1      86.904  71.249  86.434  0.00  0.00    +0.000 A 
ATOM      6  C   UNL     1      85.757  71.807  85.850  0.00  0.00    +0.000 A 
ATOM      7  C   UNL     1      84.699  72.257  86.643  0.00  0.00    +0.000 A 
ATOM      8  C   UNL     1      87.979  70.791  85.652  0.00  0.00    +0.000 A 
ATOM      9  C   UNL     1      89.120  70.237  86.239  0.00  0.00    +0.000 A 
ATOM     10  C   UNL     1      89.193  70.136  87.627  0.00  0.00    +0.000 A 
ATOM     11  C   UNL     1      88.131  70.588  88.420  0.00  0.00    +0.000 A 
ENDROOT
BRANCH   9  12
ATOM     12  O   UNL     1      90.081  69.836  85.352  0.00  0.00    +0.000 OA
ATOM     13  C   UNL     1      90.463  70.770  84.351  0.00  0.00    +0.000 C 
ENDBRANCH   9  12
TORSDOF 1
ENDMDL
