MODEL 1
REMARK VINA RESULT:      -3.4      0.000      0.000
REMARK  Name = *****
REMARK  0 active torsions:
REMARK  status: ('A' for Active; 'I' for Inactive)
REMARK                            x       y       z     vdW  Elec       q    Type
REMARK                         _______ _______ _______ _____ _____    ______ ____
ROOT
ATOM      1  C   UNL     1     106.060 124.730  78.547  0.00  0.00    +0.000 C 
ATOM      2  C   UNL     1     105.611 124.463  79.780  0.00  0.00    +0.000 C 
ATOM      3  C   UNL     1     104.807 125.373  80.676  0.00  0.00    +0.000 C 
ATOM      4  C   UNL     1     104.029 126.531  80.045  0.00  0.00    +0.000 C 
ATOM      5  C   UNL     1     103.246 127.291  81.121  0.00  0.00    +0.000 C 
ATOM      6  C   UNL     1     102.356 126.372  81.960  0.00  0.00    +0.000 C 
ATOM      7  C   UNL     1     103.117 125.169  82.528  0.00  0.00    +0.000 C 
ATOM      8  C   UNL     1     103.839 124.423  81.403  0.00  0.00    +0.000 C 
ATOM      9  C   UNL     1     104.693 123.228  81.754  0.00  0.00    +0.000 C 
ATOM     10  C   UNL     1     104.624 122.481  82.862  0.00  0.00    +0.000 C 
ATOM     11  S   UNL     1     105.897 122.898  80.521  0.00  0.00    +0.000 S 
ENDROOT
TORSDOF 0
ENDMDL
