REMARK  Name = *****
REMARK  4 active torsions:
REMARK  status: ('A' for Active; 'I' for Inactive)
REMARK    1  A    between atoms: C_1  and  C_2
REMARK    2  A    between atoms: C_9  and  C_11
REMARK    3  A    between atoms: C_11  and  O_13
REMARK    4  A    between atoms: O_13  and  C_14
REMARK                            x       y       z     vdW  Elec       q    Type
REMARK                         _______ _______ _______ _____ _____    ______ ____
ROOT
ATOM      1  C   UNL     1       0.897  -0.059   0.022  0.00  0.00    +0.000 C 
ATOM      2  C   UNL     1       2.393   0.098  -0.015  0.00  0.00    +0.000 A 
ATOM      3  C   UNL     1       3.193  -1.060   0.089  0.00  0.00    +0.000 A 
ATOM      4  C   UNL     1       4.583  -0.985   0.067  0.00  0.00    +0.000 A 
ATOM      5  C   UNL     1       5.242   0.237  -0.058  0.00  0.00    +0.000 A 
ATOM      6  C   UNL     1       4.447   1.385  -0.157  0.00  0.00    +0.000 A 
ATOM      7  C   UNL     1       3.052   1.346  -0.138  0.00  0.00    +0.000 A 
ATOM      8  C   UNL     1       2.608   2.695  -0.258  0.00  0.00    +0.000 A 
ATOM      9  C   UNL     1       3.714   3.521  -0.347  0.00  0.00    +0.000 A 
ATOM     10  N   UNL     1       4.817   2.703  -0.285  0.00  0.00    +0.000 N 
ATOM     11 CL   UNL     1       5.512  -2.431   0.196  0.00  0.00    +0.000 Cl
ATOM     12  H   UNL     1       5.749   3.018  -0.326  0.00  0.00    +0.000 HD
ENDROOT
BRANCH   9  13
ATOM     13  C   UNL     1       3.827   4.952  -0.480  0.00  0.00    +0.000 C 
ATOM     14  O   UNL     1       4.889   5.557  -0.549  0.00  0.00    +0.000 OA
BRANCH  13  15
ATOM     15  O   UNL     1       2.592   5.521  -0.516  0.00  0.00    +0.000 OA
ATOM     16  C   UNL     1       2.614   6.942  -0.646  0.00  0.00    +0.000 C 
ENDBRANCH  13  15
ENDBRANCH   9  13
TORSDOF 2
