REMARK  Name = *****
REMARK  0 active torsions:
REMARK  status: ('A' for Active; 'I' for Inactive)
REMARK                            x       y       z     vdW  Elec       q    Type
REMARK                         _______ _______ _______ _____ _____    ______ ____
ROOT
ATOM      1  C   UNL     1       1.205  -1.269  -0.001  0.00  0.00    +0.000 A 
ATOM      2  C   UNL     1       2.227  -0.318  -0.002  0.00  0.00    +0.000 A 
ATOM      3  C   UNL     1       1.947   1.062  -0.002  0.00  0.00    +0.000 A 
ATOM      4  C   UNL     1       0.623   1.514  -0.001  0.00  0.00    +0.000 A 
ATOM      5  C   UNL     1      -0.390   0.573  -0.000  0.00  0.00    +0.000 A 
ATOM      6  C   UNL     1      -0.089  -0.786  -0.000  0.00  0.00    +0.000 A 
ATOM      7  C   UNL     1      -1.361  -1.512   0.001  0.00  0.00    +0.000 C 
ATOM      8  O   UNL     1      -1.512  -2.710   0.001  0.00  0.00    +0.000 OA
ATOM      9  C   UNL     1      -2.459  -0.411   0.001  0.00  0.00    +0.000 C 
ATOM     10  O   UNL     1      -3.656  -0.589   0.002  0.00  0.00    +0.000 OA
ATOM     11  N   UNL     1      -1.770   0.784   0.000  0.00  0.00    +0.000 N 
ATOM     12 CL   UNL     1       0.282   3.197  -0.001  0.00  0.00    +0.000 Cl
ATOM     13 BR   UNL     1       4.028  -0.896  -0.003  0.00  0.00    +0.000 Br
ATOM     14  H   UNL     1      -2.197   1.672   0.000  0.00  0.00    +0.000 HD
ENDROOT
TORSDOF 0
