REMARK  Name = *****
REMARK  0 active torsions:
REMARK  status: ('A' for Active; 'I' for Inactive)
REMARK                            x       y       z     vdW  Elec       q    Type
REMARK                         _______ _______ _______ _____ _____    ______ ____
ROOT
ATOM      1  C   UNL     1      -2.449  -0.747   0.002  0.00  0.00    +0.000 A 
ATOM      2  C   UNL     1      -2.489   0.642  -0.011  0.00  0.00    +0.000 A 
ATOM      3  C   UNL     1      -1.299   1.371  -0.016  0.00  0.00    +0.000 A 
ATOM      4  C   UNL     1      -0.046   0.721  -0.007  0.00  0.00    +0.000 A 
ATOM      5  C   UNL     1      -0.019  -0.684   0.006  0.00  0.00    +0.000 A 
ATOM      6  C   UNL     1      -1.221  -1.408   0.010  0.00  0.00    +0.000 A 
ATOM      7  C   UNL     1       1.248  -1.412   0.014  0.00  0.00    +0.000 C 
ATOM      8  C   UNL     1       2.433  -0.798   0.013  0.00  0.00    +0.000 C 
ATOM      9  C   UNL     1       2.537   0.680   0.003  0.00  0.00    +0.000 C 
ATOM     10  O   UNL     1       3.675   1.158   0.006  0.00  0.00    +0.000 OA
ATOM     11  C   UNL     1       1.249   1.515  -0.013  0.00  0.00    +0.000 C 
ATOM     12 CL   UNL     1       1.318   2.534  -1.495  0.00  0.00    +0.000 Cl
ATOM     13 CL   UNL     1       1.308   2.576   1.440  0.00  0.00    +0.000 Cl
ENDROOT
TORSDOF 0
