MODEL 1
REMARK VINA RESULT:      -4.2      0.000      0.000
REMARK  Name = *****
REMARK  3 active torsions:
REMARK  status: ('A' for Active; 'I' for Inactive)
REMARK    1  A    between atoms: C_1  and  O_2
REMARK    2  A    between atoms: O_2  and  C_3
REMARK    3  A    between atoms: C_4  and  C_14
REMARK                            x       y       z     vdW  Elec       q    Type
REMARK                         _______ _______ _______ _____ _____    ______ ____
ROOT
ATOM      1  C   UNL     1      88.262  70.511  86.928  0.00  0.00    +0.000 A 
ATOM      2  C   UNL     1      87.479  70.839  88.058  0.00  0.00    +0.000 A 
ATOM      3  C   UNL     1      86.204  71.467  87.887  0.00  0.00    +0.000 A 
ATOM      4  C   UNL     1      85.766  71.777  86.574  0.00  0.00    +0.000 A 
ATOM      5  C   UNL     1      86.572  71.455  85.478  0.00  0.00    +0.000 A 
ATOM      6  C   UNL     1      87.805  70.828  85.650  0.00  0.00    +0.000 A 
ATOM      7  C   UNL     1      84.525  72.400  86.365  0.00  0.00    +0.000 A 
ATOM      8  C   UNL     1      83.702  72.721  87.439  0.00  0.00    +0.000 A 
ATOM      9  C   UNL     1      84.099  72.423  88.734  0.00  0.00    +0.000 A 
ATOM     10  C   UNL     1      85.333  71.804  88.953  0.00  0.00    +0.000 A 
ATOM     11 BR   UNL     1      82.036  73.559  87.134  0.00  0.00    +0.000 Br
ENDROOT
BRANCH   1  13
ATOM     12  C   UNL     1      89.747  68.689  86.491  0.00  0.00    +0.000 C 
ATOM     13  O   UNL     1      89.464  69.900  87.182  0.00  0.00    +0.000 OA
ENDBRANCH   1  13
BRANCH   2  14
ATOM     14  C   UNL     1      88.002  70.494  89.435  0.00  0.00    +0.000 C 
ATOM     15 CL   UNL     1      88.739  71.916  90.208  0.00  0.00    +0.000 Cl
ENDBRANCH   2  14
TORSDOF 2
ENDMDL
