MODEL 1
REMARK VINA RESULT:      -4.3      0.000      0.000
REMARK  Name = *****
REMARK  4 active torsions:
REMARK  status: ('A' for Active; 'I' for Inactive)
REMARK    1  A    between atoms: C_1  and  C_2
REMARK    2  A    between atoms: C_2  and  C_3
REMARK    3  A    between atoms: C_10  and  O_13
REMARK    4  A    between atoms: O_13  and  C_14
REMARK                            x       y       z     vdW  Elec       q    Type
REMARK                         _______ _______ _______ _____ _____    ______ ____
ROOT
ATOM      1  C   UNL     1     103.482 126.578  81.892  0.00  0.00    +0.000 C 
ATOM      2  C   UNL     1     103.805 127.368  83.169  0.00  0.00    +0.000 C 
ATOM      3  C   UNL     1     102.840 128.539  83.338  0.00  0.00    +0.000 C 
ATOM      4  C   UNL     1     101.395 128.147  83.168  0.00  0.00    +0.000 A 
ATOM      5  C   UNL     1     101.029 126.965  82.504  0.00  0.00    +0.000 A 
ATOM      6  C   UNL     1     102.065 125.986  82.000  0.00  0.00    +0.000 C 
ATOM      7  C   UNL     1      99.666 126.649  82.348  0.00  0.00    +0.000 A 
ATOM      8  C   UNL     1      98.673 127.509  82.820  0.00  0.00    +0.000 A 
ATOM      9  C   UNL     1      99.046 128.689  83.462  0.00  0.00    +0.000 A 
ATOM     10  C   UNL     1     100.395 129.009  83.633  0.00  0.00    +0.000 A 
ENDROOT
BRANCH   1  12
ATOM     11  C   UNL     1     104.233 124.573  80.489  0.00  0.00    +0.000 C 
ATOM     12  C   UNL     1     104.549 125.493  81.659  0.00  0.00    +0.000 C 
ENDBRANCH   1  12
BRANCH   8  13
ATOM     13  O   UNL     1      97.323 127.314  82.722  0.00  0.00    +0.000 OA
ATOM     14  C   UNL     1      96.664 126.788  83.866  0.00  0.00    +0.000 C 
ENDBRANCH   8  13
TORSDOF 2
ENDMDL
