MODEL 1
REMARK VINA RESULT:      -4.4      0.000      0.000
REMARK  Name = *****
REMARK  1 active torsions:
REMARK  status: ('A' for Active; 'I' for Inactive)
REMARK    1  A    between atoms: C_6  and  C_7
REMARK                            x       y       z     vdW  Elec       q    Type
REMARK                         _______ _______ _______ _____ _____    ______ ____
ROOT
ATOM      1  C   UNL     1     103.661 127.749  82.514  0.00  0.00    +0.000 A 
ATOM      2  C   UNL     1     103.270 128.782  83.388  0.00  0.00    +0.000 A 
ATOM      3  C   UNL     1     101.928 128.945  83.752  0.00  0.00    +0.000 A 
ATOM      4  C   UNL     1     101.007 128.059  83.226  0.00  0.00    +0.000 A 
ATOM      5  C   UNL     1     101.389 127.030  82.357  0.00  0.00    +0.000 A 
ATOM      6  C   UNL     1     102.715 126.858  81.988  0.00  0.00    +0.000 A 
ATOM      7  N   UNL     1     100.288 126.269  81.959  0.00  0.00    +0.000 N 
ATOM      8  C   UNL     1      99.123 126.737  82.530  0.00  0.00    +0.000 C 
ATOM      9  O   UNL     1      98.001 126.308  82.393  0.00  0.00    +0.000 OA
ATOM     10  C   UNL     1      99.551 127.948  83.397  0.00  0.00    +0.000 C 
ATOM     11  O   UNL     1      98.817 128.638  84.065  0.00  0.00    +0.000 OA
ATOM     12 BR   UNL     1     101.463 130.345  84.926  0.00  0.00    +0.000 Br
ATOM     13  H   UNL     1     100.337 125.497  81.349  0.00  0.00    +0.000 HD
ENDROOT
BRANCH   6  14
ATOM     14  C   UNL     1     103.121 125.811  81.101  0.00  0.00    +0.000 C 
ATOM     15  N   UNL     1     103.469 124.967  80.386  0.00  0.00    +0.000 NA
ENDBRANCH   6  14
TORSDOF 1
ENDMDL
