MODEL 1
REMARK VINA RESULT:      -4.0      0.000      0.000
REMARK  Name = *****
REMARK  2 active torsions:
REMARK  status: ('A' for Active; 'I' for Inactive)
REMARK    1  A    between atoms: C_1  and  O_2
REMARK    2  A    between atoms: O_2  and  N_3
REMARK                            x       y       z     vdW  Elec       q    Type
REMARK                         _______ _______ _______ _____ _____    ______ ____
ROOT
ATOM      1  N   UNL     1      99.251 128.629  84.268  0.00  0.00    +0.000 NA
ATOM      2  C   UNL     1      99.863 127.842  83.442  0.00  0.00    +0.000 C 
ATOM      3  C   UNL     1     101.300 127.880  83.184  0.00  0.00    +0.000 A 
ATOM      4  C   UNL     1     101.573 126.889  82.244  0.00  0.00    +0.000 A 
ATOM      5  C   UNL     1     102.864 126.673  81.789  0.00  0.00    +0.000 A 
ATOM      6  C   UNL     1     103.882 127.488  82.311  0.00  0.00    +0.000 A 
ATOM      7  C   UNL     1     103.589 128.489  83.266  0.00  0.00    +0.000 A 
ATOM      8  C   UNL     1     102.281 128.694  83.713  0.00  0.00    +0.000 A 
ATOM      9 CL   UNL     1     105.533 127.317  81.825  0.00  0.00    +0.000 Cl
ATOM     10 CL   UNL     1     103.160 125.436  80.623  0.00  0.00    +0.000 Cl
ATOM     11  N   UNL     1     100.404 126.218  81.880  0.00  0.00    +0.000 N 
ATOM     12  C   UNL     1      99.304 126.717  82.549  0.00  0.00    +0.000 C 
ATOM     13  O   UNL     1      98.158 126.344  82.447  0.00  0.00    +0.000 OA
ATOM     14  H   UNL     1     100.370 125.480  81.228  0.00  0.00    +0.000 HD
ENDROOT
BRANCH   1  16
ATOM     15  C   UNL     1      97.503 128.043  85.631  0.00  0.00    +0.000 C 
ATOM     16  O   UNL     1      97.881 128.349  84.295  0.00  0.00    +0.000 OA
ENDBRANCH   1  16
TORSDOF 1
ENDMDL
