MODEL 1
REMARK VINA RESULT:      -4.2      0.000      0.000
REMARK  Name = *****
REMARK  1 active torsions:
REMARK  status: ('A' for Active; 'I' for Inactive)
REMARK    1  A    between atoms: N_9  and  O_15
REMARK                            x       y       z     vdW  Elec       q    Type
REMARK                         _______ _______ _______ _____ _____    ______ ____
ROOT
ATOM      1  C   UNL     1     102.651 125.658  81.635  0.00  0.00    +0.000 A 
ATOM      2  C   UNL     1     101.673 126.490  82.180  0.00  0.00    +0.000 A 
ATOM      3  C   UNL     1     102.032 127.646  82.883  0.00  0.00    +0.000 A 
ATOM      4  C   UNL     1     103.383 127.969  83.039  0.00  0.00    +0.000 A 
ATOM      5  C   UNL     1     104.369 127.139  82.495  0.00  0.00    +0.000 A 
ATOM      6  C   UNL     1     104.003 125.984  81.793  0.00  0.00    +0.000 A 
ATOM      7 CL   UNL     1     105.167 124.916  81.095  0.00  0.00    +0.000 Cl
ATOM      8 CL   UNL     1     106.019 127.596  82.725  0.00  0.00    +0.000 Cl
ATOM      9  N   UNL     1     101.011 128.447  83.410  0.00  0.00    +0.000 N 
ATOM     10  C   UNL     1      99.660 128.198  83.297  0.00  0.00    +0.000 A 
ATOM     11  O   UNL     1      98.805 128.934  83.776  0.00  0.00    +0.000 OA
ATOM     12  C   UNL     1      99.287 126.919  82.522  0.00  0.00    +0.000 A 
ATOM     13  O   UNL     1      98.118 126.592  82.360  0.00  0.00    +0.000 OA
ATOM     14  N   UNL     1     100.323 126.160  82.021  0.00  0.00    +0.000 N 
ATOM     15  H   UNL     1     100.100 125.342  81.522  0.00  0.00    +0.000 HD
ENDROOT
BRANCH   9  16
ATOM     16  O   UNL     1     101.394 129.612  84.113  0.00  0.00    +0.000 OA
ATOM     17  H   UNL     1     101.447 129.599  85.049  0.00  0.00    +0.000 HD
ENDBRANCH   9  16
TORSDOF 1
ENDMDL
