MODEL 1
REMARK VINA RESULT:      -4.4      0.000      0.000
REMARK  Name = *****
REMARK  1 active torsions:
REMARK  status: ('A' for Active; 'I' for Inactive)
REMARK    1  A    between atoms: C_11  and  O_12
REMARK                            x       y       z     vdW  Elec       q    Type
REMARK                         _______ _______ _______ _____ _____    ______ ____
ROOT
ATOM      1  C   UNL     1     102.305 125.852  81.932  0.00  0.00    +0.000 A 
ATOM      2  C   UNL     1     103.622 126.250  82.116  0.00  0.00    +0.000 A 
ATOM      3  C   UNL     1     103.908 127.458  82.739  0.00  0.00    +0.000 A 
ATOM      4  C   UNL     1     102.870 128.288  83.189  0.00  0.00    +0.000 A 
ATOM      5  C   UNL     1     101.519 127.915  83.018  0.00  0.00    +0.000 A 
ATOM      6  C   UNL     1     101.269 126.678  82.380  0.00  0.00    +0.000 A 
ATOM      7  N   UNL     1      99.953 126.238  82.175  0.00  0.00    +0.000 N 
ATOM      8  C   UNL     1      98.849 126.939  82.558  0.00  0.00    +0.000 A 
ATOM      9  O   UNL     1      97.710 126.529  82.366  0.00  0.00    +0.000 OA
ATOM     10  C   UNL     1      99.085 128.232  83.224  0.00  0.00    +0.000 A 
ATOM     11  C   UNL     1     100.326 128.691  83.440  0.00  0.00    +0.000 A 
ATOM     12 CL   UNL     1     103.388 129.758  83.947  0.00  0.00    +0.000 Cl
ATOM     13 CL   UNL     1     104.904 125.242  81.569  0.00  0.00    +0.000 Cl
ATOM     14  H   UNL     1      99.819 125.372  81.728  0.00  0.00    +0.000 HD
ENDROOT
BRANCH  11  15
ATOM     15  O   UNL     1     100.537 129.900  84.060  0.00  0.00    +0.000 OA
ATOM     16  H   UNL     1      99.845 130.531  84.107  0.00  0.00    +0.000 HD
ENDBRANCH  11  15
TORSDOF 1
ENDMDL
