MODEL 1
REMARK VINA RESULT:      -4.0      0.000      0.000
REMARK  Name = *****
REMARK  3 active torsions:
REMARK  status: ('A' for Active; 'I' for Inactive)
REMARK    1  A    between atoms: C_6  and  O_11
REMARK    2  A    between atoms: O_11  and  C_12
REMARK    3  A    between atoms: C_12  and  C_13
REMARK                            x       y       z     vdW  Elec       q    Type
REMARK                         _______ _______ _______ _____ _____    ______ ____
ROOT
ATOM      1  C   UNL     1      84.393  72.399  87.717  0.00  0.00    +0.000 A 
ATOM      2  C   UNL     1      84.503  72.353  86.331  0.00  0.00    +0.000 A 
ATOM      3  C   UNL     1      85.639  71.799  85.738  0.00  0.00    +0.000 A 
ATOM      4  C   UNL     1      86.680  71.284  86.528  0.00  0.00    +0.000 A 
ATOM      5  C   UNL     1      87.830  70.719  85.950  0.00  0.00    +0.000 A 
ATOM      6  C   UNL     1      88.861  70.203  86.740  0.00  0.00    +0.000 A 
ATOM      7  C   UNL     1      88.750  70.257  88.128  0.00  0.00    +0.000 A 
ATOM      8  C   UNL     1      87.612  70.816  88.720  0.00  0.00    +0.000 A 
ATOM      9  C   UNL     1      86.569  71.332  87.934  0.00  0.00    +0.000 A 
ATOM     10  C   UNL     1      85.420  71.894  88.515  0.00  0.00    +0.000 A 
ENDROOT
BRANCH   6  11
ATOM     11  O   UNL     1      89.912  69.682  86.037  0.00  0.00    +0.000 OA
BRANCH  11  12
ATOM     12  C   UNL     1      89.675  68.470  85.317  0.00  0.00    +0.000 C 
BRANCH  12  13
ATOM     13  C   UNL     1      90.022  67.304  86.231  0.00  0.00    +0.000 C 
ATOM     14 CL   UNL     1      88.561  66.619  86.973  0.00  0.00    +0.000 Cl
ENDBRANCH  12  13
ENDBRANCH  11  12
ENDBRANCH   6  11
TORSDOF 3
ENDMDL
