MODEL 1
REMARK VINA RESULT:      -4.1      0.000      0.000
REMARK  Name = *****
REMARK  0 active torsions:
REMARK  status: ('A' for Active; 'I' for Inactive)
REMARK                            x       y       z     vdW  Elec       q    Type
REMARK                         _______ _______ _______ _____ _____    ______ ____
ROOT
ATOM      1  C   UNL     1     104.673 126.722  82.538  0.00  0.00    +0.000 A 
ATOM      2  C   UNL     1     104.231 125.676  81.735  0.00  0.00    +0.000 A 
ATOM      3  C   UNL     1     102.868 125.494  81.533  0.00  0.00    +0.000 A 
ATOM      4  C   UNL     1     101.953 126.363  82.135  0.00  0.00    +0.000 A 
ATOM      5  C   UNL     1     102.370 127.430  82.950  0.00  0.00    +0.000 A 
ATOM      6  C   UNL     1     103.752 127.589  83.138  0.00  0.00    +0.000 A 
ATOM      7  C   UNL     1     101.331 128.315  83.558  0.00  0.00    +0.000 A 
ATOM      8  C   UNL     1     100.025 128.069  83.312  0.00  0.00    +0.000 A 
ATOM      9  C   UNL     1      99.603 126.926  82.443  0.00  0.00    +0.000 A 
ATOM     10  O   UNL     1      98.428 126.668  82.195  0.00  0.00    +0.000 OA
ATOM     11  N   UNL     1     100.593 126.152  81.912  0.00  0.00    +0.000 N 
ATOM     12 CL   UNL     1      98.710 129.010  83.946  0.00  0.00    +0.000 Cl
ATOM     13  I   UNL     1     101.911 129.951  84.800  0.00  0.00    +0.000 I 
ATOM     14  H   UNL     1     100.332 125.396  81.337  0.00  0.00    +0.000 HD
ENDROOT
TORSDOF 0
ENDMDL
