MODEL 1
REMARK VINA RESULT:      -3.0      0.000      0.000
REMARK  Name = *****
REMARK  0 active torsions:
REMARK  status: ('A' for Active; 'I' for Inactive)
REMARK                            x       y       z     vdW  Elec       q    Type
REMARK                         _______ _______ _______ _____ _____    ______ ____
ROOT
ATOM      1  C   UNL     1     104.350 122.981  83.130  0.00  0.00    +0.000 A 
ATOM      2  C   UNL     1     104.774 121.892  82.419  0.00  0.00    +0.000 A 
ATOM      3  S   UNL     1     104.971 122.131  80.753  0.00  0.00    +0.000 S 
ATOM      4  C   UNL     1     104.467 123.792  80.943  0.00  0.00    +0.000 A 
ATOM      5  C   UNL     1     104.172 124.094  82.251  0.00  0.00    +0.000 A 
ATOM      6  S   UNL     1     103.668 125.755  82.441  0.00  0.00    +0.000 S 
ATOM      7  C   UNL     1     103.865 125.993  80.775  0.00  0.00    +0.000 A 
ATOM      8  C   UNL     1     104.290 124.904  80.063  0.00  0.00    +0.000 A 
ATOM      9 CL   UNL     1     103.527 127.548  80.115  0.00  0.00    +0.000 Cl
ATOM     10 CL   UNL     1     105.114 120.337  83.078  0.00  0.00    +0.000 Cl
ENDROOT
TORSDOF 0
ENDMDL
