MODEL 1
REMARK VINA RESULT:      -3.5      0.000      0.000
REMARK  Name = *****
REMARK  3 active torsions:
REMARK  status: ('A' for Active; 'I' for Inactive)
REMARK    1  A    between atoms: C_1  and  O_2
REMARK    2  A    between atoms: O_2  and  C_3
REMARK    3  A    between atoms: C_10  and  C_12
REMARK                            x       y       z     vdW  Elec       q    Type
REMARK                         _______ _______ _______ _____ _____    ______ ____
ROOT
ATOM      1  C   UNL     1      98.689 127.591  82.858  0.00  0.00    +0.000 A 
ATOM      2  C   UNL     1      99.642 126.676  82.397  0.00  0.00    +0.000 A 
ATOM      3  C   UNL     1     101.012 126.959  82.558  0.00  0.00    +0.000 A 
ATOM      4  C   UNL     1     101.445 128.136  83.169  0.00  0.00    +0.000 A 
ATOM      5  C   UNL     1     100.466 129.048  83.627  0.00  0.00    +0.000 A 
ATOM      6  C   UNL     1      99.101 128.769  83.468  0.00  0.00    +0.000 A 
ATOM      7  C   UNL     1     102.878 128.198  83.219  0.00  0.00    +0.000 A 
ATOM      8  C   UNL     1     103.484 127.095  82.659  0.00  0.00    +0.000 A 
ATOM      9  S   UNL     1     102.341 125.979  82.070  0.00  0.00    +0.000 S 
ENDROOT
BRANCH   1  11
ATOM     10  C   UNL     1      96.619 126.883  83.796  0.00  0.00    +0.000 C 
ATOM     11  O   UNL     1      97.392 127.207  82.647  0.00  0.00    +0.000 OA
ENDBRANCH   1  11
BRANCH   8  12
ATOM     12  C   UNL     1     104.895 126.892  82.573  0.00  0.00    +0.000 C 
ATOM     13  N   UNL     1     106.044 126.742  82.518  0.00  0.00    +0.000 NA
ENDBRANCH   8  12
TORSDOF 2
ENDMDL
