MODEL 1
REMARK VINA RESULT:      -4.3      0.000      0.000
REMARK  Name = *****
REMARK  1 active torsions:
REMARK  status: ('A' for Active; 'I' for Inactive)
REMARK    1  A    between atoms: C_1  and  N_2
REMARK                            x       y       z     vdW  Elec       q    Type
REMARK                         _______ _______ _______ _____ _____    ______ ____
ROOT
ATOM      1  C   UNL     1     101.326 129.629  84.306  0.00  0.00    +0.000 C 
ATOM      2  N   UNL     1     100.976 128.453  83.525  0.00  0.00    +0.000 N 
ATOM      3  C   UNL     1     101.997 127.644  82.948  0.00  0.00    +0.000 A 
ATOM      4  C   UNL     1     103.359 127.938  83.104  0.00  0.00    +0.000 A 
ATOM      5  C   UNL     1     104.340 127.124  82.524  0.00  0.00    +0.000 A 
ATOM      6  C   UNL     1     103.969 126.002  81.778  0.00  0.00    +0.000 A 
ATOM      7  C   UNL     1     102.617 125.697  81.615  0.00  0.00    +0.000 A 
ATOM      8  C   UNL     1     101.643 126.514  82.197  0.00  0.00    +0.000 A 
ATOM      9  N   UNL     1     100.303 126.180  82.013  0.00  0.00    +0.000 N 
ATOM     10  C   UNL     1      99.262 126.904  82.536  0.00  0.00    +0.000 A 
ATOM     11  O   UNL     1      98.101 126.568  82.347  0.00  0.00    +0.000 OA
ATOM     12  C   UNL     1      99.617 128.152  83.366  0.00  0.00    +0.000 A 
ATOM     13  O   UNL     1      98.705 128.820  83.846  0.00  0.00    +0.000 OA
ATOM     14 CL   UNL     1     105.124 124.956  81.035  0.00  0.00    +0.000 Cl
ATOM     15 CL   UNL     1     105.994 127.564  82.769  0.00  0.00    +0.000 Cl
ATOM     16  H   UNL     1     100.093 125.380  81.481  0.00  0.00    +0.000 HD
ENDROOT
TORSDOF 0
ENDMDL
