MODEL 1
REMARK VINA RESULT:      -4.1      0.000      0.000
REMARK  Name = *****
REMARK  3 active torsions:
REMARK  status: ('A' for Active; 'I' for Inactive)
REMARK    1  A    between atoms: C_1  and  C_2
REMARK    2  A    between atoms: C_2  and  C_3
REMARK    3  A    between atoms: C_2  and  C_4
REMARK                            x       y       z     vdW  Elec       q    Type
REMARK                         _______ _______ _______ _____ _____    ______ ____
ROOT
ATOM      1  C   UNL     1     102.238 126.971  82.005  0.00  0.00    +0.000 A 
ATOM      2  N   UNL     1     102.078 127.867  82.958  0.00  0.00    +0.000 NA
ATOM      3  C   UNL     1     100.754 127.810  83.310  0.00  0.00    +0.000 A 
ATOM      4  C   UNL     1     100.052 128.548  84.271  0.00  0.00    +0.000 A 
ATOM      5  C   UNL     1      98.684 128.297  84.442  0.00  0.00    +0.000 A 
ATOM      6  C   UNL     1      98.029 127.328  83.667  0.00  0.00    +0.000 A 
ATOM      7  C   UNL     1      98.722 126.582  82.701  0.00  0.00    +0.000 A 
ATOM      8  C   UNL     1     100.084 126.855  82.555  0.00  0.00    +0.000 A 
ATOM      9  N   UNL     1     101.050 126.336  81.731  0.00  0.00    +0.000 N 
ATOM     10 CL   UNL     1      96.341 126.991  83.850  0.00  0.00    +0.000 Cl
ATOM     11 CL   UNL     1      97.854 129.230  85.641  0.00  0.00    +0.000 Cl
ATOM     12  H   UNL     1     100.916 125.628  81.060  0.00  0.00    +0.000 HD
ENDROOT
BRANCH   1  14
ATOM     13  C   UNL     1     103.464 125.216  80.737  0.00  0.00    +0.000 C 
ATOM     14  C   UNL     1     103.509 126.644  81.281  0.00  0.00    +0.000 C 
ATOM     15  C   UNL     1     103.755 127.645  80.153  0.00  0.00    +0.000 C 
ENDBRANCH   1  14
TORSDOF 1
ENDMDL
