MODEL 1
REMARK VINA RESULT:      -4.0      0.000      0.000
REMARK  Name = *****
REMARK  0 active torsions:
REMARK  status: ('A' for Active; 'I' for Inactive)
REMARK                            x       y       z     vdW  Elec       q    Type
REMARK                         _______ _______ _______ _____ _____    ______ ____
ROOT
ATOM      1  C   UNL     1     103.134 128.582  83.416  0.00  0.00    +0.000 A 
ATOM      2  C   UNL     1     101.777 128.774  83.694  0.00  0.00    +0.000 A 
ATOM      3  C   UNL     1     100.871 127.890  83.145  0.00  0.00    +0.000 A 
ATOM      4  C   UNL     1     101.295 126.848  82.345  0.00  0.00    +0.000 A 
ATOM      5  C   UNL     1     102.625 126.622  82.046  0.00  0.00    +0.000 A 
ATOM      6  C   UNL     1     103.557 127.512  82.597  0.00  0.00    +0.000 A 
ATOM      7 CL   UNL     1     105.254 127.356  82.308  0.00  0.00    +0.000 Cl
ATOM      8 CL   UNL     1     103.062 125.296  81.040  0.00  0.00    +0.000 Cl
ATOM      9  N   UNL     1     100.161 126.175  81.972  0.00  0.00    +0.000 N 
ATOM     10  C   UNL     1      99.082 126.808  82.540  0.00  0.00    +0.000 A 
ATOM     11  O   UNL     1      97.919 126.464  82.406  0.00  0.00    +0.000 OA
ATOM     12  O   UNL     1      99.491 127.910  83.299  0.00  0.00    +0.000 OA
ATOM     13 CL   UNL     1     101.276 130.076  84.690  0.00  0.00    +0.000 Cl
ATOM     14  H   UNL     1     100.125 125.377  81.397  0.00  0.00    +0.000 HD
ENDROOT
TORSDOF 0
ENDMDL
