REMARK  Name = *****
REMARK  1 active torsions:
REMARK  status: ('A' for Active; 'I' for Inactive)
REMARK    1  A    between atoms: C_1  and  C_2
REMARK                            x       y       z     vdW  Elec       q    Type
REMARK                         _______ _______ _______ _____ _____    ______ ____
ROOT
ATOM      1  C   UNL     1       1.032   0.167   0.081  0.00  0.00    +0.000 C 
ATOM      2  C   UNL     1       2.511  -0.026   0.081  0.00  0.00    +0.000 A 
ATOM      3  C   UNL     1       3.150  -1.259   0.085  0.00  0.00    +0.000 A 
ATOM      4  S   UNL     1       4.867  -1.130   0.084  0.00  0.00    +0.000 S 
ATOM      5  C   UNL     1       4.775   0.555   0.079  0.00  0.00    +0.000 A 
ATOM      6  C   UNL     1       3.486   1.006   0.078  0.00  0.00    +0.000 A 
ATOM      7  S   UNL     1       3.272   2.740   0.074  0.00  0.00    +0.000 S 
ATOM      8  C   UNL     1       5.012   3.120   0.073  0.00  0.00    +0.000 A 
ATOM      9  S   UNL     1       5.589   4.689   0.071  0.00  0.00    +0.000 S 
ATOM     10  S   UNL     1       6.091   1.701   0.076  0.00  0.00    +0.000 S 
ENDROOT
TORSDOF 0
