MODEL 1
REMARK VINA RESULT:      -3.8      0.000      0.000
REMARK  Name = *****
REMARK  1 active torsions:
REMARK  status: ('A' for Active; 'I' for Inactive)
REMARK    1  A    between atoms: C_10  and  C_12
REMARK                            x       y       z     vdW  Elec       q    Type
REMARK                         _______ _______ _______ _____ _____    ______ ____
ROOT
ATOM      1  C   UNL     1      93.274  94.488  84.710  0.00  0.00    +0.000 A 
ATOM      2  C   UNL     1      94.279  95.393  85.052  0.00  0.00    +0.000 A 
ATOM      3  C   UNL     1      95.155  95.196  86.113  0.00  0.00    +0.000 A 
ATOM      4  C   UNL     1      95.041  94.039  86.895  0.00  0.00    +0.000 A 
ATOM      5  C   UNL     1      94.041  93.110  86.576  0.00  0.00    +0.000 A 
ATOM      6  C   UNL     1      93.170  93.331  85.499  0.00  0.00    +0.000 A 
ATOM      7 CL   UNL     1      91.924  92.207  85.078  0.00  0.00    +0.000 Cl
ATOM      8 CL   UNL     1      93.936  91.694  87.567  0.00  0.00    +0.000 Cl
ATOM      9  N   UNL     1      96.037  96.242  86.217  0.00  0.00    +0.000 NA
ATOM     10  C   UNL     1      95.732  97.074  85.240  0.00  0.00    +0.000 A 
ATOM     11  N   UNL     1      94.662  96.597  84.517  0.00  0.00    +0.000 N 
ATOM     12  H   UNL     1      94.244  97.043  83.746  0.00  0.00    +0.000 HD
ENDROOT
BRANCH  10  13
ATOM     13  C   UNL     1      96.397  98.374  84.950  0.00  0.00    +0.000 C 
ATOM     14 CL   UNL     1      96.640  99.346  86.423  0.00  0.00    +0.000 Cl
ENDBRANCH  10  13
TORSDOF 1
ENDMDL
