REMARK  Name = *****
REMARK  2 active torsions:
REMARK  status: ('A' for Active; 'I' for Inactive)
REMARK    1  A    between atoms: C_1  and  O_2
REMARK    2  A    between atoms: O_2  and  C_3
REMARK                            x       y       z     vdW  Elec       q    Type
REMARK                         _______ _______ _______ _____ _____    ______ ____
ROOT
ATOM      1  C   UNL     1       2.958   0.766   0.835  0.00  0.00    +0.000 A 
ATOM      2  C   UNL     1       4.131   1.496   0.552  0.00  0.00    +0.000 A 
ATOM      3  C   UNL     1       4.904   2.094   1.588  0.00  0.00    +0.000 A 
ATOM      4  C   UNL     1       4.465   1.934   2.925  0.00  0.00    +0.000 A 
ATOM      5  C   UNL     1       3.300   1.202   3.192  0.00  0.00    +0.000 A 
ATOM      6  C   UNL     1       2.554   0.624   2.162  0.00  0.00    +0.000 A 
ATOM      7  C   UNL     1       5.192   2.506   3.983  0.00  0.00    +0.000 A 
ATOM      8  C   UNL     1       6.351   3.237   3.734  0.00  0.00    +0.000 A 
ATOM      9  C   UNL     1       6.804   3.409   2.434  0.00  0.00    +0.000 A 
ATOM     10  C   UNL     1       6.089   2.843   1.375  0.00  0.00    +0.000 A 
ATOM     11 BR   UNL     1       7.310   3.998   5.174  0.00  0.00    +0.000 Br
ATOM     12 CL   UNL     1       4.628   1.662  -1.113  0.00  0.00    +0.000 Cl
ENDROOT
BRANCH   1  14
ATOM     13  C   UNL     1       1.051  -0.429   0.019  0.00  0.00    +0.000 C 
ATOM     14  O   UNL     1       2.284   0.231  -0.234  0.00  0.00    +0.000 OA
ENDBRANCH   1  14
TORSDOF 1
