REMARK  Name = *****
REMARK  1 active torsions:
REMARK  status: ('A' for Active; 'I' for Inactive)
REMARK    1  A    between atoms: C_11  and  C_13
REMARK                            x       y       z     vdW  Elec       q    Type
REMARK                         _______ _______ _______ _____ _____    ______ ____
ROOT
ATOM      1  C   UNL     1       0.912   1.419   0.002  0.00  0.00    +0.000 A 
ATOM      2  C   UNL     1      -0.261   0.662   0.003  0.00  0.00    +0.000 A 
ATOM      3  C   UNL     1      -0.269  -0.730   0.002  0.00  0.00    +0.000 A 
ATOM      4  C   UNL     1       0.966  -1.407  -0.001  0.00  0.00    +0.000 A 
ATOM      5  C   UNL     1       2.169  -0.687  -0.001  0.00  0.00    +0.000 A 
ATOM      6  C   UNL     1       2.129   0.716  -0.000  0.00  0.00    +0.000 A 
ATOM      7 CL   UNL     1       3.571   1.679  -0.000  0.00  0.00    +0.000 Cl
ATOM      8 CL   UNL     1       3.685  -1.532  -0.004  0.00  0.00    +0.000 Cl
ATOM      9 CL   UNL     1       0.845  -3.117  -0.002  0.00  0.00    +0.000 Cl
ATOM     10  N   UNL     1      -1.568  -1.192   0.005  0.00  0.00    +0.000 NA
ATOM     11  C   UNL     1      -2.349  -0.124   0.008  0.00  0.00    +0.000 A 
ATOM     12  N   UNL     1      -1.586   1.021   0.006  0.00  0.00    +0.000 N 
ATOM     13  H   UNL     1      -1.932   1.942   0.006  0.00  0.00    +0.000 HD
ENDROOT
BRANCH  11  14
ATOM     14  C   UNL     1      -3.839  -0.037   0.014  0.00  0.00    +0.000 C 
ATOM     15  F   UNL     1      -4.458  -1.240  -0.004  0.00  0.00    +0.000 F 
ATOM     16  F   UNL     1      -4.283   0.629   1.114  0.00  0.00    +0.000 F 
ATOM     17  F   UNL     1      -4.290   0.665  -1.059  0.00  0.00    +0.000 F 
ENDBRANCH  11  14
TORSDOF 1
