MODEL 1
REMARK VINA RESULT:      -3.5      0.000      0.000
REMARK  Name = *****
REMARK  0 active torsions:
REMARK  status: ('A' for Active; 'I' for Inactive)
REMARK                            x       y       z     vdW  Elec       q    Type
REMARK                         _______ _______ _______ _____ _____    ______ ____
ROOT
ATOM      1  C   UNL     1     101.694 125.863  84.615  0.00  0.00    +0.000 C 
ATOM      2  C   UNL     1     100.902 126.809  83.688  0.00  0.00    +0.000 C 
ATOM      3  C   UNL     1     100.978 126.408  82.200  0.00  0.00    +0.000 C 
ATOM      4  C   UNL     1     102.434 126.273  81.849  0.00  0.00    +0.000 C 
ATOM      5  C   UNL     1     103.245 127.590  81.669  0.00  0.00    +0.000 C 
ATOM      6  C   UNL     1     103.605 127.119  80.246  0.00  0.00    +0.000 C 
ATOM      7  C   UNL     1     103.204 125.694  80.640  0.00  0.00    +0.000 C 
ATOM      8  C   UNL     1     104.198 125.039  81.648  0.00  0.00    +0.000 C 
ATOM      9  C   UNL     1     103.071 125.157  82.699  0.00  0.00    +0.000 C 
ATOM     10  C   UNL     1     103.142 125.611  84.144  0.00  0.00    +0.000 C 
ENDROOT
TORSDOF 0
ENDMDL
