MODEL 1
REMARK VINA RESULT:      -4.0      0.000      0.000
REMARK  Name = *****
REMARK  2 active torsions:
REMARK  status: ('A' for Active; 'I' for Inactive)
REMARK    1  A    between atoms: C_1  and  O_2
REMARK    2  A    between atoms: O_2  and  C_3
REMARK                            x       y       z     vdW  Elec       q    Type
REMARK                         _______ _______ _______ _____ _____    ______ ____
ROOT
ATOM      1  C   UNL     1      98.646 127.641  82.870  0.00  0.00    +0.000 A 
ATOM      2  C   UNL     1      99.604 126.718  82.444  0.00  0.00    +0.000 A 
ATOM      3  C   UNL     1     100.985 126.944  82.614  0.00  0.00    +0.000 A 
ATOM      4  C   UNL     1     101.407 128.141  83.218  0.00  0.00    +0.000 A 
ATOM      5  C   UNL     1     102.810 128.542  83.415  0.00  0.00    +0.000 C 
ATOM      6  C   UNL     1     103.847 127.721  83.636  0.00  0.00    +0.000 C 
ATOM      7  C   UNL     1     103.823 126.227  83.690  0.00  0.00    +0.000 C 
ATOM      8  C   UNL     1     103.093 125.581  82.555  0.00  0.00    +0.000 C 
ATOM      9  C   UNL     1     101.881 125.903  82.082  0.00  0.00    +0.000 C 
ATOM     10  C   UNL     1     100.434 129.071  83.631  0.00  0.00    +0.000 A 
ATOM     11  C   UNL     1      99.067 128.824  83.465  0.00  0.00    +0.000 A 
ENDROOT
BRANCH   1  13
ATOM     12  C   UNL     1      96.593 126.853  83.772  0.00  0.00    +0.000 C 
ATOM     13  O   UNL     1      97.349 127.270  82.643  0.00  0.00    +0.000 OA
ENDBRANCH   1  13
TORSDOF 1
ENDMDL
