MODEL 1
REMARK VINA RESULT:      -4.2      0.000      0.000
REMARK  Name = *****
REMARK  0 active torsions:
REMARK  status: ('A' for Active; 'I' for Inactive)
REMARK                            x       y       z     vdW  Elec       q    Type
REMARK                         _______ _______ _______ _____ _____    ______ ____
ROOT
ATOM      1  C   UNL     1     104.143 125.840  81.609  0.00  0.00    +0.000 A 
ATOM      2  C   UNL     1     102.781 125.567  81.485  0.00  0.00    +0.000 A 
ATOM      3  C   UNL     1     101.853 126.418  82.085  0.00  0.00    +0.000 A 
ATOM      4  C   UNL     1     102.274 127.543  82.810  0.00  0.00    +0.000 A 
ATOM      5  C   UNL     1     103.640 127.810  82.932  0.00  0.00    +0.000 A 
ATOM      6  C   UNL     1     104.567 126.958  82.331  0.00  0.00    +0.000 A 
ATOM      7 CL   UNL     1     106.249 127.288  82.479  0.00  0.00    +0.000 Cl
ATOM      8  C   UNL     1     101.268 128.411  83.424  0.00  0.00    +0.000 A 
ATOM      9  C   UNL     1      99.963 128.133  83.292  0.00  0.00    +0.000 A 
ATOM     10  C   UNL     1      99.502 126.936  82.521  0.00  0.00    +0.000 A 
ATOM     11  O   UNL     1      98.318 126.647  82.377  0.00  0.00    +0.000 OA
ATOM     12  N   UNL     1     100.484 126.152  81.965  0.00  0.00    +0.000 N 
ATOM     13 CL   UNL     1      98.768 129.146  84.007  0.00  0.00    +0.000 Cl
ATOM     14  H   UNL     1     100.210 125.358  81.452  0.00  0.00    +0.000 HD
ENDROOT
TORSDOF 0
ENDMDL
