MODEL 1
REMARK VINA RESULT:      -4.0      0.000      0.000
REMARK  Name = *****
REMARK  2 active torsions:
REMARK  status: ('A' for Active; 'I' for Inactive)
REMARK    1  A    between atoms: C_1  and  O_2
REMARK    2  A    between atoms: O_2  and  C_3
REMARK                            x       y       z     vdW  Elec       q    Type
REMARK                         _______ _______ _______ _____ _____    ______ ____
ROOT
ATOM      1  C   UNL     1      89.102  70.258  86.173  0.00  0.00    +0.000 A 
ATOM      2  C   UNL     1      87.955  70.817  85.600  0.00  0.00    +0.000 A 
ATOM      3  C   UNL     1      86.885  71.263  86.393  0.00  0.00    +0.000 A 
ATOM      4  C   UNL     1      86.974  71.145  87.798  0.00  0.00    +0.000 A 
ATOM      5  C   UNL     1      88.130  70.586  88.365  0.00  0.00    +0.000 A 
ATOM      6  C   UNL     1      89.186  70.146  87.559  0.00  0.00    +0.000 A 
ATOM      7  C   UNL     1      85.906  71.588  88.596  0.00  0.00    +0.000 A 
ATOM      8  C   UNL     1      84.769  72.139  88.006  0.00  0.00    +0.000 A 
ATOM      9  C   UNL     1      84.676  72.258  86.623  0.00  0.00    +0.000 A 
ATOM     10  C   UNL     1      85.731  71.822  85.820  0.00  0.00    +0.000 A 
ATOM     11 BR   UNL     1      83.340  72.728  89.095  0.00  0.00    +0.000 Br
ENDROOT
BRANCH   1  13
ATOM     12  C   UNL     1      90.500  70.845  84.342  0.00  0.00    +0.000 C 
ATOM     13  O   UNL     1      90.056  69.867  85.275  0.00  0.00    +0.000 OA
ENDBRANCH   1  13
TORSDOF 1
ENDMDL
