REMARK  Name = *****
REMARK  0 active torsions:
REMARK  status: ('A' for Active; 'I' for Inactive)
REMARK                            x       y       z     vdW  Elec       q    Type
REMARK                         _______ _______ _______ _____ _____    ______ ____
ROOT
ATOM      1  C   UNL     1       2.150  -0.674  -0.045  0.00  0.00    +0.000 A 
ATOM      2  C   UNL     1       0.961  -1.414  -0.016  0.00  0.00    +0.000 A 
ATOM      3  C   UNL     1      -0.274  -0.736  -0.012  0.00  0.00    +0.000 A 
ATOM      4  C   UNL     1      -0.273   0.664  -0.038  0.00  0.00    +0.000 A 
ATOM      5  C   UNL     1       0.906   1.419  -0.067  0.00  0.00    +0.000 A 
ATOM      6  C   UNL     1       2.116   0.718  -0.070  0.00  0.00    +0.000 A 
ATOM      7 CL   UNL     1       3.596   1.600  -0.107  0.00  0.00    +0.000 Cl
ATOM      8  N   UNL     1      -1.591   1.069  -0.028  0.00  0.00    +0.000 N 
ATOM      9  C   UNL     1      -2.395  -0.026   0.001  0.00  0.00    +0.000 A 
ATOM     10  C   UNL     1      -1.633  -1.160   0.012  0.00  0.00    +0.000 A 
ATOM     11 CL   UNL     1      -4.074   0.216   0.017  0.00  0.00    +0.000 Cl
ATOM     12  H   UNL     1      -1.900   2.004  -0.040  0.00  0.00    +0.000 HD
ENDROOT
TORSDOF 0
