MODEL 1
REMARK VINA RESULT:      -3.8      0.000      0.000
REMARK  Name = *****
REMARK  1 active torsions:
REMARK  status: ('A' for Active; 'I' for Inactive)
REMARK    1  A    between atoms: C_1  and  C_2
REMARK                            x       y       z     vdW  Elec       q    Type
REMARK                         _______ _______ _______ _____ _____    ______ ____
ROOT
ATOM      1  C   UNL     1      98.946 128.815  84.191  0.00  0.00    +0.000 C 
ATOM      2  C   UNL     1      99.752 127.891  83.352  0.00  0.00    +0.000 A 
ATOM      3  C   UNL     1      99.285 126.793  82.657  0.00  0.00    +0.000 A 
ATOM      4  N   UNL     1     100.341 126.210  82.012  0.00  0.00    +0.000 N 
ATOM      5  C   UNL     1     101.500 126.906  82.269  0.00  0.00    +0.000 A 
ATOM      6  C   UNL     1     101.161 127.968  83.109  0.00  0.00    +0.000 A 
ATOM      7  C   UNL     1     102.181 128.847  83.528  0.00  0.00    +0.000 A 
ATOM      8  C   UNL     1     103.493 128.628  83.091  0.00  0.00    +0.000 A 
ATOM      9  C   UNL     1     103.810 127.563  82.253  0.00  0.00    +0.000 A 
ATOM     10  C   UNL     1     102.812 126.687  81.831  0.00  0.00    +0.000 A 
ATOM     11 CL   UNL     1     103.190 125.368  80.796  0.00  0.00    +0.000 Cl
ATOM     12 CL   UNL     1     104.739 129.702  83.603  0.00  0.00    +0.000 Cl
ATOM     13  H   UNL     1     100.280 125.407  81.444  0.00  0.00    +0.000 HD
ENDROOT
TORSDOF 0
ENDMDL
