MODEL 1
REMARK VINA RESULT:      -4.1      0.000      0.000
REMARK  Name = *****
REMARK  0 active torsions:
REMARK  status: ('A' for Active; 'I' for Inactive)
REMARK                            x       y       z     vdW  Elec       q    Type
REMARK                         _______ _______ _______ _____ _____    ______ ____
ROOT
ATOM      1  C   UNL     1     100.337 128.703  83.705  0.00  0.00    +0.000 A 
ATOM      2  C   UNL     1      99.223 128.065  83.326  0.00  0.00    +0.000 A 
ATOM      3  C   UNL     1      99.276 126.878  82.439  0.00  0.00    +0.000 A 
ATOM      4  O   UNL     1      98.249 126.303  82.099  0.00  0.00    +0.000 OA
ATOM      5  N   UNL     1     100.517 126.472  82.032  0.00  0.00    +0.000 N 
ATOM      6  C   UNL     1     101.713 127.111  82.403  0.00  0.00    +0.000 A 
ATOM      7  C   UNL     1     102.953 126.645  81.951  0.00  0.00    +0.000 A 
ATOM      8  C   UNL     1     104.127 127.296  82.331  0.00  0.00    +0.000 A 
ATOM      9  C   UNL     1     104.053 128.410  83.166  0.00  0.00    +0.000 A 
ATOM     10  C   UNL     1     102.823 128.883  83.624  0.00  0.00    +0.000 A 
ATOM     11  C   UNL     1     101.645 128.234  83.243  0.00  0.00    +0.000 A 
ATOM     12 CL   UNL     1     105.500 129.216  83.637  0.00  0.00    +0.000 Cl
ATOM     13 CL   UNL     1     103.068 125.267  80.917  0.00  0.00    +0.000 Cl
ATOM     14  H   UNL     1     100.576 125.685  81.443  0.00  0.00    +0.000 HD
ENDROOT
TORSDOF 0
ENDMDL
