MODEL 1
REMARK VINA RESULT:      -3.3      0.000      0.000
REMARK  Name = *****
REMARK  0 active torsions:
REMARK  status: ('A' for Active; 'I' for Inactive)
REMARK                            x       y       z     vdW  Elec       q    Type
REMARK                         _______ _______ _______ _____ _____    ______ ____
ROOT
ATOM      1  C   UNL     1     102.249 126.579  82.029  0.00  0.00    +0.000 C 
ATOM      2  C   UNL     1     103.184 127.660  81.466  0.00  0.00    +0.000 C 
ATOM      3  C   UNL     1     103.971 127.188  80.237  0.00  0.00    +0.000 C 
ATOM      4  C   UNL     1     104.683 125.883  80.561  0.00  0.00    +0.000 C 
ATOM      5  C   UNL     1     105.414 125.189  79.421  0.00  0.00    +0.000 C 
ATOM      6  C   UNL     1     105.526 123.729  79.892  0.00  0.00    +0.000 C 
ATOM      7  C   UNL     1     104.550 123.571  81.069  0.00  0.00    +0.000 C 
ATOM      8  C   UNL     1     103.679 124.816  80.992  0.00  0.00    +0.000 C 
ATOM      9  C   UNL     1     102.960 125.240  82.262  0.00  0.00    +0.000 C 
ENDROOT
TORSDOF 0
ENDMDL
