MODEL 1
REMARK VINA RESULT:      -4.1      0.000      0.000
REMARK  Name = *****
REMARK  3 active torsions:
REMARK  status: ('A' for Active; 'I' for Inactive)
REMARK    1  A    between atoms: C_1  and  C_2
REMARK    2  A    between atoms: C_2  and  O_3
REMARK    3  A    between atoms: O_3  and  C_4
REMARK                            x       y       z     vdW  Elec       q    Type
REMARK                         _______ _______ _______ _____ _____    ______ ____
ROOT
ATOM      1  C   UNL     1      88.865  70.186  86.664  0.00  0.00    +0.000 A 
ATOM      2  C   UNL     1      87.851  70.712  85.858  0.00  0.00    +0.000 A 
ATOM      3  C   UNL     1      86.693  71.277  86.416  0.00  0.00    +0.000 A 
ATOM      4  C   UNL     1      86.553  71.313  87.822  0.00  0.00    +0.000 A 
ATOM      5  C   UNL     1      87.576  70.783  88.623  0.00  0.00    +0.000 A 
ATOM      6  C   UNL     1      88.722  70.223  88.049  0.00  0.00    +0.000 A 
ATOM      7  C   UNL     1      85.398  71.877  88.386  0.00  0.00    +0.000 A 
ATOM      8  C   UNL     1      84.396  72.397  87.566  0.00  0.00    +0.000 A 
ATOM      9  C   UNL     1      84.528  72.364  86.181  0.00  0.00    +0.000 A 
ATOM     10  C   UNL     1      85.672  71.806  85.609  0.00  0.00    +0.000 A 
ATOM     11 BR   UNL     1      82.848  73.154  88.342  0.00  0.00    +0.000 Br
ENDROOT
BRANCH   1  12
ATOM     12  O   UNL     1      89.930  69.671  85.978  0.00  0.00    +0.000 OA
BRANCH  12  14
ATOM     13  C   UNL     1      90.092  67.303  86.174  0.00  0.00    +0.000 C 
ATOM     14  C   UNL     1      89.717  68.456  85.261  0.00  0.00    +0.000 C 
ENDBRANCH  12  14
ENDBRANCH   1  12
TORSDOF 2
ENDMDL
