MODEL 1
REMARK VINA RESULT:      -3.6      0.000      0.000
REMARK  Name = *****
REMARK  2 active torsions:
REMARK  status: ('A' for Active; 'I' for Inactive)
REMARK    1  A    between atoms: C_1  and  C_2
REMARK    2  A    between atoms: C_9  and  C_11
REMARK                            x       y       z     vdW  Elec       q    Type
REMARK                         _______ _______ _______ _____ _____    ______ ____
ROOT
ATOM      1  C   UNL     1      87.630  70.608  89.943  0.00  0.00    +0.000 C 
ATOM      2  C   UNL     1      87.551  70.771  88.461  0.00  0.00    +0.000 A 
ATOM      3  C   UNL     1      86.559  71.288  87.656  0.00  0.00    +0.000 A 
ATOM      4  C   UNL     1      85.349  71.793  88.144  0.00  0.00    +0.000 A 
ATOM      5  C   UNL     1      84.507  72.263  87.112  0.00  0.00    +0.000 A 
ATOM      6  C   UNL     1      84.851  72.227  85.726  0.00  0.00    +0.000 A 
ATOM      7  C   UNL     1      86.071  71.718  85.231  0.00  0.00    +0.000 A 
ATOM      8  C   UNL     1      86.908  71.252  86.251  0.00  0.00    +0.000 A 
ATOM      9  C   UNL     1      88.154  70.709  86.027  0.00  0.00    +0.000 A 
ATOM     10  S   UNL     1      88.889  70.248  87.514  0.00  0.00    +0.000 S 
ATOM     11  C   UNL     1      88.913  70.474  84.764  0.00  0.00    +0.000 C 
ENDROOT
TORSDOF 0
ENDMDL
