REMARK  Name = *****
REMARK  3 active torsions:
REMARK  status: ('A' for Active; 'I' for Inactive)
REMARK    1  A    between atoms: C_1  and  C_2
REMARK    2  A    between atoms: C_2  and  O_3
REMARK    3  A    between atoms: O_3  and  C_4
REMARK                            x       y       z     vdW  Elec       q    Type
REMARK                         _______ _______ _______ _____ _____    ______ ____
ROOT
ATOM      1  C   UNL     1       2.565   1.393  -2.372  0.00  0.00    +0.000 A 
ATOM      2  C   UNL     1       3.585   1.512  -3.322  0.00  0.00    +0.000 A 
ATOM      3  C   UNL     1       3.336   1.332  -4.693  0.00  0.00    +0.000 A 
ATOM      4  C   UNL     1       4.358   1.454  -5.648  0.00  0.00    +0.000 A 
ATOM      5  C   UNL     1       4.090   1.273  -7.006  0.00  0.00    +0.000 A 
ATOM      6  C   UNL     1       2.799   0.967  -7.425  0.00  0.00    +0.000 A 
ATOM      7  C   UNL     1       1.773   0.841  -6.488  0.00  0.00    +0.000 A 
ATOM      8  C   UNL     1       2.027   1.021  -5.118  0.00  0.00    +0.000 A 
ATOM      9  C   UNL     1       1.009   0.900  -4.160  0.00  0.00    +0.000 A 
ATOM     10  C   UNL     1       1.275   1.085  -2.798  0.00  0.00    +0.000 A 
ENDROOT
BRANCH   1  11
ATOM     11  O   UNL     1       2.970   1.606  -1.085  0.00  0.00    +0.000 OA
BRANCH  11  13
ATOM     12  C   UNL     1       1.287   2.827   0.163  0.00  0.00    +0.000 C 
ATOM     13  C   UNL     1       2.018   1.506  -0.032  0.00  0.00    +0.000 C 
ATOM     14 CL   UNL     1       2.924   1.129   1.469  0.00  0.00    +0.000 Cl
ENDBRANCH  11  13
ENDBRANCH   1  11
TORSDOF 2
