REMARK  Name = *****
REMARK  1 active torsions:
REMARK  status: ('A' for Active; 'I' for Inactive)
REMARK    1  A    between atoms: C_8  and  C_10
REMARK                            x       y       z     vdW  Elec       q    Type
REMARK                         _______ _______ _______ _____ _____    ______ ____
ROOT
ATOM      1  C   UNL     1       0.878  -1.411  -0.076  0.00  0.00    +0.000 A 
ATOM      2  C   UNL     1       2.088  -0.707  -0.041  0.00  0.00    +0.000 A 
ATOM      3  C   UNL     1       2.125   0.682  -0.019  0.00  0.00    +0.000 A 
ATOM      4  C   UNL     1       0.927   1.392  -0.031  0.00  0.00    +0.000 A 
ATOM      5  C   UNL     1      -0.319   0.734  -0.067  0.00  0.00    +0.000 A 
ATOM      6  C   UNL     1      -0.310  -0.665  -0.088  0.00  0.00    +0.000 A 
ATOM      7  N   UNL     1      -1.622  -1.084  -0.121  0.00  0.00    +0.000 N 
ATOM      8  C   UNL     1      -2.464  -0.003  -0.123  0.00  0.00    +0.000 A 
ATOM      9  C   UNL     1      -1.688   1.135  -0.089  0.00  0.00    +0.000 A 
ATOM     10 CL   UNL     1       0.889   3.100  -0.006  0.00  0.00    +0.000 Cl
ATOM     11 CL   UNL     1       3.568  -1.591  -0.026  0.00  0.00    +0.000 Cl
ATOM     12  H   UNL     1      -1.913  -2.024  -0.141  0.00  0.00    +0.000 HD
ENDROOT
BRANCH   8  13
ATOM     13  C   UNL     1      -3.881  -0.105  -0.156  0.00  0.00    +0.000 C 
ATOM     14  N   UNL     1      -5.034  -0.222  -0.183  0.00  0.00    +0.000 NA
ENDBRANCH   8  13
TORSDOF 1
