REMARK  Name = *****
REMARK  0 active torsions:
REMARK  status: ('A' for Active; 'I' for Inactive)
REMARK                            x       y       z     vdW  Elec       q    Type
REMARK                         _______ _______ _______ _____ _____    ______ ____
ROOT
ATOM      1  C   UNL     1       1.034  -1.420  -0.003  0.00  0.00    +0.000 A 
ATOM      2  C   UNL     1       2.196  -0.646  -0.005  0.00  0.00    +0.000 A 
ATOM      3  C   UNL     1       2.138   0.756  -0.005  0.00  0.00    +0.000 A 
ATOM      4  C   UNL     1       0.900   1.401  -0.003  0.00  0.00    +0.000 A 
ATOM      5  C   UNL     1      -0.254   0.629  -0.002  0.00  0.00    +0.000 A 
ATOM      6  C   UNL     1      -0.184  -0.763  -0.002  0.00  0.00    +0.000 A 
ATOM      7  S   UNL     1      -1.813  -1.463   0.000  0.00  0.00    +0.000 S 
ATOM      8  C   UNL     1      -2.554   0.147   0.001  0.00  0.00    +0.000 A 
ATOM      9  O   UNL     1      -3.755   0.352   0.002  0.00  0.00    +0.000 OA
ATOM     10  N   UNL     1      -1.568   1.105  -0.000  0.00  0.00    +0.000 N 
ATOM     11 CL   UNL     1       0.827   3.119  -0.003  0.00  0.00    +0.000 Cl
ATOM     12 CL   UNL     1       3.731  -1.426  -0.007  0.00  0.00    +0.000 Cl
ATOM     13  H   UNL     1      -1.775   2.067  -0.000  0.00  0.00    +0.000 HD
ENDROOT
TORSDOF 0
