MODEL 1
REMARK VINA RESULT:      -3.8      0.000      0.000
REMARK  Name = *****
REMARK  2 active torsions:
REMARK  status: ('A' for Active; 'I' for Inactive)
REMARK    1  A    between atoms: C_1  and  C_2
REMARK    2  A    between atoms: C_2  and  N_3
REMARK                            x       y       z     vdW  Elec       q    Type
REMARK                         _______ _______ _______ _____ _____    ______ ____
ROOT
ATOM      1  N   UNL     1      88.553  64.949  86.791  0.00  0.00    +0.000 N 
ATOM      2  C   UNL     1      88.593  66.358  86.940  0.00  0.00    +0.000 A 
ATOM      3  C   UNL     1      89.672  66.876  86.210  0.00  0.00    +0.000 A 
ATOM      4  C   UNL     1      89.996  68.219  86.138  0.00  0.00    +0.000 A 
ATOM      5  C   UNL     1      89.184  69.096  86.843  0.00  0.00    +0.000 A 
ATOM      6  C   UNL     1      88.094  68.624  87.590  0.00  0.00    +0.000 A 
ATOM      7  C   UNL     1      87.791  67.251  87.644  0.00  0.00    +0.000 A 
ATOM      8 CL   UNL     1      86.432  66.799  88.597  0.00  0.00    +0.000 Cl
ATOM      9 CL   UNL     1      89.518  70.783  86.806  0.00  0.00    +0.000 Cl
ATOM     10  C   UNL     1      90.369  65.763  85.574  0.00  0.00    +0.000 C 
ATOM     11  O   UNL     1      91.346  65.832  84.864  0.00  0.00    +0.000 OA
ATOM     12  C   UNL     1      89.604  64.497  86.000  0.00  0.00    +0.000 C 
ATOM     13  O   UNL     1      89.908  63.365  85.690  0.00  0.00    +0.000 OA
ENDROOT
BRANCH   1  15
ATOM     14  C   UNL     1      88.122  63.576  88.789  0.00  0.00    +0.000 C 
ATOM     15  C   UNL     1      87.636  64.027  87.421  0.00  0.00    +0.000 C 
ENDBRANCH   1  15
TORSDOF 1
ENDMDL
