REMARK  Name = *****
REMARK  3 active torsions:
REMARK  status: ('A' for Active; 'I' for Inactive)
REMARK    1  A    between atoms: C_1  and  C_2
REMARK    2  A    between atoms: C_2  and  C_4
REMARK    3  A    between atoms: C_11  and  C_13
REMARK                            x       y       z     vdW  Elec       q    Type
REMARK                         _______ _______ _______ _____ _____    ______ ____
ROOT
ATOM      1  C   UNL     1       3.190   1.100   0.871  0.00  0.00    +0.000 A 
ATOM      2  C   UNL     1       3.108   1.452   2.207  0.00  0.00    +0.000 A 
ATOM      3  C   UNL     1       3.993   2.539   2.447  0.00  0.00    +0.000 A 
ATOM      4  C   UNL     1       4.610   2.836   1.235  0.00  0.00    +0.000 A 
ATOM      5  N   UNL     1       4.107   1.957   0.302  0.00  0.00    +0.000 N 
ATOM      6  C   UNL     1       5.553   3.860   1.094  0.00  0.00    +0.000 A 
ATOM      7  C   UNL     1       5.872   4.604   2.236  0.00  0.00    +0.000 A 
ATOM      8  C   UNL     1       5.269   4.331   3.468  0.00  0.00    +0.000 A 
ATOM      9  C   UNL     1       4.326   3.298   3.585  0.00  0.00    +0.000 A 
ATOM     10  H   UNL     1       4.369   1.942  -0.647  0.00  0.00    +0.000 HD
ENDROOT
BRANCH   1  12
ATOM     11  C   UNL     1       2.663   0.070  -1.469  0.00  0.00    +0.000 C 
ATOM     12  C   UNL     1       2.563   0.114   0.042  0.00  0.00    +0.000 C 
ATOM     13  C   UNL     1       1.830  -0.835   0.654  0.00  0.00    +0.000 C 
ENDBRANCH   1  12
BRANCH   8  14
ATOM     14  C   UNL     1       5.615   5.110   4.621  0.00  0.00    +0.000 C 
ATOM     15  N   UNL     1       5.897   5.743   5.552  0.00  0.00    +0.000 NA
ENDBRANCH   8  14
TORSDOF 2
