MODEL 1
REMARK VINA RESULT:      -4.1      0.000      0.000
REMARK  Name = *****
REMARK  1 active torsions:
REMARK  status: ('A' for Active; 'I' for Inactive)
REMARK    1  A    between atoms: C_8  and  O_13
REMARK                            x       y       z     vdW  Elec       q    Type
REMARK                         _______ _______ _______ _____ _____    ______ ____
ROOT
ATOM      1  C   UNL     1     103.549 126.379  82.100  0.00  0.00    +0.000 A 
ATOM      2  C   UNL     1     102.248 125.928  81.881  0.00  0.00    +0.000 A 
ATOM      3  C   UNL     1     101.168 126.688  82.332  0.00  0.00    +0.000 A 
ATOM      4  C   UNL     1     101.363 127.917  82.991  0.00  0.00    +0.000 A 
ATOM      5  C   UNL     1     102.676 128.347  83.227  0.00  0.00    +0.000 A 
ATOM      6  C   UNL     1     103.758 127.582  82.776  0.00  0.00    +0.000 A 
ATOM      7  I   UNL     1     105.700 128.239  83.126  0.00  0.00    +0.000 I 
ATOM      8  C   UNL     1     100.165 128.663  83.420  0.00  0.00    +0.000 A 
ATOM      9  C   UNL     1      98.942 128.152  83.242  0.00  0.00    +0.000 A 
ATOM     10  C   UNL     1      98.745 126.848  82.577  0.00  0.00    +0.000 A 
ATOM     11  O   UNL     1      97.622 126.384  82.415  0.00  0.00    +0.000 OA
ATOM     12  N   UNL     1      99.868 126.203  82.139  0.00  0.00    +0.000 N 
ATOM     13  H   UNL     1      99.757 125.349  81.663  0.00  0.00    +0.000 HD
ENDROOT
BRANCH   8  14
ATOM     14  O   UNL     1     100.310 129.912  83.986  0.00  0.00    +0.000 OA
ATOM     15  H   UNL     1      99.578 130.326  84.399  0.00  0.00    +0.000 HD
ENDBRANCH   8  14
TORSDOF 1
ENDMDL
