MODEL 1
REMARK VINA RESULT:      -3.5      0.000      0.000
REMARK  Name = *****
REMARK  1 active torsions:
REMARK  status: ('A' for Active; 'I' for Inactive)
REMARK    1  A    between atoms: C_1  and  C_2
REMARK                            x       y       z     vdW  Elec       q    Type
REMARK                         _______ _______ _______ _____ _____    ______ ____
ROOT
ATOM      1  C   UNL     1      86.441  69.220  87.752  0.00  0.00    +0.000 C 
ATOM      2  C   UNL     1      87.063  70.636  87.773  0.00  0.00    +0.000 C 
ATOM      3  C   UNL     1      88.480  70.575  88.363  0.00  0.00    +0.000 C 
ATOM      4  C   UNL     1      89.450  69.849  87.412  0.00  0.00    +0.000 C 
ATOM      5  C   UNL     1      89.411  70.382  85.973  0.00  0.00    +0.000 C 
ATOM      6  C   UNL     1      87.993  70.540  85.406  0.00  0.00    +0.000 C 
ATOM      7  C   UNL     1      87.150  71.323  86.398  0.00  0.00    +0.000 C 
ATOM      8  C   UNL     1      85.700  71.613  86.046  0.00  0.00    +0.000 C 
ATOM      9  C   UNL     1      85.069  71.978  87.402  0.00  0.00    +0.000 C 
ATOM     10  C   UNL     1      86.095  71.591  88.486  0.00  0.00    +0.000 C 
ENDROOT
TORSDOF 0
ENDMDL
