REMARK  Name = *****
REMARK  2 active torsions:
REMARK  status: ('A' for Active; 'I' for Inactive)
REMARK    1  A    between atoms: C_1  and  O_2
REMARK    2  A    between atoms: O_2  and  C_3
REMARK                            x       y       z     vdW  Elec       q    Type
REMARK                         _______ _______ _______ _____ _____    ______ ____
ROOT
ATOM      1  C   UNL     1       2.904   0.310   1.160  0.00  0.00    +0.000 A 
ATOM      2  C   UNL     1       4.049   1.131   1.099  0.00  0.00    +0.000 A 
ATOM      3  C   UNL     1       4.809   1.363   2.272  0.00  0.00    +0.000 A 
ATOM      4  C   UNL     1       4.441   0.788   3.494  0.00  0.00    +0.000 A 
ATOM      5  C   UNL     1       3.290  -0.033   3.530  0.00  0.00    +0.000 A 
ATOM      6  C   UNL     1       2.537  -0.264   2.374  0.00  0.00    +0.000 A 
ATOM      7  C   UNL     1       5.345   1.153   4.549  0.00  0.00    +0.000 A 
ATOM      8  C   UNL     1       6.358   1.977   4.123  0.00  0.00    +0.000 A 
ATOM      9  S   UNL     1       6.239   2.322   2.461  0.00  0.00    +0.000 S 
ATOM     10 CL   UNL     1       4.527   1.856  -0.404  0.00  0.00    +0.000 Cl
ENDROOT
BRANCH   1  12
ATOM     11  C   UNL     1       1.042  -0.669   0.015  0.00  0.00    +0.000 C 
ATOM     12  O   UNL     1       2.217   0.130  -0.015  0.00  0.00    +0.000 OA
ENDBRANCH   1  12
TORSDOF 1
