MODEL 1
REMARK VINA RESULT:      -4.2      0.000      0.000
REMARK  Name = *****
REMARK  5 active torsions:
REMARK  status: ('A' for Active; 'I' for Inactive)
REMARK    1  A    between atoms: C_1  and  C_2
REMARK    2  A    between atoms: C_3  and  C_14
REMARK    3  A    between atoms: C_4  and  C_13
REMARK    4  A    between atoms: C_8  and  O_11
REMARK    5  A    between atoms: O_11  and  C_12
REMARK                            x       y       z     vdW  Elec       q    Type
REMARK                         _______ _______ _______ _____ _____    ______ ____
ROOT
ATOM      1  C   UNL     1     102.731 125.446  82.360  0.00  0.00    +0.000 C 
ATOM      2  C   UNL     1     102.368 126.883  81.999  0.00  0.00    +0.000 C 
ATOM      3  C   UNL     1     103.288 127.916  82.644  0.00  0.00    +0.000 C 
ATOM      4  C   UNL     1     102.618 128.772  83.444  0.00  0.00    +0.000 C 
ATOM      5  C   UNL     1     101.204 128.400  83.406  0.00  0.00    +0.000 A 
ATOM      6  C   UNL     1     101.038 127.295  82.564  0.00  0.00    +0.000 A 
ATOM      7  C   UNL     1      99.785 126.746  82.339  0.00  0.00    +0.000 A 
ATOM      8  C   UNL     1      98.673 127.307  82.978  0.00  0.00    +0.000 A 
ATOM      9  C   UNL     1      98.841 128.412  83.828  0.00  0.00    +0.000 A 
ATOM     10  C   UNL     1     100.112 128.964  84.045  0.00  0.00    +0.000 A 
ATOM     11  C   UNL     1     103.109 129.918  84.253  0.00  0.00    +0.000 C 
ATOM     12  C   UNL     1     104.743 127.909  82.320  0.00  0.00    +0.000 C 
ENDROOT
BRANCH   8  13
ATOM     13  O   UNL     1      97.485 126.690  82.692  0.00  0.00    +0.000 OA
ATOM     14  C   UNL     1      96.639 126.381  83.792  0.00  0.00    +0.000 C 
ENDBRANCH   8  13
TORSDOF 1
ENDMDL
