REMARK  Name = *****
REMARK  0 active torsions:
REMARK  status: ('A' for Active; 'I' for Inactive)
REMARK                            x       y       z     vdW  Elec       q    Type
REMARK                         _______ _______ _______ _____ _____    ______ ____
ROOT
ATOM      1  C   UNL     1       0.918   1.393  -0.036  0.00  0.00    +0.000 A 
ATOM      2  C   UNL     1      -0.244   0.663   0.006  0.00  0.00    +0.000 A 
ATOM      3  C   UNL     1      -0.251  -0.729   0.006  0.00  0.00    +0.000 A 
ATOM      4  C   UNL     1       0.916  -1.466  -0.034  0.00  0.00    +0.000 A 
ATOM      5  C   UNL     1       2.132  -0.756  -0.078  0.00  0.00    +0.000 A 
ATOM      6  C   UNL     1       2.122   0.669  -0.078  0.00  0.00    +0.000 A 
ATOM      7  I   UNL     1       3.881   1.833  -0.142  0.00  0.00    +0.000 I 
ATOM      8 CL   UNL     1       3.630  -1.637  -0.131  0.00  0.00    +0.000 Cl
ATOM      9 CL   UNL     1       0.820  -3.189  -0.030  0.00  0.00    +0.000 Cl
ATOM     10  N   UNL     1      -1.584  -1.142   0.053  0.00  0.00    +0.000 N 
ATOM     11  C   UNL     1      -2.411  -0.013   0.081  0.00  0.00    +0.000 A 
ATOM     12  O   UNL     1      -3.627   0.002   0.122  0.00  0.00    +0.000 OA
ATOM     13  N   UNL     1      -1.561   1.103   0.051  0.00  0.00    +0.000 N 
ATOM     14  H   UNL     1      -1.892  -2.077   0.064  0.00  0.00    +0.000 HD
ATOM     15  H   UNL     1      -1.851   2.044   0.061  0.00  0.00    +0.000 HD
ENDROOT
TORSDOF 0
