REMARK  Name = *****
REMARK  4 active torsions:
REMARK  status: ('A' for Active; 'I' for Inactive)
REMARK    1  A    between atoms: C_1  and  C_2
REMARK    2  A    between atoms: C_3  and  C_13
REMARK    3  A    between atoms: C_9  and  O_11
REMARK    4  A    between atoms: O_11  and  C_12
REMARK                            x       y       z     vdW  Elec       q    Type
REMARK                         _______ _______ _______ _____ _____    ______ ____
ROOT
ATOM      1  C   UNL     1       0.918   0.128   0.028  0.00  0.00    +0.000 C 
ATOM      2  C   UNL     1       2.441   0.097   0.045  0.00  0.00    +0.000 C 
ATOM      3  C   UNL     1       3.075   1.246  -0.729  0.00  0.00    +0.000 C 
ATOM      4  C   UNL     1       3.853   0.820  -1.740  0.00  0.00    +0.000 C 
ATOM      5  C   UNL     1       3.823  -0.633  -1.747  0.00  0.00    +0.000 A 
ATOM      6  C   UNL     1       3.001  -1.083  -0.707  0.00  0.00    +0.000 A 
ATOM      7  C   UNL     1       2.812  -2.436  -0.485  0.00  0.00    +0.000 A 
ATOM      8  C   UNL     1       3.459  -3.336  -1.337  0.00  0.00    +0.000 A 
ATOM      9  C   UNL     1       4.281  -2.889  -2.389  0.00  0.00    +0.000 A 
ATOM     10  C   UNL     1       4.468  -1.519  -2.596  0.00  0.00    +0.000 A 
ATOM     11  C   UNL     1       2.849   2.663  -0.334  0.00  0.00    +0.000 C 
ENDROOT
BRANCH   9  12
ATOM     12  O   UNL     1       4.841  -3.894  -3.132  0.00  0.00    +0.000 OA
ATOM     13  C   UNL     1       5.661  -3.503  -4.226  0.00  0.00    +0.000 C 
ENDBRANCH   9  12
TORSDOF 1
