MODEL 1
REMARK VINA RESULT:      -4.1      0.000      0.000
REMARK  Name = *****
REMARK  2 active torsions:
REMARK  status: ('A' for Active; 'I' for Inactive)
REMARK    1  A    between atoms: C_1  and  O_2
REMARK    2  A    between atoms: O_2  and  C_3
REMARK                            x       y       z     vdW  Elec       q    Type
REMARK                         _______ _______ _______ _____ _____    ______ ____
ROOT
ATOM      1  C   UNL     1      98.668 127.737  82.925  0.00  0.00    +0.000 A 
ATOM      2  C   UNL     1      99.613 126.841  82.409  0.00  0.00    +0.000 A 
ATOM      3  C   UNL     1     100.995 127.052  82.549  0.00  0.00    +0.000 A 
ATOM      4  C   UNL     1     101.440 128.205  83.235  0.00  0.00    +0.000 A 
ATOM      5  C   UNL     1     100.492 129.100  83.754  0.00  0.00    +0.000 A 
ATOM      6  C   UNL     1      99.119 128.870  83.602  0.00  0.00    +0.000 A 
ATOM      7  C   UNL     1     102.819 128.431  83.381  0.00  0.00    +0.000 A 
ATOM      8  C   UNL     1     103.741 127.526  82.854  0.00  0.00    +0.000 A 
ATOM      9  C   UNL     1     103.310 126.389  82.178  0.00  0.00    +0.000 A 
ATOM     10  C   UNL     1     101.943 126.154  82.027  0.00  0.00    +0.000 A 
ATOM     11 BR   UNL     1     105.592 127.849  83.060  0.00  0.00    +0.000 Br
ATOM     12  F   UNL     1      99.184 125.745  81.757  0.00  0.00    +0.000 F 
ENDROOT
BRANCH   1  14
ATOM     13  C   UNL     1      96.662 126.782  83.784  0.00  0.00    +0.000 C 
ATOM     14  O   UNL     1      97.357 127.406  82.714  0.00  0.00    +0.000 OA
ENDBRANCH   1  14
TORSDOF 1
ENDMDL
