MODEL 1
REMARK VINA RESULT:      -4.3      0.000      0.000
REMARK  Name = *****
REMARK  5 active torsions:
REMARK  status: ('A' for Active; 'I' for Inactive)
REMARK    1  A    between atoms: C_1  and  C_2
REMARK    2  A    between atoms: C_5  and  C_12
REMARK    3  A    between atoms: C_8  and  C_11
REMARK    4  A    between atoms: C_12  and  O_14
REMARK    5  A    between atoms: O_14  and  C_15
REMARK                            x       y       z     vdW  Elec       q    Type
REMARK                         _______ _______ _______ _____ _____    ______ ____
ROOT
ATOM      1  C   UNL     1     102.963 129.972  84.295  0.00  0.00    +0.000 C 
ATOM      2  C   UNL     1     101.827 129.120  83.804  0.00  0.00    +0.000 A 
ATOM      3  C   UNL     1     101.997 127.935  83.051  0.00  0.00    +0.000 A 
ATOM      4  C   UNL     1     103.140 127.236  82.559  0.00  0.00    +0.000 A 
ATOM      5  C   UNL     1     102.713 126.114  81.875  0.00  0.00    +0.000 A 
ATOM      6  N   UNL     1     101.341 126.119  81.942  0.00  0.00    +0.000 N 
ATOM      7  C   UNL     1     100.875 127.208  82.645  0.00  0.00    +0.000 A 
ATOM      8  C   UNL     1      99.556 127.590  82.947  0.00  0.00    +0.000 A 
ATOM      9  C   UNL     1      99.410 128.764  83.705  0.00  0.00    +0.000 A 
ATOM     10  C   UNL     1     100.511 129.509  84.122  0.00  0.00    +0.000 A 
ATOM     11  C   UNL     1      98.332 126.826  82.534  0.00  0.00    +0.000 C 
ATOM     12  H   UNL     1     100.763 125.432  81.537  0.00  0.00    +0.000 HD
ENDROOT
BRANCH   5  13
ATOM     13  C   UNL     1     103.444 125.077  81.193  0.00  0.00    +0.000 C 
ATOM     14  O   UNL     1     103.625 125.039  79.983  0.00  0.00    +0.000 OA
BRANCH  13  15
ATOM     15  O   UNL     1     103.901 124.155  82.085  0.00  0.00    +0.000 OA
ATOM     16  C   UNL     1     104.694 123.125  81.498  0.00  0.00    +0.000 C 
ENDBRANCH  13  15
ENDBRANCH   5  13
TORSDOF 2
ENDMDL
