MODEL 1
REMARK VINA RESULT:      -3.2      0.000      0.000
REMARK  Name = *****
REMARK  2 active torsions:
REMARK  status: ('A' for Active; 'I' for Inactive)
REMARK    1  A    between atoms: C_1  and  O_2
REMARK    2  A    between atoms: O_2  and  C_3
REMARK                            x       y       z     vdW  Elec       q    Type
REMARK                         _______ _______ _______ _____ _____    ______ ____
ROOT
ATOM      1  C   UNL     1     103.026 125.976  82.210  0.00  0.00    +0.000 A 
ATOM      2  C   UNL     1     103.701 126.108  80.984  0.00  0.00    +0.000 A 
ATOM      3  C   UNL     1     104.628 125.141  80.513  0.00  0.00    +0.000 A 
ATOM      4  C   UNL     1     104.848 124.027  81.329  0.00  0.00    +0.000 A 
ATOM      5  C   UNL     1     104.183 123.871  82.561  0.00  0.00    +0.000 A 
ATOM      6  C   UNL     1     103.278 124.851  82.987  0.00  0.00    +0.000 A 
ATOM      7  S   UNL     1     105.991 122.940  80.635  0.00  0.00    +0.000 S 
ATOM      8  C   UNL     1     106.203 123.922  79.261  0.00  0.00    +0.000 A 
ATOM      9  C   UNL     1     105.427 125.056  79.316  0.00  0.00    +0.000 A 
ATOM     10 CL   UNL     1     103.463 127.460  79.944  0.00  0.00    +0.000 Cl
ENDROOT
BRANCH   1  12
ATOM     11  C   UNL     1     100.766 126.707  82.471  0.00  0.00    +0.000 C 
ATOM     12  O   UNL     1     102.159 126.982  82.547  0.00  0.00    +0.000 OA
ENDBRANCH   1  12
TORSDOF 1
ENDMDL
