REMARK  Name = *****
REMARK  0 active torsions:
REMARK  status: ('A' for Active; 'I' for Inactive)
REMARK                            x       y       z     vdW  Elec       q    Type
REMARK                         _______ _______ _______ _____ _____    ______ ____
ROOT
ATOM      1  C   UNL     1       3.332   0.800   0.747  0.00  0.00    +0.000 C 
ATOM      2  C   UNL     1       3.478   2.181   0.020  0.00  0.00    +0.000 C 
ATOM      3  C   UNL     1       2.326   2.086  -0.940  0.00  0.00    +0.000 C 
ATOM      4  C   UNL     1       1.928   2.842  -2.207  0.00  0.00    +0.000 C 
ATOM      5  C   UNL     1       0.759   1.885  -2.593  0.00  0.00    +0.000 C 
ATOM      6  C   UNL     1       1.664   0.650  -2.735  0.00  0.00    +0.000 C 
ATOM      7  C   UNL     1       2.530   0.643  -1.464  0.00  0.00    +0.000 C 
ATOM      8  C   UNL     1       2.419  -0.098  -0.157  0.00  0.00    +0.000 C 
ATOM      9  C   UNL     1       2.602   1.276  -3.767  0.00  0.00    +0.000 C 
ATOM     10  C   UNL     1       2.809   2.557  -3.402  0.00  0.00    +0.000 C 
ENDROOT
TORSDOF 0
