MODEL 1
REMARK VINA RESULT:      -3.8      0.000      0.000
REMARK  Name = *****
REMARK  0 active torsions:
REMARK  status: ('A' for Active; 'I' for Inactive)
REMARK                            x       y       z     vdW  Elec       q    Type
REMARK                         _______ _______ _______ _____ _____    ______ ____
ROOT
ATOM      1  C   UNL     1      89.782  68.551  85.777  0.00  0.00    +0.000 A 
ATOM      2  C   UNL     1      89.301  67.401  86.366  0.00  0.00    +0.000 A 
ATOM      3  C   UNL     1      88.191  67.446  87.206  0.00  0.00    +0.000 A 
ATOM      4  N   UNL     1      87.510  68.559  87.510  0.00  0.00    +0.000 NA
ATOM      5  C   UNL     1      87.989  69.689  86.925  0.00  0.00    +0.000 A 
ATOM      6  C   UNL     1      89.101  69.737  86.066  0.00  0.00    +0.000 A 
ATOM      7 CL   UNL     1      89.669  71.198  85.349  0.00  0.00    +0.000 Cl
ATOM      8 CL   UNL     1      87.079  71.087  87.350  0.00  0.00    +0.000 Cl
ATOM      9  N   UNL     1      87.941  66.143  87.648  0.00  0.00    +0.000 N 
ATOM     10  C   UNL     1      88.897  65.263  87.088  0.00  0.00    +0.000 A 
ATOM     11  O   UNL     1      88.983  64.056  87.256  0.00  0.00    +0.000 OA
ATOM     12  N   UNL     1      89.740  66.078  86.287  0.00  0.00    +0.000 N 
ATOM     13 BR   UNL     1      91.187  65.475  85.299  0.00  0.00    +0.000 Br
ATOM     14 BR   UNL     1      86.566  65.665  88.792  0.00  0.00    +0.000 Br
ENDROOT
TORSDOF 0
ENDMDL
