MODEL 1
REMARK VINA RESULT:      -4.1      0.000      0.000
REMARK  Name = *****
REMARK  0 active torsions:
REMARK  status: ('A' for Active; 'I' for Inactive)
REMARK                            x       y       z     vdW  Elec       q    Type
REMARK                         _______ _______ _______ _____ _____    ______ ____
ROOT
ATOM      1  C   UNL     1      84.531  72.398  87.193  0.00  0.00    +0.000 A 
ATOM      2  C   UNL     1      84.826  72.312  85.832  0.00  0.00    +0.000 A 
ATOM      3  C   UNL     1      85.984  71.664  85.403  0.00  0.00    +0.000 A 
ATOM      4  C   UNL     1      86.855  71.099  86.344  0.00  0.00    +0.000 A 
ATOM      5  C   UNL     1      86.558  71.187  87.713  0.00  0.00    +0.000 A 
ATOM      6  C   UNL     1      85.393  71.838  88.136  0.00  0.00    +0.000 A 
ATOM      7  C   UNL     1      87.573  70.541  88.619  0.00  0.00    +0.000 C 
ATOM      8  S   UNL     1      88.887  69.839  87.583  0.00  0.00    +0.000 S 
ATOM      9  C   UNL     1      88.133  70.373  86.022  0.00  0.00    +0.000 C 
ATOM     10 CL   UNL     1      87.794  68.940  85.016  0.00  0.00    +0.000 Cl
ATOM     11 CL   UNL     1      89.262  71.458  85.168  0.00  0.00    +0.000 Cl
ATOM     12 CL   UNL     1      86.814  69.235  89.567  0.00  0.00    +0.000 Cl
ATOM     13 CL   UNL     1      88.280  71.754  89.719  0.00  0.00    +0.000 Cl
ENDROOT
TORSDOF 0
ENDMDL
