REMARK  Name = *****
REMARK  4 active torsions:
REMARK  status: ('A' for Active; 'I' for Inactive)
REMARK    1  A    between atoms: C_1  and  C_2
REMARK    2  A    between atoms: C_2  and  C_14
REMARK    3  A    between atoms: C_5  and  C_12
REMARK    4  A    between atoms: C_5  and  C_13
REMARK                            x       y       z     vdW  Elec       q    Type
REMARK                         _______ _______ _______ _____ _____    ______ ____
ROOT
ATOM      1  C   UNL     1       0.759  -0.172   0.343  0.00  0.00    +0.000 C 
ATOM      2  C   UNL     1       2.270  -0.046   0.081  0.00  0.00    +0.000 C 
ATOM      3  C   UNL     1       2.509   1.206  -0.809  0.00  0.00    +0.000 C 
ATOM      4  C   UNL     1       3.890   1.210  -1.483  0.00  0.00    +0.000 C 
ATOM      5  C   UNL     1       4.135  -0.040  -2.374  0.00  0.00    +0.000 C 
ATOM      6  C   UNL     1       3.600  -1.268  -1.679  0.00  0.00    +0.000 C 
ATOM      7  C   UNL     1       2.803  -1.269  -0.616  0.00  0.00    +0.000 C 
ATOM      8  C   UNL     1       2.539  -2.672  -0.225  0.00  0.00    +0.000 C 
ATOM      9  C   UNL     1       3.340  -3.391  -1.288  0.00  0.00    +0.000 C 
ATOM     10  O   UNL     1       3.427  -4.610  -1.376  0.00  0.00    +0.000 OA
ATOM     11  O   UNL     1       3.965  -2.523  -2.153  0.00  0.00    +0.000 OA
ATOM     12  C   UNL     1       3.415   0.121  -3.725  0.00  0.00    +0.000 C 
ATOM     13  C   UNL     1       5.647  -0.169  -2.628  0.00  0.00    +0.000 C 
ATOM     14  C   UNL     1       2.994   0.121   1.430  0.00  0.00    +0.000 C 
ENDROOT
TORSDOF 0
