MODEL 1
REMARK VINA RESULT:      -3.4      0.000      0.000
REMARK  Name = *****
REMARK  3 active torsions:
REMARK  status: ('A' for Active; 'I' for Inactive)
REMARK    1  A    between atoms: C_1  and  C_2
REMARK    2  A    between atoms: C_9  and  O_11
REMARK    3  A    between atoms: O_11  and  C_12
REMARK                            x       y       z     vdW  Elec       q    Type
REMARK                         _______ _______ _______ _____ _____    ______ ____
ROOT
ATOM      1  C   UNL     1      83.908  72.642  87.167  0.00  0.00    +0.000 C 
ATOM      2  C   UNL     1      85.244  71.958  87.189  0.00  0.00    +0.000 A 
ATOM      3  C   UNL     1      85.849  71.541  85.995  0.00  0.00    +0.000 A 
ATOM      4  C   UNL     1      87.079  70.885  86.032  0.00  0.00    +0.000 A 
ATOM      5  C   UNL     1      87.704  70.625  87.251  0.00  0.00    +0.000 A 
ATOM      6  C   UNL     1      87.103  71.016  88.444  0.00  0.00    +0.000 A 
ATOM      7  C   UNL     1      85.874  71.680  88.411  0.00  0.00    +0.000 A 
ATOM      8  S   UNL     1      89.248  69.756  87.191  0.00  0.00    +0.000 S 
ATOM      9  C   UNL     1      89.498  69.937  85.388  0.00  0.00    +0.000 C 
ATOM     10  S   UNL     1      87.907  70.311  84.571  0.00  0.00    +0.000 S 
ENDROOT
BRANCH   9  11
ATOM     11  O   UNL     1      90.457  70.967  85.143  0.00  0.00    +0.000 OA
ATOM     12  C   UNL     1      90.805  71.072  83.771  0.00  0.00    +0.000 C 
ENDBRANCH   9  11
TORSDOF 1
ENDMDL
