MODEL 1
REMARK VINA RESULT:      -4.2      0.000      0.000
REMARK  Name = *****
REMARK  0 active torsions:
REMARK  status: ('A' for Active; 'I' for Inactive)
REMARK                            x       y       z     vdW  Elec       q    Type
REMARK                         _______ _______ _______ _____ _____    ______ ____
ROOT
ATOM      1  C   UNL     1     102.428 125.761  82.202  0.00  0.00    +0.000 A 
ATOM      2  C   UNL     1     101.274 126.483  82.414  0.00  0.00    +0.000 A 
ATOM      3  C   UNL     1     101.290 127.720  83.057  0.00  0.00    +0.000 A 
ATOM      4  C   UNL     1     102.464 128.289  83.519  0.00  0.00    +0.000 A 
ATOM      5  C   UNL     1     103.659 127.570  83.316  0.00  0.00    +0.000 A 
ATOM      6  C   UNL     1     103.631 126.314  82.660  0.00  0.00    +0.000 A 
ATOM      7 CL   UNL     1     105.065 125.384  82.381  0.00  0.00    +0.000 Cl
ATOM      8 CL   UNL     1     105.174 128.222  83.869  0.00  0.00    +0.000 Cl
ATOM      9 CL   UNL     1     102.440 129.822  84.311  0.00  0.00    +0.000 Cl
ATOM     10  C   UNL     1      99.893 128.182  83.099  0.00  0.00    +0.000 C 
ATOM     11  O   UNL     1      99.454 129.205  83.566  0.00  0.00    +0.000 OA
ATOM     12  C   UNL     1      99.067 127.066  82.404  0.00  0.00    +0.000 C 
ATOM     13  O   UNL     1      97.870 127.054  82.231  0.00  0.00    +0.000 OA
ATOM     14  N   UNL     1      99.989 126.108  82.038  0.00  0.00    +0.000 N 
ATOM     15  H   UNL     1      99.767 125.270  81.572  0.00  0.00    +0.000 HD
ENDROOT
TORSDOF 0
ENDMDL
