MODEL 1
REMARK VINA RESULT:      -4.4      0.000      0.000
REMARK  Name = *****
REMARK  5 active torsions:
REMARK  status: ('A' for Active; 'I' for Inactive)
REMARK    1  A    between atoms: C_1  and  C_2
REMARK    2  A    between atoms: C_2  and  C_3
REMARK    3  A    between atoms: C_9  and  C_15
REMARK    4  A    between atoms: C_10  and  O_13
REMARK    5  A    between atoms: O_13  and  C_14
REMARK                            x       y       z     vdW  Elec       q    Type
REMARK                         _______ _______ _______ _____ _____    ______ ____
ROOT
ATOM      1  C   UNL     1      83.854  72.645  87.350  0.00  0.00    +0.000 A 
ATOM      2  C   UNL     1      84.699  72.263  86.302  0.00  0.00    +0.000 A 
ATOM      3  C   UNL     1      85.943  71.654  86.546  0.00  0.00    +0.000 A 
ATOM      4  C   UNL     1      86.369  71.416  87.878  0.00  0.00    +0.000 A 
ATOM      5  C   UNL     1      85.503  71.816  88.920  0.00  0.00    +0.000 A 
ATOM      6  C   UNL     1      84.270  72.423  88.662  0.00  0.00    +0.000 A 
ATOM      7  C   UNL     1      87.633  70.795  88.102  0.00  0.00    +0.000 A 
ATOM      8  C   UNL     1      88.438  70.465  86.999  0.00  0.00    +0.000 A 
ATOM      9  C   UNL     1      87.999  70.681  85.696  0.00  0.00    +0.000 A 
ATOM     10  C   UNL     1      86.762  71.277  85.473  0.00  0.00    +0.000 A 
ATOM     11  C   UNL     1      88.113  70.507  89.503  0.00  0.00    +0.000 C 
ENDROOT
BRANCH   1  13
ATOM     12  C   UNL     1      82.483  73.889  85.658  0.00  0.00    +0.000 C 
ATOM     13  C   UNL     1      82.534  73.314  87.065  0.00  0.00    +0.000 C 
ENDBRANCH   1  13
BRANCH   8  14
ATOM     14  O   UNL     1      89.651  69.853  87.194  0.00  0.00    +0.000 OA
ATOM     15  C   UNL     1      89.689  68.596  86.517  0.00  0.00    +0.000 C 
ENDBRANCH   8  14
TORSDOF 2
ENDMDL
