REMARK  Name = *****
REMARK  1 active torsions:
REMARK  status: ('A' for Active; 'I' for Inactive)
REMARK    1  A    between atoms: C_9  and  C_11
REMARK                            x       y       z     vdW  Elec       q    Type
REMARK                         _______ _______ _______ _____ _____    ______ ____
ROOT
ATOM      1  C   UNL     1      -0.901   1.378   0.030  0.00  0.00    +0.000 A 
ATOM      2  C   UNL     1       0.458   1.707  -0.005  0.00  0.00    +0.000 A 
ATOM      3  C   UNL     1       1.377   0.651  -0.021  0.00  0.00    +0.000 A 
ATOM      4  C   UNL     1       0.989  -0.688  -0.004  0.00  0.00    +0.000 A 
ATOM      5  C   UNL     1      -0.384  -0.999   0.032  0.00  0.00    +0.000 A 
ATOM      6  C   UNL     1      -1.312   0.047   0.048  0.00  0.00    +0.000 A 
ATOM      7 CL   UNL     1      -2.995  -0.320   0.090  0.00  0.00    +0.000 Cl
ATOM      8  C   UNL     1       2.178  -1.468  -0.029  0.00  0.00    +0.000 A 
ATOM      9  C   UNL     1       3.258  -0.606  -0.061  0.00  0.00    +0.000 A 
ATOM     10  N   UNL     1       2.752   0.673  -0.055  0.00  0.00    +0.000 N 
ATOM     11  H   UNL     1       3.299   1.491  -0.072  0.00  0.00    +0.000 HD
ENDROOT
BRANCH   9  12
ATOM     12  C   UNL     1       4.663  -0.892  -0.096  0.00  0.00    +0.000 C 
ATOM     13  O   UNL     1       5.559  -0.059  -0.124  0.00  0.00    +0.000 OA
ATOM     14  F   UNL     1       5.018  -2.183  -0.099  0.00  0.00    +0.000 F 
ENDBRANCH   9  12
TORSDOF 1
