MODEL 1
REMARK VINA RESULT:      -4.0      0.000      0.000
REMARK  Name = *****
REMARK  0 active torsions:
REMARK  status: ('A' for Active; 'I' for Inactive)
REMARK                            x       y       z     vdW  Elec       q    Type
REMARK                         _______ _______ _______ _____ _____    ______ ____
ROOT
ATOM      1  C   UNL     1     101.499 128.929  83.815  0.00  0.00    +0.000 A 
ATOM      2  C   UNL     1     100.712 127.970  83.220  0.00  0.00    +0.000 A 
ATOM      3  C   UNL     1     101.256 126.984  82.426  0.00  0.00    +0.000 A 
ATOM      4  C   UNL     1     102.611 126.890  82.172  0.00  0.00    +0.000 A 
ATOM      5  C   UNL     1     103.447 127.855  82.763  0.00  0.00    +0.000 A 
ATOM      6  C   UNL     1     102.880 128.870  83.583  0.00  0.00    +0.000 A 
ATOM      7 CL   UNL     1     103.839 130.093  84.347  0.00  0.00    +0.000 Cl
ATOM      8 BR   UNL     1     105.335 127.809  82.471  0.00  0.00    +0.000 Br
ATOM      9 BR   UNL     1     103.229 125.482  81.060  0.00  0.00    +0.000 Br
ATOM     10  N   UNL     1     100.198 126.219  82.011  0.00  0.00    +0.000 N 
ATOM     11  C   UNL     1      99.050 126.746  82.550  0.00  0.00    +0.000 A 
ATOM     12  O   UNL     1      97.926 126.301  82.378  0.00  0.00    +0.000 OA
ATOM     13  O   UNL     1      99.335 127.871  83.335  0.00  0.00    +0.000 OA
ATOM     14  H   UNL     1     100.251 125.429  81.426  0.00  0.00    +0.000 HD
ENDROOT
TORSDOF 0
ENDMDL
