MODEL 1
REMARK VINA RESULT:      -4.0      0.000      0.000
REMARK  Name = *****
REMARK  0 active torsions:
REMARK  status: ('A' for Active; 'I' for Inactive)
REMARK                            x       y       z     vdW  Elec       q    Type
REMARK                         _______ _______ _______ _____ _____    ______ ____
ROOT
ATOM      1  C   UNL     1     101.914 128.758  83.726  0.00  0.00    +0.000 A 
ATOM      2  C   UNL     1     101.009 127.889  83.168  0.00  0.00    +0.000 A 
ATOM      3  C   UNL     1     101.393 126.860  82.313  0.00  0.00    +0.000 A 
ATOM      4  C   UNL     1     102.714 126.646  81.974  0.00  0.00    +0.000 A 
ATOM      5  C   UNL     1     103.676 127.516  82.524  0.00  0.00    +0.000 A 
ATOM      6  C   UNL     1     103.267 128.565  83.397  0.00  0.00    +0.000 A 
ATOM      7  I   UNL     1     104.619 129.925  84.277  0.00  0.00    +0.000 I 
ATOM      8 CL   UNL     1     105.354 127.291  82.127  0.00  0.00    +0.000 Cl
ATOM      9 CL   UNL     1     103.106 125.347  80.908  0.00  0.00    +0.000 Cl
ATOM     10  N   UNL     1     100.236 126.177  81.933  0.00  0.00    +0.000 N 
ATOM     11  C   UNL     1      99.130 126.776  82.546  0.00  0.00    +0.000 A 
ATOM     12  O   UNL     1      97.964 126.444  82.437  0.00  0.00    +0.000 OA
ATOM     13  N   UNL     1      99.628 127.841  83.311  0.00  0.00    +0.000 N 
ATOM     14  H   UNL     1     100.205 125.399  81.330  0.00  0.00    +0.000 HD
ATOM     15  H   UNL     1      99.087 128.454  83.861  0.00  0.00    +0.000 HD
ENDROOT
TORSDOF 0
ENDMDL
