MODEL 1
REMARK VINA RESULT:      -3.6      0.000      0.000
REMARK  Name = *****
REMARK  0 active torsions:
REMARK  status: ('A' for Active; 'I' for Inactive)
REMARK                            x       y       z     vdW  Elec       q    Type
REMARK                         _______ _______ _______ _____ _____    ______ ____
ROOT
ATOM      1  C   UNL     1      86.019  62.577  87.750  0.00  0.00    +0.000 A 
ATOM      2  C   UNL     1      85.775  62.467  89.122  0.00  0.00    +0.000 A 
ATOM      3  C   UNL     1      86.728  62.875  90.076  0.00  0.00    +0.000 A 
ATOM      4  C   UNL     1      87.951  63.404  89.660  0.00  0.00    +0.000 A 
ATOM      5  C   UNL     1      88.173  63.504  88.304  0.00  0.00    +0.000 A 
ATOM      6  C   UNL     1      87.236  63.103  87.371  0.00  0.00    +0.000 A 
ATOM      7  O   UNL     1      87.663  63.290  86.063  0.00  0.00    +0.000 OA
ATOM      8  C   UNL     1      88.929  63.835  86.260  0.00  0.00    +0.000 A 
ATOM      9  S   UNL     1      89.869  64.244  84.968  0.00  0.00    +0.000 S 
ATOM     10  N   UNL     1      89.245  63.968  87.586  0.00  0.00    +0.000 N 
ATOM     11 CL   UNL     1      89.126  63.906  90.804  0.00  0.00    +0.000 Cl
ATOM     12 CL   UNL     1      84.273  61.817  89.661  0.00  0.00    +0.000 Cl
ATOM     13  H   UNL     1      90.084  64.330  87.954  0.00  0.00    +0.000 HD
ENDROOT
TORSDOF 0
ENDMDL
