MODEL 1
REMARK VINA RESULT:      -3.9      0.000      0.000
REMARK  Name = *****
REMARK  4 active torsions:
REMARK  status: ('A' for Active; 'I' for Inactive)
REMARK    1  A    between atoms: C_1  and  C_2
REMARK    2  A    between atoms: C_8  and  O_13
REMARK    3  A    between atoms: C_11  and  C_12
REMARK    4  A    between atoms: O_13  and  C_14
REMARK                            x       y       z     vdW  Elec       q    Type
REMARK                         _______ _______ _______ _____ _____    ______ ____
ROOT
ATOM      1  C   UNL     1     101.655 126.544  82.830  0.00  0.00    +0.000 C 
ATOM      2  C   UNL     1     103.153 126.869  82.979  0.00  0.00    +0.000 C 
ATOM      3  C   UNL     1     103.451 128.249  82.341  0.00  0.00    +0.000 C 
ATOM      4  C   UNL     1     103.969 128.214  80.899  0.00  0.00    +0.000 C 
ATOM      5  C   UNL     1     103.653 126.923  80.155  0.00  0.00    +0.000 C 
ATOM      6  C   UNL     1     104.078 125.692  80.913  0.00  0.00    +0.000 C 
ATOM      7  C   UNL     1     104.383 124.547  80.271  0.00  0.00    +0.000 C 
ATOM      8  C   UNL     1     104.725 123.343  80.996  0.00  0.00    +0.000 C 
ATOM      9  C   UNL     1     104.403 123.208  82.290  0.00  0.00    +0.000 C 
ATOM     10  C   UNL     1     103.775 124.349  83.050  0.00  0.00    +0.000 C 
ATOM     11  C   UNL     1     104.117 125.756  82.447  0.00  0.00    +0.000 C 
ATOM     12  C   UNL     1     105.569 126.099  82.890  0.00  0.00    +0.000 C 
ENDROOT
BRANCH   8  13
ATOM     13  O   UNL     1     105.225 122.292  80.263  0.00  0.00    +0.000 OA
ATOM     14  C   UNL     1     106.022 121.436  81.080  0.00  0.00    +0.000 C 
ENDBRANCH   8  13
TORSDOF 1
ENDMDL
