MODEL 1
REMARK VINA RESULT:      -4.2      0.000      0.000
REMARK  Name = *****
REMARK  2 active torsions:
REMARK  status: ('A' for Active; 'I' for Inactive)
REMARK    1  A    between atoms: C_1  and  C_2
REMARK    2  A    between atoms: N_8  and  C_15
REMARK                            x       y       z     vdW  Elec       q    Type
REMARK                         _______ _______ _______ _____ _____    ______ ____
ROOT
ATOM      1  C   UNL     1      82.921  73.215  88.243  0.00  0.00    +0.000 C 
ATOM      2  C   UNL     1      84.141  72.513  87.719  0.00  0.00    +0.000 A 
ATOM      3  C   UNL     1      85.042  71.892  88.594  0.00  0.00    +0.000 A 
ATOM      4  C   UNL     1      86.176  71.249  88.084  0.00  0.00    +0.000 A 
ATOM      5  C   UNL     1      86.402  71.223  86.697  0.00  0.00    +0.000 A 
ATOM      6  C   UNL     1      85.541  71.880  85.829  0.00  0.00    +0.000 A 
ATOM      7  C   UNL     1      84.403  72.507  86.340  0.00  0.00    +0.000 A 
ATOM      8  N   UNL     1      87.663  70.663  86.308  0.00  0.00    +0.000 N 
ATOM      9  S   UNL     1      88.191  69.675  87.629  0.00  0.00    +0.000 S 
ATOM     10  O   UNL     1      89.626  69.839  87.739  0.00  0.00    +0.000 OA
ATOM     11  O   UNL     1      87.625  68.356  87.396  0.00  0.00    +0.000 OA
ATOM     12  C   UNL     1      87.242  70.580  88.917  0.00  0.00    +0.000 C 
ATOM     13 CL   UNL     1      88.279  71.790  89.700  0.00  0.00    +0.000 Cl
ATOM     14 CL   UNL     1      86.592  69.426  90.094  0.00  0.00    +0.000 Cl
ATOM     15  C   UNL     1      87.824  70.059  84.977  0.00  0.00    +0.000 C 
ENDROOT
TORSDOF 0
ENDMDL
