MODEL 1
REMARK VINA RESULT:      -4.3      0.000      0.000
REMARK  Name = *****
REMARK  3 active torsions:
REMARK  status: ('A' for Active; 'I' for Inactive)
REMARK    1  A    between atoms: C_1  and  O_2
REMARK    2  A    between atoms: O_2  and  C_3
REMARK    3  A    between atoms: C_3  and  C_5
REMARK                            x       y       z     vdW  Elec       q    Type
REMARK                         _______ _______ _______ _____ _____    ______ ____
ROOT
ATOM      1  C   UNL     1     102.337 126.101  81.951  0.00  0.00    +0.000 A 
ATOM      2  C   UNL     1     102.560 127.265  82.668  0.00  0.00    +0.000 A 
ATOM      3  C   UNL     1     101.300 127.829  83.011  0.00  0.00    +0.000 A 
ATOM      4  C   UNL     1     100.320 126.988  82.488  0.00  0.00    +0.000 A 
ATOM      5  N   UNL     1     100.971 125.956  81.854  0.00  0.00    +0.000 N 
ATOM      6  C   UNL     1      98.950 127.237  82.635  0.00  0.00    +0.000 A 
ATOM      7  C   UNL     1      98.576 128.384  83.342  0.00  0.00    +0.000 A 
ATOM      8  C   UNL     1      99.539 129.240  83.873  0.00  0.00    +0.000 A 
ATOM      9  C   UNL     1     100.905 128.980  83.719  0.00  0.00    +0.000 A 
ATOM     10 CL   UNL     1      99.041 130.645  84.737  0.00  0.00    +0.000 Cl
ATOM     11  H   UNL     1     100.521 125.212  81.392  0.00  0.00    +0.000 HD
ENDROOT
BRANCH   1  12
ATOM     12  C   UNL     1     103.250 125.150  81.371  0.00  0.00    +0.000 C 
ATOM     13  O   UNL     1     103.485 125.060  80.174  0.00  0.00    +0.000 OA
BRANCH  12  15
ATOM     14  C   UNL     1     104.619 123.315  81.844  0.00  0.00    +0.000 C 
ATOM     15  O   UNL     1     103.806 124.377  82.344  0.00  0.00    +0.000 OA
ENDBRANCH  12  15
ENDBRANCH   1  12
TORSDOF 2
ENDMDL
