MODEL 1
REMARK VINA RESULT:      -2.8      0.000      0.000
REMARK  Name = *****
REMARK  0 active torsions:
REMARK  status: ('A' for Active; 'I' for Inactive)
REMARK                            x       y       z     vdW  Elec       q    Type
REMARK                         _______ _______ _______ _____ _____    ______ ____
ROOT
ATOM      1  C   UNL     1     104.276 124.879  80.082  0.00  0.00    +0.000 A 
ATOM      2  C   UNL     1     103.879 125.999  80.777  0.00  0.00    +0.000 A 
ATOM      3  S   UNL     1     103.756 125.760  82.460  0.00  0.00    +0.000 S 
ATOM      4  C   UNL     1     104.236 124.147  82.289  0.00  0.00    +0.000 A 
ATOM      5  C   UNL     1     104.478 123.814  80.985  0.00  0.00    +0.000 A 
ATOM      6  S   UNL     1     104.981 122.175  80.673  0.00  0.00    +0.000 S 
ATOM      7  C   UNL     1     104.934 121.667  82.382  0.00  0.00    +0.000 A 
ATOM      8  S   UNL     1     105.322 120.116  82.870  0.00  0.00    +0.000 S 
ATOM      9  S   UNL     1     104.440 122.940  83.532  0.00  0.00    +0.000 S 
ATOM     10 CL   UNL     1     103.514 127.539  80.112  0.00  0.00    +0.000 Cl
ENDROOT
TORSDOF 0
ENDMDL
