MODEL 1
REMARK VINA RESULT:      -3.6      0.000      0.000
REMARK  Name = *****
REMARK  3 active torsions:
REMARK  status: ('A' for Active; 'I' for Inactive)
REMARK    1  A    between atoms: C_1  and  C_2
REMARK    2  A    between atoms: C_8  and  O_11
REMARK    3  A    between atoms: O_11  and  C_12
REMARK                            x       y       z     vdW  Elec       q    Type
REMARK                         _______ _______ _______ _____ _____    ______ ____
ROOT
ATOM      1  C   UNL     1      91.139  65.716  85.358  0.00  0.00    +0.000 C 
ATOM      2  C   UNL     1      89.891  65.943  86.148  0.00  0.00    +0.000 A 
ATOM      3  C   UNL     1      89.093  64.932  86.645  0.00  0.00    +0.000 A 
ATOM      4  S   UNL     1      87.744  65.515  87.503  0.00  0.00    +0.000 S 
ATOM      5  C   UNL     1      88.190  67.154  87.233  0.00  0.00    +0.000 A 
ATOM      6  C   UNL     1      87.509  68.302  87.673  0.00  0.00    +0.000 A 
ATOM      7  C   UNL     1      88.010  69.579  87.365  0.00  0.00    +0.000 A 
ATOM      8  C   UNL     1      89.184  69.716  86.622  0.00  0.00    +0.000 A 
ATOM      9  C   UNL     1      89.845  68.547  86.194  0.00  0.00    +0.000 A 
ATOM     10  C   UNL     1      89.365  67.247  86.489  0.00  0.00    +0.000 A 
ATOM     11 CL   UNL     1      87.057  70.885  87.980  0.00  0.00    +0.000 Cl
ENDROOT
BRANCH   8  12
ATOM     12  O   UNL     1      89.856  70.831  86.205  0.00  0.00    +0.000 OA
ATOM     13  C   UNL     1      90.278  70.968  84.861  0.00  0.00    +0.000 C 
ENDBRANCH   8  12
TORSDOF 1
ENDMDL
