MODEL 1
REMARK VINA RESULT:      -4.3      0.000      0.000
REMARK  Name = *****
REMARK  3 active torsions:
REMARK  status: ('A' for Active; 'I' for Inactive)
REMARK    1  A    between atoms: C_1  and  C_2
REMARK    2  A    between atoms: C_4  and  O_12
REMARK    3  A    between atoms: O_12  and  C_13
REMARK                            x       y       z     vdW  Elec       q    Type
REMARK                         _______ _______ _______ _____ _____    ______ ____
ROOT
ATOM      1  C   UNL     1      88.269  70.689  89.897  0.00  0.00    +0.000 C 
ATOM      2  C   UNL     1      88.103  70.761  88.402  0.00  0.00    +0.000 A 
ATOM      3  C   UNL     1      89.169  70.330  87.588  0.00  0.00    +0.000 A 
ATOM      4  C   UNL     1      89.070  70.374  86.200  0.00  0.00    +0.000 A 
ATOM      5  C   UNL     1      87.898  70.854  85.616  0.00  0.00    +0.000 A 
ATOM      6  C   UNL     1      86.817  71.289  86.396  0.00  0.00    +0.000 A 
ATOM      7  C   UNL     1      85.647  71.766  85.781  0.00  0.00    +0.000 A 
ATOM      8  C   UNL     1      84.562  72.203  86.541  0.00  0.00    +0.000 A 
ATOM      9  C   UNL     1      84.636  72.167  87.927  0.00  0.00    +0.000 A 
ATOM     10  C   UNL     1      85.792  71.697  88.553  0.00  0.00    +0.000 A 
ATOM     11  C   UNL     1      86.907  71.248  87.808  0.00  0.00    +0.000 A 
ENDROOT
BRANCH   4  12
ATOM     12  O   UNL     1      90.033  69.985  85.310  0.00  0.00    +0.000 OA
ATOM     13  C   UNL     1      90.519  70.974  84.412  0.00  0.00    +0.000 C 
ENDBRANCH   4  12
TORSDOF 1
ENDMDL
