MODEL 1
REMARK VINA RESULT:      -3.0      0.000      0.000
REMARK  Name = *****
REMARK  0 active torsions:
REMARK  status: ('A' for Active; 'I' for Inactive)
REMARK                            x       y       z     vdW  Elec       q    Type
REMARK                         _______ _______ _______ _____ _____    ______ ____
ROOT
ATOM      1  C   UNL     1      98.993 128.811  83.365  0.00  0.00    +0.000 A 
ATOM      2  C   UNL     1      98.645 127.620  82.721  0.00  0.00    +0.000 A 
ATOM      3  C   UNL     1      99.633 126.704  82.351  0.00  0.00    +0.000 A 
ATOM      4  C   UNL     1     100.967 126.991  82.631  0.00  0.00    +0.000 A 
ATOM      5  C   UNL     1     101.314 128.179  83.274  0.00  0.00    +0.000 A 
ATOM      6  C   UNL     1     100.333 129.095  83.644  0.00  0.00    +0.000 A 
ATOM      7  S   UNL     1     103.045 128.431  83.576  0.00  0.00    +0.000 S 
ATOM      8  C   UNL     1     103.601 126.916  82.857  0.00  0.00    +0.000 A 
ATOM      9  S   UNL     1     105.210 126.479  82.796  0.00  0.00    +0.000 S 
ATOM     10  S   UNL     1     102.305 125.905  82.211  0.00  0.00    +0.000 S 
ENDROOT
TORSDOF 0
ENDMDL
