MODEL 1
REMARK VINA RESULT:      -4.3      0.000      0.000
REMARK  Name = *****
REMARK  3 active torsions:
REMARK  status: ('A' for Active; 'I' for Inactive)
REMARK    1  A    between atoms: C_1  and  C_2
REMARK    2  A    between atoms: C_5  and  C_12
REMARK    3  A    between atoms: C_8  and  C_11
REMARK                            x       y       z     vdW  Elec       q    Type
REMARK                         _______ _______ _______ _____ _____    ______ ____
ROOT
ATOM      1  C   UNL     1      83.627  72.673  86.827  0.00  0.00    +0.000 C 
ATOM      2  C   UNL     1      84.985  72.075  86.891  0.00  0.00    +0.000 C 
ATOM      3  C   UNL     1      85.773  71.750  85.853  0.00  0.00    +0.000 C 
ATOM      4  C   UNL     1      87.013  71.194  86.379  0.00  0.00    +0.000 A 
ATOM      5  C   UNL     1      88.133  70.716  85.709  0.00  0.00    +0.000 A 
ATOM      6  C   UNL     1      89.196  70.239  86.491  0.00  0.00    +0.000 A 
ATOM      7  C   UNL     1      89.128  70.242  87.896  0.00  0.00    +0.000 A 
ATOM      8  C   UNL     1      87.995  70.721  88.566  0.00  0.00    +0.000 A 
ATOM      9  C   UNL     1      86.948  71.195  87.784  0.00  0.00    +0.000 A 
ATOM     10  C   UNL     1      85.630  71.765  88.223  0.00  0.00    +0.000 C 
ATOM     11  C   UNL     1      87.921  70.728  90.061  0.00  0.00    +0.000 C 
ATOM     12  C   UNL     1      88.217  70.714  84.214  0.00  0.00    +0.000 C 
ENDROOT
TORSDOF 0
ENDMDL
