REMARK  Name = *****
REMARK  2 active torsions:
REMARK  status: ('A' for Active; 'I' for Inactive)
REMARK    1  A    between atoms: C_6  and  O_11
REMARK    2  A    between atoms: O_11  and  C_12
REMARK                            x       y       z     vdW  Elec       q    Type
REMARK                         _______ _______ _______ _____ _____    ______ ____
ROOT
ATOM      1  C   UNL     1       2.422  -0.682   0.017  0.00  0.00    +0.000 A 
ATOM      2  C   UNL     1       2.416   0.709   0.019  0.00  0.00    +0.000 A 
ATOM      3  C   UNL     1       1.204   1.401   0.007  0.00  0.00    +0.000 A 
ATOM      4  C   UNL     1      -0.018   0.708  -0.008  0.00  0.00    +0.000 A 
ATOM      5  C   UNL     1      -1.247   1.388  -0.023  0.00  0.00    +0.000 A 
ATOM      6  C   UNL     1      -2.459   0.692  -0.055  0.00  0.00    +0.000 A 
ATOM      7  C   UNL     1      -2.449  -0.702  -0.035  0.00  0.00    +0.000 A 
ATOM      8  C   UNL     1      -1.233  -1.393  -0.017  0.00  0.00    +0.000 A 
ATOM      9  C   UNL     1      -0.011  -0.704  -0.009  0.00  0.00    +0.000 A 
ATOM     10  C   UNL     1       1.217  -1.386   0.005  0.00  0.00    +0.000 A 
ENDROOT
BRANCH   6  11
ATOM     11  O   UNL     1      -3.577   1.479  -0.070  0.00  0.00    +0.000 OA
BRANCH  11  12
ATOM     12  C   UNL     1      -4.747   0.878  -0.598  0.00  0.00    +0.000 C 
ATOM     13  F   UNL     1      -5.288   0.059   0.338  0.00  0.00    +0.000 F 
ATOM     14  F   UNL     1      -5.650   1.869  -0.812  0.00  0.00    +0.000 F 
ENDBRANCH  11  12
ENDBRANCH   6  11
TORSDOF 2
