REMARK  Name = *****
REMARK  0 active torsions:
REMARK  status: ('A' for Active; 'I' for Inactive)
REMARK                            x       y       z     vdW  Elec       q    Type
REMARK                         _______ _______ _______ _____ _____    ______ ____
ROOT
ATOM      1  C   UNL     1       1.210  -1.264   0.001  0.00  0.00    +0.000 A 
ATOM      2  C   UNL     1       2.232  -0.314   0.001  0.00  0.00    +0.000 A 
ATOM      3  C   UNL     1       1.951   1.067   0.001  0.00  0.00    +0.000 A 
ATOM      4  C   UNL     1       0.628   1.518   0.000  0.00  0.00    +0.000 A 
ATOM      5  C   UNL     1      -0.385   0.577  -0.000  0.00  0.00    +0.000 A 
ATOM      6  C   UNL     1      -0.084  -0.782  -0.000  0.00  0.00    +0.000 A 
ATOM      7  C   UNL     1      -1.355  -1.507  -0.001  0.00  0.00    +0.000 C 
ATOM      8  O   UNL     1      -1.506  -2.706  -0.002  0.00  0.00    +0.000 OA
ATOM      9  C   UNL     1      -2.454  -0.408  -0.003  0.00  0.00    +0.000 C 
ATOM     10  O   UNL     1      -3.650  -0.585  -0.004  0.00  0.00    +0.000 OA
ATOM     11  N   UNL     1      -1.765   0.788  -0.002  0.00  0.00    +0.000 N 
ATOM     12 CL   UNL     1       0.287   3.201   0.000  0.00  0.00    +0.000 Cl
ATOM     13 CL   UNL     1       3.871  -0.838   0.002  0.00  0.00    +0.000 Cl
ATOM     14  H   UNL     1      -2.192   1.675  -0.002  0.00  0.00    +0.000 HD
ENDROOT
TORSDOF 0
