MODEL 1
REMARK VINA RESULT:      -4.2      0.000      0.000
REMARK  Name = *****
REMARK  3 active torsions:
REMARK  status: ('A' for Active; 'I' for Inactive)
REMARK    1  A    between atoms: C_1  and  C_2
REMARK    2  A    between atoms: C_8  and  C_13
REMARK    3  A    between atoms: C_9  and  N_11
REMARK                            x       y       z     vdW  Elec       q    Type
REMARK                         _______ _______ _______ _____ _____    ______ ____
ROOT
ATOM      1  C   UNL     1     104.833 126.672  81.853  0.00  0.00    +0.000 C 
ATOM      2  C   UNL     1     103.503 127.193  82.317  0.00  0.00    +0.000 A 
ATOM      3  C   UNL     1     102.326 126.502  82.002  0.00  0.00    +0.000 A 
ATOM      4  C   UNL     1     101.119 126.996  82.471  0.00  0.00    +0.000 A 
ATOM      5  C   UNL     1     101.061 128.149  83.271  0.00  0.00    +0.000 A 
ATOM      6  C   UNL     1     102.223 128.827  83.609  0.00  0.00    +0.000 A 
ATOM      7  C   UNL     1     103.443 128.344  83.127  0.00  0.00    +0.000 A 
ATOM      8  C   UNL     1      99.633 128.440  83.683  0.00  0.00    +0.000 C 
ATOM      9  C   UNL     1      98.878 127.637  82.586  0.00  0.00    +0.000 C 
ATOM     10  C   UNL     1      99.752 126.411  82.273  0.00  0.00    +0.000 C 
ATOM     11  C   UNL     1      99.263 129.920  83.676  0.00  0.00    +0.000 C 
ATOM     12 CL   UNL     1      99.406 127.777  85.344  0.00  0.00    +0.000 Cl
ENDROOT
BRANCH   9  13
ATOM     13  N   UNL     1      97.492 127.228  82.974  0.00  0.00    +0.000 NA
ATOM     14  O   UNL     1      97.273 126.035  82.732  0.00  0.00    +0.000 OA
ENDBRANCH   9  13
TORSDOF 1
ENDMDL
