MODEL 1
REMARK VINA RESULT:      -4.5      0.000      0.000
REMARK  Name = *****
REMARK  4 active torsions:
REMARK  status: ('A' for Active; 'I' for Inactive)
REMARK    1  A    between atoms: C_1  and  C_2
REMARK    2  A    between atoms: C_7  and  C_8
REMARK    3  A    between atoms: C_10  and  O_13
REMARK    4  A    between atoms: O_13  and  C_14
REMARK                            x       y       z     vdW  Elec       q    Type
REMARK                         _______ _______ _______ _____ _____    ______ ____
ROOT
ATOM      1  C   UNL     1      83.842  72.576  89.214  0.00  0.00    +0.000 C 
ATOM      2  C   UNL     1      84.905  72.109  88.257  0.00  0.00    +0.000 A 
ATOM      3  C   UNL     1      86.085  71.541  88.763  0.00  0.00    +0.000 A 
ATOM      4  C   UNL     1      87.107  71.088  87.913  0.00  0.00    +0.000 A 
ATOM      5  C   UNL     1      86.944  71.206  86.520  0.00  0.00    +0.000 A 
ATOM      6  C   UNL     1      85.764  71.775  86.013  0.00  0.00    +0.000 A 
ATOM      7  C   UNL     1      84.742  72.227  86.865  0.00  0.00    +0.000 A 
ATOM      8  C   UNL     1      83.498  72.828  86.268  0.00  0.00    +0.000 C 
ATOM      9  C   UNL     1      87.966  70.753  85.669  0.00  0.00    +0.000 A 
ATOM     10  C   UNL     1      89.139  70.187  86.178  0.00  0.00    +0.000 A 
ATOM     11  C   UNL     1      89.295  70.071  87.558  0.00  0.00    +0.000 A 
ATOM     12  C   UNL     1      88.286  70.519  88.417  0.00  0.00    +0.000 A 
ENDROOT
BRANCH  10  13
ATOM     13  O   UNL     1      90.041  69.790  85.230  0.00  0.00    +0.000 OA
ATOM     14  C   UNL     1      90.473  70.777  84.301  0.00  0.00    +0.000 C 
ENDBRANCH  10  13
TORSDOF 1
ENDMDL
