MODEL 1
REMARK VINA RESULT:      -3.4      0.000      0.000
REMARK  Name = *****
REMARK  0 active torsions:
REMARK  status: ('A' for Active; 'I' for Inactive)
REMARK                            x       y       z     vdW  Elec       q    Type
REMARK                         _______ _______ _______ _____ _____    ______ ____
ROOT
ATOM      1  C   UNL     1      95.598 117.668  79.847  0.00  0.00    +0.000 C 
ATOM      2  C   UNL     1      95.239 118.813  80.782  0.00  0.00    +0.000 C 
ATOM      3  C   UNL     1      96.311 118.757  81.870  0.00  0.00    +0.000 C 
ATOM      4  C   UNL     1      97.542 118.042  81.216  0.00  0.00    +0.000 C 
ATOM      5  C   UNL     1      97.119 117.718  79.782  0.00  0.00    +0.000 C 
ATOM      6  C   UNL     1      98.663 119.098  81.358  0.00  0.00    +0.000 C 
ATOM      7  C   UNL     1      97.899 120.416  81.167  0.00  0.00    +0.000 C 
ATOM      8  C   UNL     1      96.902 120.123  82.296  0.00  0.00    +0.000 C 
ATOM      9  C   UNL     1      97.902 119.849  83.400  0.00  0.00    +0.000 C 
ATOM     10  C   UNL     1      98.957 119.235  82.838  0.00  0.00    +0.000 C 
ENDROOT
TORSDOF 0
ENDMDL
