MODEL 1
REMARK VINA RESULT:      -4.0      0.000      0.000
REMARK  Name = *****
REMARK  2 active torsions:
REMARK  status: ('A' for Active; 'I' for Inactive)
REMARK    1  A    between atoms: C_1  and  O_2
REMARK    2  A    between atoms: O_2  and  C_3
REMARK                            x       y       z     vdW  Elec       q    Type
REMARK                         _______ _______ _______ _____ _____    ______ ____
ROOT
ATOM      1  C   UNL     1      98.632 127.474  82.909  0.00  0.00    +0.000 A 
ATOM      2  C   UNL     1      99.619 126.644  82.370  0.00  0.00    +0.000 A 
ATOM      3  C   UNL     1     100.976 126.981  82.473  0.00  0.00    +0.000 A 
ATOM      4  C   UNL     1     101.351 128.157  83.141  0.00  0.00    +0.000 A 
ATOM      5  C   UNL     1     100.363 128.983  83.685  0.00  0.00    +0.000 A 
ATOM      6  C   UNL     1      99.009 128.645  83.566  0.00  0.00    +0.000 A 
ATOM      7  C   UNL     1     102.769 128.505  83.275  0.00  0.00    +0.000 C 
ATOM      8  C   UNL     1     103.694 127.868  82.541  0.00  0.00    +0.000 C 
ATOM      9  C   UNL     1     103.338 126.770  81.574  0.00  0.00    +0.000 C 
ATOM     10  C   UNL     1     102.038 126.046  81.950  0.00  0.00    +0.000 C 
ATOM     11 BR   UNL     1     105.506 128.303  82.641  0.00  0.00    +0.000 Br
ENDROOT
BRANCH   1  13
ATOM     12  C   UNL     1      96.540 126.920  83.894  0.00  0.00    +0.000 C 
ATOM     13  O   UNL     1      97.351 127.026  82.731  0.00  0.00    +0.000 OA
ENDBRANCH   1  13
TORSDOF 1
ENDMDL
