MODEL 1
REMARK VINA RESULT:      -3.6      0.000      0.000
REMARK  Name = *****
REMARK  0 active torsions:
REMARK  status: ('A' for Active; 'I' for Inactive)
REMARK                            x       y       z     vdW  Elec       q    Type
REMARK                         _______ _______ _______ _____ _____    ______ ____
ROOT
ATOM      1  C   UNL     1     102.365 125.776  83.573  0.00  0.00    +0.000 C 
ATOM      2  C   UNL     1     102.691 126.944  84.275  0.00  0.00    +0.000 C 
ATOM      3  C   UNL     1     102.449 128.126  83.579  0.00  0.00    +0.000 C 
ATOM      4  C   UNL     1     101.073 127.998  83.296  0.00  0.00    +0.000 A 
ATOM      5  C   UNL     1     100.726 126.811  82.580  0.00  0.00    +0.000 A 
ATOM      6  C   UNL     1     101.852 125.994  82.298  0.00  0.00    +0.000 C 
ATOM      7  C   UNL     1     102.664 126.878  81.597  0.00  0.00    +0.000 C 
ATOM      8  C   UNL     1     102.990 128.048  82.297  0.00  0.00    +0.000 C 
ATOM      9  C   UNL     1      99.326 126.753  82.319  0.00  0.00    +0.000 A 
ATOM     10  C   UNL     1      98.661 127.852  82.825  0.00  0.00    +0.000 A 
ATOM     11  S   UNL     1      99.703 128.963  83.615  0.00  0.00    +0.000 S 
ENDROOT
TORSDOF 0
ENDMDL
