REMARK  Name = *****
REMARK  3 active torsions:
REMARK  status: ('A' for Active; 'I' for Inactive)
REMARK    1  A    between atoms: C_1  and  O_2
REMARK    2  A    between atoms: O_2  and  C_3
REMARK    3  A    between atoms: C_4  and  S_13
REMARK                            x       y       z     vdW  Elec       q    Type
REMARK                         _______ _______ _______ _____ _____    ______ ____
ROOT
ATOM      1  C   UNL     1       2.824  -0.496   1.058  0.00  0.00    +0.000 A 
ATOM      2  C   UNL     1       3.957   0.072   1.690  0.00  0.00    +0.000 A 
ATOM      3  C   UNL     1       4.666  -0.645   2.702  0.00  0.00    +0.000 A 
ATOM      4  C   UNL     1       5.804  -0.154   3.392  0.00  0.00    +0.000 A 
ATOM      5  C   UNL     1       6.455  -0.903   4.376  0.00  0.00    +0.000 A 
ATOM      6  C   UNL     1       5.990  -2.168   4.702  0.00  0.00    +0.000 A 
ATOM      7  C   UNL     1       4.875  -2.682   4.044  0.00  0.00    +0.000 A 
ATOM      8  C   UNL     1       4.210  -1.939   3.053  0.00  0.00    +0.000 A 
ATOM      9  C   UNL     1       3.091  -2.484   2.410  0.00  0.00    +0.000 A 
ATOM     10  C   UNL     1       2.405  -1.774   1.424  0.00  0.00    +0.000 A 
ENDROOT
BRANCH   1  12
ATOM     11  C   UNL     1       1.000  -0.231  -0.468  0.00  0.00    +0.000 C 
ATOM     12  O   UNL     1       2.205   0.269   0.098  0.00  0.00    +0.000 OA
ENDBRANCH   1  12
BRANCH   2  13
ATOM     13  S   UNL     1       4.483   1.730   1.187  0.00  0.00    +0.000 S 
ATOM     14  H   UNL     1       3.653   2.195   0.216  0.00  0.00    +0.000 HD
ENDBRANCH   2  13
TORSDOF 2
