MODEL 1
REMARK VINA RESULT:      -4.0      0.000      0.000
REMARK  Name = *****
REMARK  2 active torsions:
REMARK  status: ('A' for Active; 'I' for Inactive)
REMARK    1  A    between atoms: C_1  and  O_2
REMARK    2  A    between atoms: O_2  and  C_3
REMARK                            x       y       z     vdW  Elec       q    Type
REMARK                         _______ _______ _______ _____ _____    ______ ____
ROOT
ATOM      1  C   UNL     1     105.450 122.620  80.902  0.00  0.00    +0.000 A 
ATOM      2  C   UNL     1     104.661 122.968  82.017  0.00  0.00    +0.000 A 
ATOM      3  C   UNL     1     103.980 124.197  82.110  0.00  0.00    +0.000 A 
ATOM      4  C   UNL     1     104.099 125.102  81.032  0.00  0.00    +0.000 A 
ATOM      5  C   UNL     1     104.888 124.744  79.913  0.00  0.00    +0.000 A 
ATOM      6  C   UNL     1     105.553 123.519  79.849  0.00  0.00    +0.000 A 
ATOM      7  C   UNL     1     103.409 126.334  81.144  0.00  0.00    +0.000 A 
ATOM      8  C   UNL     1     102.650 126.638  82.263  0.00  0.00    +0.000 A 
ATOM      9  C   UNL     1     102.600 125.690  83.250  0.00  0.00    +0.000 A 
ATOM     10  N   UNL     1     103.235 124.507  83.196  0.00  0.00    +0.000 NA
ATOM     11 CL   UNL     1     101.695 125.951  84.682  0.00  0.00    +0.000 Cl
ATOM     12 CL   UNL     1     103.469 127.535  79.896  0.00  0.00    +0.000 Cl
ATOM     13 CL   UNL     1     104.526 121.835  83.340  0.00  0.00    +0.000 Cl
ENDROOT
BRANCH   1  15
ATOM     14  C   UNL     1     107.485 121.359  80.927  0.00  0.00    +0.000 C 
ATOM     15  O   UNL     1     106.064 121.395  80.931  0.00  0.00    +0.000 OA
ENDBRANCH   1  15
TORSDOF 1
ENDMDL
