REMARK  Name = *****
REMARK  2 active torsions:
REMARK  status: ('A' for Active; 'I' for Inactive)
REMARK    1  A    between atoms: C_1  and  O_2
REMARK    2  A    between atoms: O_2  and  C_3
REMARK                            x       y       z     vdW  Elec       q    Type
REMARK                         _______ _______ _______ _____ _____    ______ ____
ROOT
ATOM      1  C   UNL     1       3.232  -0.842   0.912  0.00  0.00    +0.000 A 
ATOM      2  C   UNL     1       2.895  -2.152   1.274  0.00  0.00    +0.000 A 
ATOM      3  C   UNL     1       3.699  -2.880   2.180  0.00  0.00    +0.000 A 
ATOM      4  C   UNL     1       4.849  -2.331   2.745  0.00  0.00    +0.000 A 
ATOM      5  C   UNL     1       5.157  -1.041   2.372  0.00  0.00    +0.000 A 
ATOM      6  C   UNL     1       4.377  -0.309   1.481  0.00  0.00    +0.000 A 
ATOM      7  N   UNL     1       4.906   0.965   1.273  0.00  0.00    +0.000 N 
ATOM      8  C   UNL     1       6.058   1.154   2.005  0.00  0.00    +0.000 C 
ATOM      9  O   UNL     1       6.766   2.134   2.058  0.00  0.00    +0.000 OA
ATOM     10  C   UNL     1       6.274  -0.182   2.772  0.00  0.00    +0.000 C 
ATOM     11  O   UNL     1       7.168  -0.463   3.535  0.00  0.00    +0.000 OA
ATOM     12 BR   UNL     1       3.200  -4.648   2.638  0.00  0.00    +0.000 Br
ATOM     13  H   UNL     1       4.508   1.642   0.679  0.00  0.00    +0.000 HD
ENDROOT
BRANCH   1  15
ATOM     14  C   UNL     1       1.380  -0.576  -0.551  0.00  0.00    +0.000 C 
ATOM     15  O   UNL     1       2.548  -0.033   0.053  0.00  0.00    +0.000 OA
ENDBRANCH   1  15
TORSDOF 1
