MODEL 1
REMARK VINA RESULT:      -3.9      0.000      0.000
REMARK  Name = *****
REMARK  2 active torsions:
REMARK  status: ('A' for Active; 'I' for Inactive)
REMARK    1  A    between atoms: C_1  and  C_2
REMARK    2  A    between atoms: C_3  and  C_11
REMARK                            x       y       z     vdW  Elec       q    Type
REMARK                         _______ _______ _______ _____ _____    ______ ____
ROOT
ATOM      1  C   UNL     1      97.941 116.540  78.700  0.00  0.00    +0.000 C 
ATOM      2  C   UNL     1      96.972 117.090  79.735  0.00  0.00    +0.000 C 
ATOM      3  C   UNL     1      96.543 116.099  80.861  0.00  0.00    +0.000 C 
ATOM      4  C   UNL     1      97.162 117.094  81.825  0.00  0.00    +0.000 C 
ATOM      5  C   UNL     1      97.592 117.916  80.848  0.00  0.00    +0.000 C 
ATOM      6  C   UNL     1      98.357 119.226  80.915  0.00  0.00    +0.000 C 
ATOM      7  C   UNL     1      98.054 119.979  82.207  0.00  0.00    +0.000 C 
ATOM      8  C   UNL     1      98.664 119.396  83.492  0.00  0.00    +0.000 C 
ATOM      9  C   UNL     1      98.634 117.874  83.707  0.00  0.00    +0.000 C 
ATOM     10  C   UNL     1      97.335 117.165  83.332  0.00  0.00    +0.000 C 
ATOM     11  C   UNL     1      95.047 115.872  81.011  0.00  0.00    +0.000 C 
ENDROOT
TORSDOF 0
ENDMDL
