MODEL 1
REMARK VINA RESULT:      -4.0      0.000      0.000
REMARK  Name = *****
REMARK  2 active torsions:
REMARK  status: ('A' for Active; 'I' for Inactive)
REMARK    1  A    between atoms: C_1  and  O_2
REMARK    2  A    between atoms: O_2  and  C_3
REMARK                            x       y       z     vdW  Elec       q    Type
REMARK                         _______ _______ _______ _____ _____    ______ ____
ROOT
ATOM      1  C   UNL     1      88.497  70.360  86.410  0.00  0.00    +0.000 A 
ATOM      2  C   UNL     1      87.739  70.673  87.557  0.00  0.00    +0.000 A 
ATOM      3  C   UNL     1      86.470  71.314  87.459  0.00  0.00    +0.000 A 
ATOM      4  C   UNL     1      85.981  71.629  86.168  0.00  0.00    +0.000 A 
ATOM      5  C   UNL     1      86.743  71.308  85.037  0.00  0.00    +0.000 A 
ATOM      6  C   UNL     1      87.986  70.681  85.153  0.00  0.00    +0.000 A 
ATOM      7  C   UNL     1      84.735  72.262  86.017  0.00  0.00    +0.000 A 
ATOM      8  C   UNL     1      83.966  72.589  87.131  0.00  0.00    +0.000 A 
ATOM      9  C   UNL     1      84.421  72.291  88.408  0.00  0.00    +0.000 A 
ATOM     10  C   UNL     1      85.658  71.660  88.568  0.00  0.00    +0.000 A 
ATOM     11 BR   UNL     1      82.295  73.442  86.903  0.00  0.00    +0.000 Br
ATOM     12 CL   UNL     1      88.388  70.262  89.124  0.00  0.00    +0.000 Cl
ENDROOT
BRANCH   1  14
ATOM     13  C   UNL     1      89.816  68.366  86.288  0.00  0.00    +0.000 C 
ATOM     14  O   UNL     1      89.707  69.745  86.613  0.00  0.00    +0.000 OA
ENDBRANCH   1  14
TORSDOF 1
ENDMDL
