REMARK  Name = *****
REMARK  3 active torsions:
REMARK  status: ('A' for Active; 'I' for Inactive)
REMARK    1  A    between atoms: C_1  and  O_2
REMARK    2  A    between atoms: O_2  and  C_3
REMARK    3  A    between atoms: C_10  and  C_12
REMARK                            x       y       z     vdW  Elec       q    Type
REMARK                         _______ _______ _______ _____ _____    ______ ____
ROOT
ATOM      1  C   UNL     1       2.871  -0.739   1.169  0.00  0.00    +0.000 A 
ATOM      2  C   UNL     1       3.964  -0.248   1.903  0.00  0.00    +0.000 A 
ATOM      3  C   UNL     1       4.629  -1.101   2.802  0.00  0.00    +0.000 A 
ATOM      4  C   UNL     1       4.177  -2.407   2.930  0.00  0.00    +0.000 A 
ATOM      5  C   UNL     1       3.101  -2.931   2.220  0.00  0.00    +0.000 A 
ATOM      6  C   UNL     1       2.451  -2.064   1.329  0.00  0.00    +0.000 A 
ATOM      7  O   UNL     1       4.933  -3.084   3.836  0.00  0.00    +0.000 OA
ATOM      8  C   UNL     1       5.874  -2.213   4.306  0.00  0.00    +0.000 A 
ATOM      9  C   UNL     1       5.729  -0.984   3.692  0.00  0.00    +0.000 A 
ENDROOT
BRANCH   1  11
ATOM     10  C   UNL     1       1.169  -0.235  -0.418  0.00  0.00    +0.000 C 
ATOM     11  O   UNL     1       2.305   0.183   0.328  0.00  0.00    +0.000 OA
ENDBRANCH   1  11
BRANCH   8  12
ATOM     12  C   UNL     1       6.822  -2.745   5.309  0.00  0.00    +0.000 C 
ATOM     13 CL   UNL     1       6.663  -1.869   6.848  0.00  0.00    +0.000 Cl
ENDBRANCH   8  12
TORSDOF 2
