REMARK  Name = *****
REMARK  4 active torsions:
REMARK  status: ('A' for Active; 'I' for Inactive)
REMARK    1  A    between atoms: C_1  and  C_2
REMARK    2  A    between atoms: C_2  and  C_4
REMARK    3  A    between atoms: C_12  and  O_14
REMARK    4  A    between atoms: O_14  and  C_15
REMARK                            x       y       z     vdW  Elec       q    Type
REMARK                         _______ _______ _______ _____ _____    ______ ____
ROOT
ATOM      1  C   UNL     1       3.302  -0.649   1.044  0.00  0.00    +0.000 A 
ATOM      2  C   UNL     1       2.865  -1.944   1.368  0.00  0.00    +0.000 A 
ATOM      3  C   UNL     1       3.458  -2.650   2.409  0.00  0.00    +0.000 A 
ATOM      4  C   UNL     1       4.492  -2.069   3.139  0.00  0.00    +0.000 A 
ATOM      5  C   UNL     1       4.947  -0.775   2.843  0.00  0.00    +0.000 A 
ATOM      6  C   UNL     1       4.353  -0.043   1.787  0.00  0.00    +0.000 A 
ATOM      7  C   UNL     1       4.846   1.258   1.534  0.00  0.00    +0.000 A 
ATOM      8  C   UNL     1       5.886   1.814   2.288  0.00  0.00    +0.000 A 
ATOM      9  C   UNL     1       6.464   1.084   3.320  0.00  0.00    +0.000 A 
ATOM     10  C   UNL     1       5.991  -0.202   3.590  0.00  0.00    +0.000 A 
ENDROOT
BRANCH   1  12
ATOM     11  C   UNL     1       3.215  -0.161  -1.437  0.00  0.00    +0.000 C 
ATOM     12  C   UNL     1       2.621   0.033  -0.075  0.00  0.00    +0.000 C 
ATOM     13  C   UNL     1       1.524   0.767   0.166  0.00  0.00    +0.000 C 
ENDBRANCH   1  12
BRANCH   9  14
ATOM     14  O   UNL     1       7.482   1.503   4.132  0.00  0.00    +0.000 OA
ATOM     15  C   UNL     1       8.005   2.802   3.889  0.00  0.00    +0.000 C 
ENDBRANCH   9  14
TORSDOF 2
