MODEL 1
REMARK VINA RESULT:      -3.9      0.000      0.000
REMARK  Name = *****
REMARK  0 active torsions:
REMARK  status: ('A' for Active; 'I' for Inactive)
REMARK                            x       y       z     vdW  Elec       q    Type
REMARK                         _______ _______ _______ _____ _____    ______ ____
ROOT
ATOM      1  C   UNL     1      98.998 127.291  82.514  0.00  0.00    +0.000 A 
ATOM      2  C   UNL     1      98.659 128.485  83.165  0.00  0.00    +0.000 A 
ATOM      3  C   UNL     1      99.634 129.305  83.744  0.00  0.00    +0.000 A 
ATOM      4  C   UNL     1     100.984 128.944  83.684  0.00  0.00    +0.000 A 
ATOM      5  C   UNL     1     101.361 127.752  83.038  0.00  0.00    +0.000 A 
ATOM      6  C   UNL     1     100.354 126.960  82.472  0.00  0.00    +0.000 A 
ATOM      7  N   UNL     1     101.024 125.890  81.927  0.00  0.00    +0.000 N 
ATOM      8  C   UNL     1     102.345 126.073  82.178  0.00  0.00    +0.000 A 
ATOM      9  N   UNL     1     102.599 127.170  82.838  0.00  0.00    +0.000 NA
ATOM     10 CL   UNL     1     103.448 124.911  81.630  0.00  0.00    +0.000 Cl
ATOM     11 CL   UNL     1     102.273 129.854  84.350  0.00  0.00    +0.000 Cl
ATOM     12 CL   UNL     1      99.111 130.756  84.521  0.00  0.00    +0.000 Cl
ATOM     13  H   UNL     1     100.620 125.132  81.446  0.00  0.00    +0.000 HD
ENDROOT
TORSDOF 0
ENDMDL
