MODEL 1
REMARK VINA RESULT:      -4.6      0.000      0.000
REMARK  Name = *****
REMARK  3 active torsions:
REMARK  status: ('A' for Active; 'I' for Inactive)
REMARK    1  A    between atoms: C_1  and  C_2
REMARK    2  A    between atoms: C_9  and  C_11
REMARK    3  A    between atoms: C_11  and  C_13
REMARK                            x       y       z     vdW  Elec       q    Type
REMARK                         _______ _______ _______ _____ _____    ______ ____
ROOT
ATOM      1  C   UNL     1      99.106 130.507  84.527  0.00  0.00    +0.000 C 
ATOM      2  C   UNL     1      99.597 129.276  83.824  0.00  0.00    +0.000 A 
ATOM      3  C   UNL     1     100.970 128.982  83.772  0.00  0.00    +0.000 A 
ATOM      4  C   UNL     1     101.413 127.824  83.101  0.00  0.00    +0.000 A 
ATOM      5  C   UNL     1     100.470 126.994  82.502  0.00  0.00    +0.000 A 
ATOM      6  C   UNL     1      99.097 127.261  82.535  0.00  0.00    +0.000 A 
ATOM      7  C   UNL     1      98.681 128.417  83.205  0.00  0.00    +0.000 A 
ATOM      8  N   UNL     1     101.159 125.947  81.932  0.00  0.00    +0.000 N 
ATOM      9  C   UNL     1     102.513 126.090  82.126  0.00  0.00    +0.000 A 
ATOM     10  C   UNL     1     102.688 127.239  82.872  0.00  0.00    +0.000 A 
ATOM     11  H   UNL     1     100.739 125.198  81.451  0.00  0.00    +0.000 HD
ENDROOT
BRANCH   9  12
ATOM     12  C   UNL     1     103.429 125.104  81.646  0.00  0.00    +0.000 C 
ATOM     13  C   UNL     1     103.781 125.126  80.347  0.00  0.00    +0.000 C 
ATOM     14  C   UNL     1     104.053 124.069  82.558  0.00  0.00    +0.000 C 
ENDBRANCH   9  12
TORSDOF 1
ENDMDL
