REMARK  Name = *****
REMARK  2 active torsions:
REMARK  status: ('A' for Active; 'I' for Inactive)
REMARK    1  A    between atoms: C_1  and  O_2
REMARK    2  A    between atoms: O_2  and  C_3
REMARK                            x       y       z     vdW  Elec       q    Type
REMARK                         _______ _______ _______ _____ _____    ______ ____
ROOT
ATOM      1  C   UNL     1       3.236  -0.458  -1.037  0.00  0.00    +0.000 A 
ATOM      2  C   UNL     1       2.856  -0.351  -2.391  0.00  0.00    +0.000 A 
ATOM      3  C   UNL     1       3.412  -1.201  -3.389  0.00  0.00    +0.000 A 
ATOM      4  C   UNL     1       3.083  -1.146  -4.767  0.00  0.00    +0.000 A 
ATOM      5  C   UNL     1       3.666  -2.008  -5.699  0.00  0.00    +0.000 A 
ATOM      6  C   UNL     1       4.595  -2.951  -5.282  0.00  0.00    +0.000 A 
ATOM      7  C   UNL     1       4.940  -3.031  -3.934  0.00  0.00    +0.000 A 
ATOM      8  C   UNL     1       4.362  -2.170  -2.986  0.00  0.00    +0.000 A 
ATOM      9  C   UNL     1       4.725  -2.270  -1.636  0.00  0.00    +0.000 A 
ATOM     10  C   UNL     1       4.170  -1.426  -0.671  0.00  0.00    +0.000 A 
ATOM     11 CL   UNL     1       1.680   0.861  -2.833  0.00  0.00    +0.000 Cl
ENDROOT
BRANCH   1  13
ATOM     12  C   UNL     1       3.094   0.397   1.194  0.00  0.00    +0.000 C 
ATOM     13  O   UNL     1       2.643   0.409  -0.153  0.00  0.00    +0.000 OA
ENDBRANCH   1  13
TORSDOF 1
