MODEL 1
REMARK VINA RESULT:      -4.0      0.000      0.000
REMARK  Name = *****
REMARK  0 active torsions:
REMARK  status: ('A' for Active; 'I' for Inactive)
REMARK                            x       y       z     vdW  Elec       q    Type
REMARK                         _______ _______ _______ _____ _____    ______ ____
ROOT
ATOM      1  C   UNL     1     102.152 125.871  81.929  0.00  0.00    +0.000 A 
ATOM      2  C   UNL     1     101.112 126.679  82.387  0.00  0.00    +0.000 A 
ATOM      3  C   UNL     1     101.371 127.888  83.053  0.00  0.00    +0.000 A 
ATOM      4  C   UNL     1     102.696 128.279  83.255  0.00  0.00    +0.000 A 
ATOM      5  C   UNL     1     103.748 127.478  82.800  0.00  0.00    +0.000 A 
ATOM      6  C   UNL     1     103.475 126.274  82.138  0.00  0.00    +0.000 A 
ATOM      7 CL   UNL     1     104.727 125.237  81.550  0.00  0.00    +0.000 Cl
ATOM      8 CL   UNL     1     105.360 128.030  83.087  0.00  0.00    +0.000 Cl
ATOM      9  N   UNL     1     100.343 128.723  83.526  0.00  0.00    +0.000 NA
ATOM     10  C   UNL     1      99.119 128.340  83.324  0.00  0.00    +0.000 A 
ATOM     11  C   UNL     1      98.738 127.058  82.618  0.00  0.00    +0.000 A 
ATOM     12  O   UNL     1      97.560 126.774  82.470  0.00  0.00    +0.000 OA
ATOM     13  N   UNL     1      99.784 126.286  82.182  0.00  0.00    +0.000 N 
ATOM     14  H   UNL     1      99.598 125.439  81.716  0.00  0.00    +0.000 HD
ENDROOT
TORSDOF 0
ENDMDL
