REMARK  Name = *****
REMARK  3 active torsions:
REMARK  status: ('A' for Active; 'I' for Inactive)
REMARK    1  A    between atoms: C_1  and  O_2
REMARK    2  A    between atoms: O_2  and  C_3
REMARK    3  A    between atoms: C_3  and  C_5
REMARK                            x       y       z     vdW  Elec       q    Type
REMARK                         _______ _______ _______ _____ _____    ______ ____
ROOT
ATOM      1  C   UNL     1       4.672  -0.743  -0.824  0.00  0.00    +0.000 A 
ATOM      2  C   UNL     1       5.509  -0.964  -1.906  0.00  0.00    +0.000 A 
ATOM      3  C   UNL     1       6.820  -0.545  -1.555  0.00  0.00    +0.000 A 
ATOM      4  C   UNL     1       8.061  -0.521  -2.222  0.00  0.00    +0.000 A 
ATOM      5  C   UNL     1       9.185  -0.024  -1.547  0.00  0.00    +0.000 A 
ATOM      6  C   UNL     1       9.099   0.443  -0.240  0.00  0.00    +0.000 A 
ATOM      7  C   UNL     1       7.876   0.421   0.422  0.00  0.00    +0.000 A 
ATOM      8  C   UNL     1       6.755  -0.073  -0.246  0.00  0.00    +0.000 A 
ATOM      9  N   UNL     1       5.454  -0.202   0.173  0.00  0.00    +0.000 N 
ATOM     10  F   UNL     1       7.782   0.868   1.681  0.00  0.00    +0.000 F 
ATOM     11 CL   UNL     1      10.705   0.009  -2.358  0.00  0.00    +0.000 Cl
ATOM     12  H   UNL     1       5.125   0.057   1.064  0.00  0.00    +0.000 HD
ENDROOT
BRANCH   1  13
ATOM     13  C   UNL     1       3.259  -1.009  -0.711  0.00  0.00    +0.000 C 
ATOM     14  O   UNL     1       2.554  -1.493  -1.586  0.00  0.00    +0.000 OA
BRANCH  13  16
ATOM     15  C   UNL     1       1.430  -0.859   0.737  0.00  0.00    +0.000 C 
ATOM     16  O   UNL     1       2.825  -0.637   0.527  0.00  0.00    +0.000 OA
ENDBRANCH  13  16
ENDBRANCH   1  13
TORSDOF 2
