MODEL 1
REMARK VINA RESULT:      -4.5      0.000      0.000
REMARK  Name = *****
REMARK  5 active torsions:
REMARK  status: ('A' for Active; 'I' for Inactive)
REMARK    1  A    between atoms: C_1  and  C_2
REMARK    2  A    between atoms: C_6  and  C_7
REMARK    3  A    between atoms: C_6  and  C_8
REMARK    4  A    between atoms: C_10  and  O_13
REMARK    5  A    between atoms: O_13  and  C_14
REMARK                            x       y       z     vdW  Elec       q    Type
REMARK                         _______ _______ _______ _____ _____    ______ ____
ROOT
ATOM      1  C   UNL     1     103.812 129.156  83.001  0.00  0.00    +0.000 C 
ATOM      2  C   UNL     1     103.083 127.824  83.129  0.00  0.00    +0.000 C 
ATOM      3  C   UNL     1     101.579 127.919  83.089  0.00  0.00    +0.000 A 
ATOM      4  C   UNL     1     101.034 126.810  82.438  0.00  0.00    +0.000 A 
ATOM      5  C   UNL     1     102.103 125.872  81.969  0.00  0.00    +0.000 C 
ATOM      6  C   UNL     1     103.366 126.782  81.991  0.00  0.00    +0.000 C 
ATOM      7  C   UNL     1     104.616 125.950  82.311  0.00  0.00    +0.000 C 
ATOM      8  C   UNL     1     103.554 127.433  80.604  0.00  0.00    +0.000 C 
ATOM      9  C   UNL     1      99.661 126.651  82.321  0.00  0.00    +0.000 A 
ATOM     10  C   UNL     1      98.816 127.629  82.856  0.00  0.00    +0.000 A 
ATOM     11  C   UNL     1      99.365 128.743  83.509  0.00  0.00    +0.000 A 
ATOM     12  C   UNL     1     100.753 128.888  83.634  0.00  0.00    +0.000 A 
ENDROOT
BRANCH  10  13
ATOM     13  O   UNL     1      97.481 127.380  82.681  0.00  0.00    +0.000 OA
ATOM     14  C   UNL     1      96.772 126.866  83.801  0.00  0.00    +0.000 C 
ENDBRANCH  10  13
TORSDOF 1
ENDMDL
