MODEL 1
REMARK VINA RESULT:      -3.4      0.000      0.000
REMARK  Name = *****
REMARK  1 active torsions:
REMARK  status: ('A' for Active; 'I' for Inactive)
REMARK    1  A    between atoms: C_1  and  C_2
REMARK                            x       y       z     vdW  Elec       q    Type
REMARK                         _______ _______ _______ _____ _____    ______ ____
ROOT
ATOM      1  C   UNL     1      86.432  69.234  88.457  0.00  0.00    +0.000 C 
ATOM      2  C   UNL     1      87.075  70.635  88.312  0.00  0.00    +0.000 C 
ATOM      3  C   UNL     1      86.226  71.678  89.052  0.00  0.00    +0.000 C 
ATOM      4  C   UNL     1      84.878  71.906  88.345  0.00  0.00    +0.000 C 
ATOM      5  C   UNL     1      85.014  72.184  86.840  0.00  0.00    +0.000 C 
ATOM      6  C   UNL     1      85.943  71.204  86.107  0.00  0.00    +0.000 C 
ATOM      7  C   UNL     1      87.259  71.113  86.861  0.00  0.00    +0.000 C 
ATOM      8  C   UNL     1      88.347  70.205  86.312  0.00  0.00    +0.000 C 
ATOM      9  C   UNL     1      89.284  70.000  87.515  0.00  0.00    +0.000 C 
ATOM     10  C   UNL     1      88.544  70.552  88.752  0.00  0.00    +0.000 C 
ENDROOT
TORSDOF 0
ENDMDL
