MODEL 1
REMARK VINA RESULT:      -3.8      0.000      0.000
REMARK  Name = *****
REMARK  4 active torsions:
REMARK  status: ('A' for Active; 'I' for Inactive)
REMARK    1  A    between atoms: C_1  and  C_2
REMARK    2  A    between atoms: C_3  and  C_13
REMARK    3  A    between atoms: C_9  and  O_11
REMARK    4  A    between atoms: O_11  and  C_12
REMARK                            x       y       z     vdW  Elec       q    Type
REMARK                         _______ _______ _______ _____ _____    ______ ____
ROOT
ATOM      1  C   UNL     1     103.648 129.394  83.708  0.00  0.00    +0.000 C 
ATOM      2  C   UNL     1     102.904 128.228  83.137  0.00  0.00    +0.000 A 
ATOM      3  C   UNL     1     103.473 127.098  82.571  0.00  0.00    +0.000 A 
ATOM      4  S   UNL     1     102.293 125.986  82.030  0.00  0.00    +0.000 S 
ATOM      5  C   UNL     1     100.992 126.979  82.538  0.00  0.00    +0.000 A 
ATOM      6  C   UNL     1     101.452 128.160  83.119  0.00  0.00    +0.000 A 
ATOM      7  C   UNL     1     100.480 129.081  83.586  0.00  0.00    +0.000 A 
ATOM      8  C   UNL     1      99.110 128.808  83.466  0.00  0.00    +0.000 A 
ATOM      9  C   UNL     1      98.678 127.624  82.885  0.00  0.00    +0.000 A 
ATOM     10  C   UNL     1      99.616 126.701  82.416  0.00  0.00    +0.000 A 
ATOM     11  C   UNL     1     104.911 126.738  82.378  0.00  0.00    +0.000 C 
ENDROOT
BRANCH   9  12
ATOM     12  O   UNL     1      97.375 127.243  82.712  0.00  0.00    +0.000 OA
ATOM     13  C   UNL     1      96.645 126.886  83.879  0.00  0.00    +0.000 C 
ENDBRANCH   9  12
TORSDOF 1
ENDMDL
