MODEL 1
REMARK VINA RESULT:      -4.2      0.000      0.000
REMARK  Name = *****
REMARK  3 active torsions:
REMARK  status: ('A' for Active; 'I' for Inactive)
REMARK    1  A    between atoms: C_1  and  O_2
REMARK    2  A    between atoms: O_2  and  C_3
REMARK    3  A    between atoms: C_4  and  C_13
REMARK                            x       y       z     vdW  Elec       q    Type
REMARK                         _______ _______ _______ _____ _____    ______ ____
ROOT
ATOM      1  C   UNL     1      88.590  70.342  86.837  0.00  0.00    +0.000 A 
ATOM      2  C   UNL     1      87.534  70.885  86.081  0.00  0.00    +0.000 A 
ATOM      3  C   UNL     1      86.367  71.422  86.688  0.00  0.00    +0.000 A 
ATOM      4  C   UNL     1      85.274  71.979  85.977  0.00  0.00    +0.000 A 
ATOM      5  C   UNL     1      84.159  72.498  86.639  0.00  0.00    +0.000 A 
ATOM      6  C   UNL     1      84.105  72.478  88.025  0.00  0.00    +0.000 A 
ATOM      7  C   UNL     1      85.165  71.937  88.751  0.00  0.00    +0.000 A 
ATOM      8  C   UNL     1      86.293  71.410  88.100  0.00  0.00    +0.000 A 
ATOM      9  C   UNL     1      87.351  70.874  88.848  0.00  0.00    +0.000 A 
ATOM     10  C   UNL     1      88.485  70.343  88.227  0.00  0.00    +0.000 A 
ENDROOT
BRANCH   2  11
ATOM     11  C   UNL     1      87.666  70.898  84.604  0.00  0.00    +0.000 C 
ATOM     12  O   UNL     1      87.261  69.912  83.991  0.00  0.00    +0.000 OA
ATOM     13 CL   UNL     1      88.314  72.340  83.858  0.00  0.00    +0.000 Cl
ENDBRANCH   2  11
BRANCH   1  15
ATOM     14  C   UNL     1      89.896  68.434  86.227  0.00  0.00    +0.000 C 
ATOM     15  O   UNL     1      89.652  69.833  86.140  0.00  0.00    +0.000 OA
ENDBRANCH   1  15
TORSDOF 2
ENDMDL
