MODEL 1
REMARK VINA RESULT:      -4.3      0.000      0.000
REMARK  Name = *****
REMARK  3 active torsions:
REMARK  status: ('A' for Active; 'I' for Inactive)
REMARK    1  A    between atoms: C_1  and  C_2
REMARK    2  A    between atoms: C_10  and  O_12
REMARK    3  A    between atoms: O_12  and  C_13
REMARK                            x       y       z     vdW  Elec       q    Type
REMARK                         _______ _______ _______ _____ _____    ______ ____
ROOT
ATOM      1  C   UNL     1      83.347  72.793  86.861  0.00  0.00    +0.000 C 
ATOM      2  C   UNL     1      84.659  72.213  87.299  0.00  0.00    +0.000 A 
ATOM      3  C   UNL     1      85.612  71.797  86.359  0.00  0.00    +0.000 A 
ATOM      4  C   UNL     1      86.842  71.246  86.763  0.00  0.00    +0.000 A 
ATOM      5  C   UNL     1      87.117  71.112  88.141  0.00  0.00    +0.000 A 
ATOM      6  C   UNL     1      86.160  71.530  89.078  0.00  0.00    +0.000 A 
ATOM      7  C   UNL     1      84.942  72.073  88.660  0.00  0.00    +0.000 A 
ATOM      8  C   UNL     1      88.343  70.563  88.542  0.00  0.00    +0.000 A 
ATOM      9  C   UNL     1      89.281  70.152  87.593  0.00  0.00    +0.000 A 
ATOM     10  C   UNL     1      89.016  70.281  86.230  0.00  0.00    +0.000 A 
ATOM     11  C   UNL     1      87.799  70.829  85.820  0.00  0.00    +0.000 A 
ENDROOT
BRANCH  10  12
ATOM     12  O   UNL     1      90.017  69.840  85.408  0.00  0.00    +0.000 OA
ATOM     13  C   UNL     1      90.412  70.706  84.352  0.00  0.00    +0.000 C 
ENDBRANCH  10  12
TORSDOF 1
ENDMDL
