MODEL 1
REMARK VINA RESULT:      -4.0      0.000      0.000
REMARK  Name = *****
REMARK  3 active torsions:
REMARK  status: ('A' for Active; 'I' for Inactive)
REMARK    1  A    between atoms: C_6  and  O_11
REMARK    2  A    between atoms: O_11  and  C_12
REMARK    3  A    between atoms: C_12  and  C_13
REMARK                            x       y       z     vdW  Elec       q    Type
REMARK                         _______ _______ _______ _____ _____    ______ ____
ROOT
ATOM      1  C   UNL     1      84.793  72.132  88.166  0.00  0.00    +0.000 A 
ATOM      2  C   UNL     1      84.682  72.238  86.782  0.00  0.00    +0.000 A 
ATOM      3  C   UNL     1      85.722  71.794  85.963  0.00  0.00    +0.000 A 
ATOM      4  C   UNL     1      86.887  71.239  86.519  0.00  0.00    +0.000 A 
ATOM      5  C   UNL     1      87.944  70.788  85.712  0.00  0.00    +0.000 A 
ATOM      6  C   UNL     1      89.101  70.238  86.270  0.00  0.00    +0.000 A 
ATOM      7  C   UNL     1      89.206  70.133  87.655  0.00  0.00    +0.000 A 
ATOM      8  C   UNL     1      88.163  70.578  88.475  0.00  0.00    +0.000 A 
ATOM      9  C   UNL     1      86.998  71.132  87.923  0.00  0.00    +0.000 A 
ATOM     10  C   UNL     1      85.943  71.583  88.733  0.00  0.00    +0.000 A 
ENDROOT
BRANCH   6  11
ATOM     11  O   UNL     1      90.043  69.844  85.359  0.00  0.00    +0.000 OA
BRANCH  11  12
ATOM     12  C   UNL     1      89.651  69.820  83.988  0.00  0.00    +0.000 C 
BRANCH  12  13
ATOM     13  C   UNL     1      90.769  70.418  83.153  0.00  0.00    +0.000 C 
ATOM     14  F   UNL     1      91.451  71.325  83.900  0.00  0.00    +0.000 F 
ENDBRANCH  12  13
ENDBRANCH  11  12
ENDBRANCH   6  11
TORSDOF 3
ENDMDL
