MODEL 1
REMARK VINA RESULT:      -3.9      0.000      0.000
REMARK  Name = *****
REMARK  0 active torsions:
REMARK  status: ('A' for Active; 'I' for Inactive)
REMARK                            x       y       z     vdW  Elec       q    Type
REMARK                         _______ _______ _______ _____ _____    ______ ____
ROOT
ATOM      1  C   UNL     1     104.436 123.687  81.212  0.00  0.00    +0.000 C 
ATOM      2  C   UNL     1     104.425 124.833  80.160  0.00  0.00    +0.000 C 
ATOM      3  C   UNL     1     103.226 125.817  80.325  0.00  0.00    +0.000 C 
ATOM      4  C   UNL     1     103.630 127.371  80.238  0.00  0.00    +0.000 C 
ATOM      5  C   UNL     1     103.794 128.125  81.671  0.00  0.00    +0.000 C 
ATOM      6  C   UNL     1     102.858 127.600  82.870  0.00  0.00    +0.000 C 
ATOM      7  C   UNL     1     103.489 126.436  83.801  0.00  0.00    +0.000 C 
ATOM      8  C   UNL     1     103.217 125.057  83.017  0.00  0.00    +0.000 C 
ATOM      9  C   UNL     1     104.444 124.175  82.687  0.00  0.00    +0.000 C 
ATOM     10  C   UNL     1     102.698 125.666  81.733  0.00  0.00    +0.000 C 
ATOM     11  C   UNL     1     101.771 126.799  82.182  0.00  0.00    +0.000 C 
ENDROOT
TORSDOF 0
ENDMDL
