MODEL 1
REMARK VINA RESULT:      -3.8      0.000      0.000
REMARK  Name = *****
REMARK  3 active torsions:
REMARK  status: ('A' for Active; 'I' for Inactive)
REMARK    1  A    between atoms: C_1  and  C_2
REMARK    2  A    between atoms: C_9  and  O_11
REMARK    3  A    between atoms: O_11  and  C_12
REMARK                            x       y       z     vdW  Elec       q    Type
REMARK                         _______ _______ _______ _____ _____    ______ ____
ROOT
ATOM      1  C   UNL     1     103.688 129.390  83.667  0.00  0.00    +0.000 C 
ATOM      2  C   UNL     1     102.943 128.217  83.113  0.00  0.00    +0.000 A 
ATOM      3  C   UNL     1     103.485 127.076  82.563  0.00  0.00    +0.000 A 
ATOM      4  S   UNL     1     102.336 125.952  82.037  0.00  0.00    +0.000 S 
ATOM      5  C   UNL     1     101.031 126.955  82.528  0.00  0.00    +0.000 A 
ATOM      6  C   UNL     1     101.490 128.147  83.092  0.00  0.00    +0.000 A 
ATOM      7  C   UNL     1     100.516 129.073  83.543  0.00  0.00    +0.000 A 
ATOM      8  C   UNL     1      99.146 128.797  83.424  0.00  0.00    +0.000 A 
ATOM      9  C   UNL     1      98.716 127.605  82.860  0.00  0.00    +0.000 A 
ATOM     10  C   UNL     1      99.656 126.674  82.407  0.00  0.00    +0.000 A 
ATOM     11 BR   UNL     1     105.325 126.729  82.381  0.00  0.00    +0.000 Br
ENDROOT
BRANCH   9  12
ATOM     12  O   UNL     1      97.414 127.220  82.690  0.00  0.00    +0.000 OA
ATOM     13  C   UNL     1      96.686 126.869  83.860  0.00  0.00    +0.000 C 
ENDBRANCH   9  12
TORSDOF 1
ENDMDL
