MODEL 1
REMARK VINA RESULT:      -4.4      0.000      0.000
REMARK  Name = *****
REMARK  4 active torsions:
REMARK  status: ('A' for Active; 'I' for Inactive)
REMARK    1  A    between atoms: C_3  and  C_14
REMARK    2  A    between atoms: C_8  and  C_13
REMARK    3  A    between atoms: C_9  and  O_11
REMARK    4  A    between atoms: O_11  and  C_12
REMARK                            x       y       z     vdW  Elec       q    Type
REMARK                         _______ _______ _______ _____ _____    ______ ____
ROOT
ATOM      1  C   UNL     1      85.551  71.866  85.063  0.00  0.00    +0.000 A 
ATOM      2  C   UNL     1      84.313  72.506  85.146  0.00  0.00    +0.000 A 
ATOM      3  C   UNL     1      83.744  72.782  86.392  0.00  0.00    +0.000 A 
ATOM      4  C   UNL     1      84.436  72.410  87.551  0.00  0.00    +0.000 A 
ATOM      5  C   UNL     1      85.685  71.766  87.480  0.00  0.00    +0.000 A 
ATOM      6  C   UNL     1      86.248  71.490  86.224  0.00  0.00    +0.000 A 
ATOM      7  C   UNL     1      87.495  70.847  86.166  0.00  0.00    +0.000 A 
ATOM      8  C   UNL     1      88.212  70.468  87.326  0.00  0.00    +0.000 A 
ATOM      9  C   UNL     1      87.645  70.748  88.577  0.00  0.00    +0.000 A 
ATOM     10  C   UNL     1      86.393  71.392  88.632  0.00  0.00    +0.000 A 
ATOM     11  C   UNL     1      89.539  69.805  87.097  0.00  0.00    +0.000 C 
ATOM     12  C   UNL     1      82.415  73.468  86.502  0.00  0.00    +0.000 C 
ENDROOT
BRANCH   9  13
ATOM     13  O   UNL     1      88.120  70.509  89.835  0.00  0.00    +0.000 OA
ATOM     14  C   UNL     1      88.530  71.566  90.680  0.00  0.00    +0.000 C 
ENDBRANCH   9  13
TORSDOF 1
ENDMDL
