MODEL 1
REMARK VINA RESULT:      -3.1      0.000      0.000
REMARK  Name = *****
REMARK  4 active torsions:
REMARK  status: ('A' for Active; 'I' for Inactive)
REMARK    1  A    between atoms: C_1  and  C_2
REMARK    2  A    between atoms: C_8  and  O_11
REMARK    3  A    between atoms: C_9  and  C_10
REMARK    4  A    between atoms: O_11  and  C_12
REMARK                            x       y       z     vdW  Elec       q    Type
REMARK                         _______ _______ _______ _____ _____    ______ ____
ROOT
ATOM      1  C   UNL     1      85.563  71.662  87.480  0.00  0.00    +0.000 C 
ATOM      2  C   UNL     1      86.377  71.417  86.265  0.00  0.00    +0.000 A 
ATOM      3  C   UNL     1      86.226  71.993  85.023  0.00  0.00    +0.000 A 
ATOM      4  S   UNL     1      87.362  71.456  83.862  0.00  0.00    +0.000 S 
ATOM      5  C   UNL     1      88.097  70.405  85.051  0.00  0.00    +0.000 A 
ATOM      6  C   UNL     1      87.472  70.494  86.263  0.00  0.00    +0.000 A 
ATOM      7  S   UNL     1      88.210  69.445  87.440  0.00  0.00    +0.000 S 
ATOM      8  C   UNL     1      89.365  68.887  86.289  0.00  0.00    +0.000 A 
ATOM      9  C   UNL     1      89.191  69.482  85.052  0.00  0.00    +0.000 A 
ATOM     10  C   UNL     1      89.995  69.249  83.825  0.00  0.00    +0.000 C 
ENDROOT
BRANCH   8  11
ATOM     11  O   UNL     1      90.324  67.983  86.553  0.00  0.00    +0.000 OA
ATOM     12  C   UNL     1      90.031  66.604  86.374  0.00  0.00    +0.000 C 
ENDBRANCH   8  11
TORSDOF 1
ENDMDL
