MODEL 1
REMARK VINA RESULT:      -4.7      0.000      0.000
REMARK  Name = *****
REMARK  0 active torsions:
REMARK  status: ('A' for Active; 'I' for Inactive)
REMARK                            x       y       z     vdW  Elec       q    Type
REMARK                         _______ _______ _______ _____ _____    ______ ____
ROOT
ATOM      1  C   UNL     1      99.968 129.931  84.444  0.00  0.00    +0.000 A 
ATOM      2  C   UNL     1     101.352 129.731  84.259  0.00  0.00    +0.000 A 
ATOM      3  C   UNL     1     101.829 128.613  83.532  0.00  0.00    +0.000 A 
ATOM      4  C   UNL     1     103.153 128.212  83.223  0.00  0.00    +0.000 A 
ATOM      5  C   UNL     1     103.403 127.039  82.471  0.00  0.00    +0.000 A 
ATOM      6  C   UNL     1     102.356 126.219  82.001  0.00  0.00    +0.000 A 
ATOM      7  C   UNL     1     101.081 126.641  82.321  0.00  0.00    +0.000 A 
ATOM      8  C   UNL     1     100.858 127.785  83.053  0.00  0.00    +0.000 A 
ATOM      9  C   UNL     1      99.492 127.947  83.214  0.00  0.00    +0.000 A 
ATOM     10  C   UNL     1      99.009 129.042  83.926  0.00  0.00    +0.000 A 
ATOM     11  C   UNL     1      98.792 126.860  82.559  0.00  0.00    +0.000 C 
ATOM     12  O   UNL     1      97.606 126.588  82.439  0.00  0.00    +0.000 OA
ATOM     13  N   UNL     1      99.844 126.095  82.031  0.00  0.00    +0.000 N 
ATOM     14 CL   UNL     1     104.508 129.144  83.751  0.00  0.00    +0.000 Cl
ATOM     15  H   UNL     1      99.716 125.267  81.514  0.00  0.00    +0.000 HD
ENDROOT
TORSDOF 0
ENDMDL
