REMARK  Name = *****
REMARK  0 active torsions:
REMARK  status: ('A' for Active; 'I' for Inactive)
REMARK                            x       y       z     vdW  Elec       q    Type
REMARK                         _______ _______ _______ _____ _____    ______ ____
ROOT
ATOM      1  C   UNL     1      -0.852   1.097  -0.203  0.00  0.00    +0.000 A 
ATOM      2  C   UNL     1      -1.455  -0.152  -0.329  0.00  0.00    +0.000 A 
ATOM      3  C   UNL     1      -0.668  -1.311  -0.279  0.00  0.00    +0.000 A 
ATOM      4  C   UNL     1       0.707  -1.242  -0.082  0.00  0.00    +0.000 A 
ATOM      5  C   UNL     1       1.310   0.012   0.054  0.00  0.00    +0.000 A 
ATOM      6  C   UNL     1       0.532   1.180  -0.008  0.00  0.00    +0.000 A 
ATOM      7 CL   UNL     1       1.223   2.757   0.144  0.00  0.00    +0.000 Cl
ATOM      8 CL   UNL     1       3.021   0.055   0.294  0.00  0.00    +0.000 Cl
ATOM      9  S   UNL     1      -1.591  -2.815  -0.423  0.00  0.00    +0.000 S 
ATOM     10  S   UNL     1      -3.368  -1.892  -0.710  0.00  0.00    +0.000 S 
ATOM     11  O   UNL     1      -4.087  -2.267   0.547  0.00  0.00    +0.000 OA
ATOM     12  N   UNL     1      -2.836  -0.299  -0.581  0.00  0.00    +0.000 N 
ATOM     13  H   UNL     1      -3.443   0.471  -0.675  0.00  0.00    +0.000 HD
ENDROOT
TORSDOF 0
