MODEL 1
REMARK VINA RESULT:      -4.4      0.000      0.000
REMARK  Name = *****
REMARK  1 active torsions:
REMARK  status: ('A' for Active; 'I' for Inactive)
REMARK    1  A    between atoms: C_9  and  C_11
REMARK                            x       y       z     vdW  Elec       q    Type
REMARK                         _______ _______ _______ _____ _____    ______ ____
ROOT
ATOM      1  C   UNL     1      98.533 128.363  83.389  0.00  0.00    +0.000 A 
ATOM      2  C   UNL     1      98.919 127.214  82.689  0.00  0.00    +0.000 A 
ATOM      3  C   UNL     1     100.290 126.991  82.523  0.00  0.00    +0.000 A 
ATOM      4  C   UNL     1     101.262 127.857  83.021  0.00  0.00    +0.000 A 
ATOM      5  C   UNL     1     100.854 129.007  83.722  0.00  0.00    +0.000 A 
ATOM      6  C   UNL     1      99.486 129.242  83.895  0.00  0.00    +0.000 A 
ATOM      7 CL   UNL     1      98.974 130.647  84.751  0.00  0.00    +0.000 Cl
ATOM      8  C   UNL     1     102.527 127.313  82.666  0.00  0.00    +0.000 A 
ATOM      9  C   UNL     1     102.318 126.136  81.966  0.00  0.00    +0.000 A 
ATOM     10  N   UNL     1     100.952 125.965  81.892  0.00  0.00    +0.000 N 
ATOM     11  H   UNL     1     100.508 125.208  81.446  0.00  0.00    +0.000 HD
ENDROOT
BRANCH   9  12
ATOM     12  C   UNL     1     103.238 125.179  81.373  0.00  0.00    +0.000 C 
ATOM     13  O   UNL     1     103.413 125.154  80.158  0.00  0.00    +0.000 OA
ATOM     14 CL   UNL     1     104.036 124.112  82.499  0.00  0.00    +0.000 Cl
ENDBRANCH   9  12
TORSDOF 1
ENDMDL
