MODEL 1
REMARK VINA RESULT:      -4.1      0.000      0.000
REMARK  Name = *****
REMARK  1 active torsions:
REMARK  status: ('A' for Active; 'I' for Inactive)
REMARK    1  A    between atoms: C_1  and  C_2
REMARK                            x       y       z     vdW  Elec       q    Type
REMARK                         _______ _______ _______ _____ _____    ______ ____
ROOT
ATOM      1  C   UNL     1     103.612 127.098  84.251  0.00  0.00    +0.000 C 
ATOM      2  C   UNL     1     102.895 127.301  82.922  0.00  0.00    +0.000 C 
ATOM      3  C   UNL     1     101.488 127.833  83.094  0.00  0.00    +0.000 A 
ATOM      4  C   UNL     1     100.580 126.955  82.497  0.00  0.00    +0.000 A 
ATOM      5  C   UNL     1      99.219 127.178  82.492  0.00  0.00    +0.000 A 
ATOM      6  C   UNL     1      98.757 128.341  83.116  0.00  0.00    +0.000 A 
ATOM      7  C   UNL     1      99.660 129.234  83.720  0.00  0.00    +0.000 A 
ATOM      8  C   UNL     1     101.036 128.988  83.714  0.00  0.00    +0.000 A 
ATOM      9 CL   UNL     1      99.057 130.656  84.481  0.00  0.00    +0.000 Cl
ATOM     10  N   UNL     1     101.252 125.873  81.948  0.00  0.00    +0.000 N 
ATOM     11  C   UNL     1     102.624 125.979  82.160  0.00  0.00    +0.000 C 
ATOM     12  S   UNL     1     103.713 124.823  81.673  0.00  0.00    +0.000 S 
ATOM     13 CL   UNL     1     103.815 128.408  81.865  0.00  0.00    +0.000 Cl
ATOM     14  H   UNL     1     100.817 125.129  81.473  0.00  0.00    +0.000 HD
ENDROOT
TORSDOF 0
ENDMDL
