MODEL 1
REMARK VINA RESULT:      -4.3      0.000      0.000
REMARK  Name = *****
REMARK  4 active torsions:
REMARK  status: ('A' for Active; 'I' for Inactive)
REMARK    1  A    between atoms: C_1  and  C_2
REMARK    2  A    between atoms: C_2  and  C_13
REMARK    3  A    between atoms: C_8  and  O_11
REMARK    4  A    between atoms: O_11  and  C_12
REMARK                            x       y       z     vdW  Elec       q    Type
REMARK                         _______ _______ _______ _____ _____    ______ ____
ROOT
ATOM      1  C   UNL     1     103.662 127.721  80.597  0.00  0.00    +0.000 C 
ATOM      2  C   UNL     1     103.459 127.017  81.953  0.00  0.00    +0.000 C 
ATOM      3  C   UNL     1     103.077 128.055  83.046  0.00  0.00    +0.000 C 
ATOM      4  C   UNL     1     101.579 128.013  83.015  0.00  0.00    +0.000 A 
ATOM      5  C   UNL     1     101.121 126.874  82.356  0.00  0.00    +0.000 A 
ATOM      6  C   UNL     1     102.260 126.031  81.873  0.00  0.00    +0.000 C 
ATOM      7  C   UNL     1      99.764 126.613  82.247  0.00  0.00    +0.000 A 
ATOM      8  C   UNL     1      98.852 127.517  82.800  0.00  0.00    +0.000 A 
ATOM      9  C   UNL     1      99.318 128.663  83.463  0.00  0.00    +0.000 A 
ATOM     10  C   UNL     1     100.692 128.913  83.579  0.00  0.00    +0.000 A 
ATOM     11  C   UNL     1     104.748 126.280  82.329  0.00  0.00    +0.000 C 
ENDROOT
BRANCH   8  12
ATOM     12  O   UNL     1      97.537 127.169  82.632  0.00  0.00    +0.000 OA
ATOM     13  C   UNL     1      96.791 126.894  83.810  0.00  0.00    +0.000 C 
ENDBRANCH   8  12
TORSDOF 1
ENDMDL
