REMARK  Name = *****
REMARK  0 active torsions:
REMARK  status: ('A' for Active; 'I' for Inactive)
REMARK                            x       y       z     vdW  Elec       q    Type
REMARK                         _______ _______ _______ _____ _____    ______ ____
ROOT
ATOM      1  C   UNL     1      -1.224   1.349  -0.040  0.00  0.00    +0.000 A 
ATOM      2  C   UNL     1      -2.430   0.645  -0.032  0.00  0.00    +0.000 A 
ATOM      3  C   UNL     1      -2.429  -0.753   0.014  0.00  0.00    +0.000 A 
ATOM      4  C   UNL     1      -1.215  -1.452   0.052  0.00  0.00    +0.000 A 
ATOM      5  C   UNL     1      -0.007  -0.736   0.044  0.00  0.00    +0.000 A 
ATOM      6  C   UNL     1      -0.006   0.670  -0.002  0.00  0.00    +0.000 A 
ATOM      7  N   UNL     1       1.180   1.428  -0.013  0.00  0.00    +0.000 NA
ATOM      8  C   UNL     1       2.307   0.786   0.022  0.00  0.00    +0.000 A 
ATOM      9  C   UNL     1       2.420  -0.720   0.071  0.00  0.00    +0.000 A 
ATOM     10  O   UNL     1       3.522  -1.243   0.100  0.00  0.00    +0.000 OA
ATOM     11  N   UNL     1       1.232  -1.402   0.080  0.00  0.00    +0.000 N 
ATOM     12 CL   UNL     1      -1.173  -3.186   0.111  0.00  0.00    +0.000 Cl
ATOM     13 CL   UNL     1      -3.962  -1.551   0.020  0.00  0.00    +0.000 Cl
ATOM     14  H   UNL     1       1.246  -2.386   0.113  0.00  0.00    +0.000 HD
ENDROOT
TORSDOF 0
