MODEL 1
REMARK VINA RESULT:      -4.0      0.000      0.000
REMARK  Name = *****
REMARK  2 active torsions:
REMARK  status: ('A' for Active; 'I' for Inactive)
REMARK    1  A    between atoms: C_1  and  C_2
REMARK    2  A    between atoms: C_2  and  C_3
REMARK                            x       y       z     vdW  Elec       q    Type
REMARK                         _______ _______ _______ _____ _____    ______ ____
ROOT
ATOM      1  C   UNL     1      89.308  64.372  86.378  0.00  0.00    +0.000 C 
ATOM      2  C   UNL     1      88.425  63.289  85.758  0.00  0.00    +0.000 C 
ATOM      3  O   UNL     1      88.533  62.929  84.585  0.00  0.00    +0.000 OA
ATOM      4  N   UNL     1      87.590  62.576  86.579  0.00  0.00    +0.000 N 
ATOM      5  C   UNL     1      87.264  62.876  87.907  0.00  0.00    +0.000 A 
ATOM      6  C   UNL     1      87.602  64.101  88.502  0.00  0.00    +0.000 A 
ATOM      7  S   UNL     1      88.414  65.395  87.589  0.00  0.00    +0.000 S 
ATOM      8  C   UNL     1      87.221  64.355  89.824  0.00  0.00    +0.000 A 
ATOM      9  C   UNL     1      86.517  63.393  90.545  0.00  0.00    +0.000 A 
ATOM     10  C   UNL     1      86.171  62.180  89.955  0.00  0.00    +0.000 A 
ATOM     11  C   UNL     1      86.538  61.925  88.632  0.00  0.00    +0.000 A 
ATOM     12 CL   UNL     1      86.058  63.709  92.173  0.00  0.00    +0.000 Cl
ATOM     13  H   UNL     1      87.177  61.769  86.194  0.00  0.00    +0.000 HD
ENDROOT
BRANCH   1  15
ATOM     14  C   UNL     1      91.521  65.018  85.190  0.00  0.00    +0.000 C 
ATOM     15  C   UNL     1      90.015  65.236  85.321  0.00  0.00    +0.000 C 
ENDBRANCH   1  15
TORSDOF 1
ENDMDL
