MODEL 1
REMARK VINA RESULT:      -3.9      0.000      0.000
REMARK  Name = *****
REMARK  3 active torsions:
REMARK  status: ('A' for Active; 'I' for Inactive)
REMARK    1  A    between atoms: C_1  and  C_2
REMARK    2  A    between atoms: C_2  and  C_3
REMARK    3  A    between atoms: C_3  and  N_4
REMARK                            x       y       z     vdW  Elec       q    Type
REMARK                         _______ _______ _______ _____ _____    ______ ____
ROOT
ATOM      1  N   UNL     1     100.474 127.979  83.442  0.00  0.00    +0.000 N 
ATOM      2  C   UNL     1     101.764 127.784  82.913  0.00  0.00    +0.000 A 
ATOM      3  C   UNL     1     101.725 126.654  82.095  0.00  0.00    +0.000 A 
ATOM      4  C   UNL     1     102.827 126.180  81.421  0.00  0.00    +0.000 A 
ATOM      5  C   UNL     1     104.013 126.897  81.596  0.00  0.00    +0.000 A 
ATOM      6  C   UNL     1     104.070 128.043  82.417  0.00  0.00    +0.000 A 
ATOM      7  C   UNL     1     102.929 128.500  83.089  0.00  0.00    +0.000 A 
ATOM      8 CL   UNL     1     105.443 126.370  80.789  0.00  0.00    +0.000 Cl
ATOM      9  N   UNL     1     100.426 126.155  82.100  0.00  0.00    +0.000 N 
ATOM     10  C   UNL     1      99.630 126.970  82.921  0.00  0.00    +0.000 A 
ATOM     11  S   UNL     1      98.012 126.717  83.164  0.00  0.00    +0.000 S 
ATOM     12  H   UNL     1     100.116 125.361  81.609  0.00  0.00    +0.000 HD
ENDROOT
BRANCH   1  13
ATOM     13  C   UNL     1     100.107 129.090  84.303  0.00  0.00    +0.000 C 
BRANCH  13  15
ATOM     14  C   UNL     1      99.768 131.576  84.102  0.00  0.00    +0.000 C 
ATOM     15  C   UNL     1      99.423 130.212  83.525  0.00  0.00    +0.000 C 
ENDBRANCH  13  15
ENDBRANCH   1  13
TORSDOF 2
ENDMDL
