MODEL 1
REMARK VINA RESULT:      -4.4      0.000      0.000
REMARK  Name = *****
REMARK  4 active torsions:
REMARK  status: ('A' for Active; 'I' for Inactive)
REMARK    1  A    between atoms: C_1  and  C_2
REMARK    2  A    between atoms: C_4  and  C_13
REMARK    3  A    between atoms: C_8  and  C_12
REMARK    4  A    between atoms: C_9  and  C_11
REMARK                            x       y       z     vdW  Elec       q    Type
REMARK                         _______ _______ _______ _____ _____    ______ ____
ROOT
ATOM      1  C   UNL     1     101.349 126.361  82.854  0.00  0.00    +0.000 C 
ATOM      2  C   UNL     1     102.533 126.382  81.932  0.00  0.00    +0.000 A 
ATOM      3  C   UNL     1     103.039 127.590  81.441  0.00  0.00    +0.000 A 
ATOM      4  C   UNL     1     104.148 127.640  80.575  0.00  0.00    +0.000 A 
ATOM      5  C   UNL     1     104.726 126.405  80.228  0.00  0.00    +0.000 A 
ATOM      6  C   UNL     1     104.253 125.179  80.694  0.00  0.00    +0.000 A 
ATOM      7  C   UNL     1     103.140 125.173  81.559  0.00  0.00    +0.000 A 
ATOM      8  C   UNL     1     105.083 124.151  80.134  0.00  0.00    +0.000 A 
ATOM      9  C   UNL     1     106.032 124.781  79.345  0.00  0.00    +0.000 A 
ATOM     10  N   UNL     1     105.801 126.131  79.415  0.00  0.00    +0.000 N 
ATOM     11  C   UNL     1     107.146 124.236  78.527  0.00  0.00    +0.000 C 
ATOM     12  C   UNL     1     104.954 122.685  80.354  0.00  0.00    +0.000 C 
ATOM     13  C   UNL     1     104.662 128.955  80.069  0.00  0.00    +0.000 C 
ATOM     14  H   UNL     1     106.334 126.812  78.945  0.00  0.00    +0.000 HD
ENDROOT
TORSDOF 0
ENDMDL
