MODEL 1
REMARK VINA RESULT:      -3.7      0.000      0.000
REMARK  Name = *****
REMARK  0 active torsions:
REMARK  status: ('A' for Active; 'I' for Inactive)
REMARK                            x       y       z     vdW  Elec       q    Type
REMARK                         _______ _______ _______ _____ _____    ______ ____
ROOT
ATOM      1  C   UNL     1      92.606  94.911  84.317  0.00  0.00    +0.000 A 
ATOM      2  C   UNL     1      93.762  95.512  84.760  0.00  0.00    +0.000 A 
ATOM      3  C   UNL     1      94.589  94.895  85.678  0.00  0.00    +0.000 A 
ATOM      4  C   UNL     1      94.318  93.650  86.210  0.00  0.00    +0.000 A 
ATOM      5  C   UNL     1      93.144  93.007  85.779  0.00  0.00    +0.000 A 
ATOM      6  C   UNL     1      92.296  93.646  84.835  0.00  0.00    +0.000 A 
ATOM      7 CL   UNL     1      90.837  92.908  84.265  0.00  0.00    +0.000 Cl
ATOM      8 CL   UNL     1      92.733  91.440  86.404  0.00  0.00    +0.000 Cl
ATOM      9 CL   UNL     1      95.416  92.966  87.350  0.00  0.00    +0.000 Cl
ATOM     10  N   UNL     1      95.630  95.765  85.886  0.00  0.00    +0.000 N 
ATOM     11  C   UNL     1      95.402  96.863  85.100  0.00  0.00    +0.000 A 
ATOM     12  S   UNL     1      96.347  98.209  84.971  0.00  0.00    +0.000 S 
ATOM     13  O   UNL     1      94.228  96.757  84.361  0.00  0.00    +0.000 OA
ATOM     14  H   UNL     1      96.396  95.626  86.488  0.00  0.00    +0.000 HD
ENDROOT
TORSDOF 0
ENDMDL
