MODEL 1
REMARK VINA RESULT:      -3.7      0.000      0.000
REMARK  Name = *****
REMARK  1 active torsions:
REMARK  status: ('A' for Active; 'I' for Inactive)
REMARK    1  A    between atoms: C_1  and  C_2
REMARK                            x       y       z     vdW  Elec       q    Type
REMARK                         _______ _______ _______ _____ _____    ______ ____
ROOT
ATOM      1  C   UNL     1      85.772  62.437  90.624  0.00  0.00    +0.000 C 
ATOM      2  C   UNL     1      86.564  62.866  89.417  0.00  0.00    +0.000 C 
ATOM      3  N   UNL     1      86.729  62.026  88.445  0.00  0.00    +0.000 NA
ATOM      4  N   UNL     1      87.427  62.340  87.333  0.00  0.00    +0.000 N 
ATOM      5  C   UNL     1      88.054  63.567  87.058  0.00  0.00    +0.000 A 
ATOM      6  C   UNL     1      88.018  64.637  87.961  0.00  0.00    +0.000 A 
ATOM      7  S   UNL     1      87.169  64.502  89.510  0.00  0.00    +0.000 S 
ATOM      8  C   UNL     1      88.655  65.849  87.656  0.00  0.00    +0.000 A 
ATOM      9  C   UNL     1      89.333  65.999  86.450  0.00  0.00    +0.000 A 
ATOM     10  C   UNL     1      89.386  64.954  85.537  0.00  0.00    +0.000 A 
ATOM     11  C   UNL     1      88.751  63.750  85.843  0.00  0.00    +0.000 A 
ATOM     12 CL   UNL     1      88.840  62.471  84.679  0.00  0.00    +0.000 Cl
ATOM     13 CL   UNL     1      90.112  67.490  86.088  0.00  0.00    +0.000 Cl
ATOM     14  H   UNL     1      87.504  61.640  86.645  0.00  0.00    +0.000 HD
ENDROOT
TORSDOF 0
ENDMDL
