MODEL 1
REMARK VINA RESULT:      -4.3      0.000      0.000
REMARK  Name = *****
REMARK  2 active torsions:
REMARK  status: ('A' for Active; 'I' for Inactive)
REMARK    1  A    between atoms: C_1  and  O_2
REMARK    2  A    between atoms: O_2  and  C_3
REMARK                            x       y       z     vdW  Elec       q    Type
REMARK                         _______ _______ _______ _____ _____    ______ ____
ROOT
ATOM      1  C   UNL     1      88.523  70.416  85.897  0.00  0.00    +0.000 A 
ATOM      2  C   UNL     1      87.314  71.054  85.580  0.00  0.00    +0.000 A 
ATOM      3  C   UNL     1      86.389  71.452  86.565  0.00  0.00    +0.000 A 
ATOM      4  C   UNL     1      86.691  71.193  87.922  0.00  0.00    +0.000 A 
ATOM      5  C   UNL     1      85.786  71.591  88.926  0.00  0.00    +0.000 A 
ATOM      6  C   UNL     1      84.595  72.238  88.599  0.00  0.00    +0.000 A 
ATOM      7  C   UNL     1      84.299  72.486  87.266  0.00  0.00    +0.000 A 
ATOM      8  C   UNL     1      85.180  72.099  86.260  0.00  0.00    +0.000 A 
ATOM      9  F   UNL     1      84.853  72.358  84.985  0.00  0.00    +0.000 F 
ATOM     10  F   UNL     1      83.153  73.105  86.955  0.00  0.00    +0.000 F 
ATOM     11  C   UNL     1      87.896  70.543  88.231  0.00  0.00    +0.000 A 
ATOM     12  C   UNL     1      88.796  70.161  87.238  0.00  0.00    +0.000 A 
ATOM     13  F   UNL     1      89.925  69.543  87.618  0.00  0.00    +0.000 F 
ATOM     14  F   UNL     1      88.196  70.282  89.513  0.00  0.00    +0.000 F 
ATOM     15  F   UNL     1      87.039  71.299  84.288  0.00  0.00    +0.000 F 
ENDROOT
BRANCH   1  17
ATOM     16  C   UNL     1      90.436  70.947  84.569  0.00  0.00    +0.000 C 
ATOM     17  O   UNL     1      89.316  70.108  84.824  0.00  0.00    +0.000 OA
ENDBRANCH   1  17
TORSDOF 1
ENDMDL
