REMARK  Name = *****
REMARK  4 active torsions:
REMARK  status: ('A' for Active; 'I' for Inactive)
REMARK    1  A    between atoms: C_1  and  C_2
REMARK    2  A    between atoms: C_9  and  O_13
REMARK    3  A    between atoms: C_10  and  C_12
REMARK    4  A    between atoms: O_13  and  C_14
REMARK                            x       y       z     vdW  Elec       q    Type
REMARK                         _______ _______ _______ _____ _____    ______ ____
ROOT
ATOM      1  C   UNL     1       0.845  -0.378   0.647  0.00  0.00    +0.000 C 
ATOM      2  C   UNL     1       2.283  -0.477   0.121  0.00  0.00    +0.000 C 
ATOM      3  C   UNL     1       3.023   0.870   0.270  0.00  0.00    +0.000 C 
ATOM      4  C   UNL     1       3.615   1.082   1.634  0.00  0.00    +0.000 C 
ATOM      5  C   UNL     1       3.972   0.057   2.421  0.00  0.00    +0.000 C 
ATOM      6  C   UNL     1       3.808  -1.324   1.956  0.00  0.00    +0.000 A 
ATOM      7  C   UNL     1       3.013  -1.604   0.831  0.00  0.00    +0.000 A 
ATOM      8  C   UNL     1       2.857  -2.933   0.403  0.00  0.00    +0.000 A 
ATOM      9  C   UNL     1       3.486  -3.982   1.081  0.00  0.00    +0.000 A 
ATOM     10  C   UNL     1       4.286  -3.702   2.202  0.00  0.00    +0.000 A 
ATOM     11  C   UNL     1       4.435  -2.374   2.634  0.00  0.00    +0.000 A 
ATOM     12  C   UNL     1       4.980  -4.809   2.947  0.00  0.00    +0.000 C 
ENDROOT
BRANCH   9  13
ATOM     13  O   UNL     1       3.389  -5.306   0.737  0.00  0.00    +0.000 OA
ATOM     14  C   UNL     1       2.484  -5.645  -0.305  0.00  0.00    +0.000 C 
ENDBRANCH   9  13
TORSDOF 1
