MODEL 1
REMARK VINA RESULT:      -4.1      0.000      0.000
REMARK  Name = *****
REMARK  0 active torsions:
REMARK  status: ('A' for Active; 'I' for Inactive)
REMARK                            x       y       z     vdW  Elec       q    Type
REMARK                         _______ _______ _______ _____ _____    ______ ____
ROOT
ATOM      1  C   UNL     1     102.191 126.348  81.852  0.00  0.00    +0.000 A 
ATOM      2  C   UNL     1     103.286 127.132  82.223  0.00  0.00    +0.000 A 
ATOM      3  C   UNL     1     103.121 128.278  83.035  0.00  0.00    +0.000 A 
ATOM      4  C   UNL     1     101.850 128.664  83.491  0.00  0.00    +0.000 A 
ATOM      5  C   UNL     1     100.782 127.872  83.109  0.00  0.00    +0.000 A 
ATOM      6  C   UNL     1     100.951 126.739  82.307  0.00  0.00    +0.000 A 
ATOM      7  N   UNL     1      99.743 126.099  82.053  0.00  0.00    +0.000 N 
ATOM      8  C   UNL     1      98.697 126.757  82.663  0.00  0.00    +0.000 C 
ATOM      9  O   UNL     1      97.523 126.466  82.644  0.00  0.00    +0.000 OA
ATOM     10  C   UNL     1      99.342 127.965  83.392  0.00  0.00    +0.000 C 
ATOM     11  O   UNL     1      98.756 128.792  84.049  0.00  0.00    +0.000 OA
ATOM     12 CL   UNL     1     101.610 130.053  84.480  0.00  0.00    +0.000 Cl
ATOM     13 BR   UNL     1     104.698 129.252  83.464  0.00  0.00    +0.000 Br
ATOM     14  H   UNL     1      99.648 125.285  81.508  0.00  0.00    +0.000 HD
ENDROOT
TORSDOF 0
ENDMDL
