MODEL 1
REMARK VINA RESULT:      -4.2      0.000      0.000
REMARK  Name = *****
REMARK  1 active torsions:
REMARK  status: ('A' for Active; 'I' for Inactive)
REMARK    1  A    between atoms: C_1  and  C_2
REMARK                            x       y       z     vdW  Elec       q    Type
REMARK                         _______ _______ _______ _____ _____    ______ ____
ROOT
ATOM      1  C   UNL     1      99.014 129.219  83.807  0.00  0.00    +0.000 C 
ATOM      2  C   UNL     1     100.030 128.271  83.239  0.00  0.00    +0.000 A 
ATOM      3  N   UNL     1     101.302 128.519  83.363  0.00  0.00    +0.000 NA
ATOM      4  C   UNL     1     102.213 127.602  82.812  0.00  0.00    +0.000 A 
ATOM      5  C   UNL     1     103.578 127.858  82.939  0.00  0.00    +0.000 A 
ATOM      6  C   UNL     1     104.518 126.971  82.405  0.00  0.00    +0.000 A 
ATOM      7  C   UNL     1     104.091 125.816  81.738  0.00  0.00    +0.000 A 
ATOM      8  C   UNL     1     102.725 125.549  81.603  0.00  0.00    +0.000 A 
ATOM      9  C   UNL     1     101.798 126.441  82.140  0.00  0.00    +0.000 A 
ATOM     10  N   UNL     1     100.429 126.183  82.012  0.00  0.00    +0.000 N 
ATOM     11  C   UNL     1      99.485 127.037  82.525  0.00  0.00    +0.000 A 
ATOM     12  O   UNL     1      98.283 126.845  82.432  0.00  0.00    +0.000 OA
ATOM     13 CL   UNL     1     105.198 124.679  81.054  0.00  0.00    +0.000 Cl
ATOM     14 CL   UNL     1     106.190 127.358  82.603  0.00  0.00    +0.000 Cl
ATOM     15  H   UNL     1     100.136 125.369  81.541  0.00  0.00    +0.000 HD
ENDROOT
TORSDOF 0
ENDMDL
