MODEL 1
REMARK VINA RESULT:      -4.0      0.000      0.000
REMARK  Name = *****
REMARK  2 active torsions:
REMARK  status: ('A' for Active; 'I' for Inactive)
REMARK    1  A    between atoms: C_1  and  O_2
REMARK    2  A    between atoms: O_2  and  C_3
REMARK                            x       y       z     vdW  Elec       q    Type
REMARK                         _______ _______ _______ _____ _____    ______ ____
ROOT
ATOM      1  C   UNL     1     102.580 126.696  81.803  0.00  0.00    +0.000 A 
ATOM      2  C   UNL     1     102.961 125.355  81.885  0.00  0.00    +0.000 A 
ATOM      3  C   UNL     1     103.989 124.847  81.068  0.00  0.00    +0.000 A 
ATOM      4  C   UNL     1     104.645 125.707  80.154  0.00  0.00    +0.000 A 
ATOM      5  C   UNL     1     104.254 127.051  80.083  0.00  0.00    +0.000 A 
ATOM      6  C   UNL     1     103.232 127.536  80.901  0.00  0.00    +0.000 A 
ATOM      7  C   UNL     1     105.670 125.200  79.338  0.00  0.00    +0.000 A 
ATOM      8  C   UNL     1     106.047 123.861  79.422  0.00  0.00    +0.000 A 
ATOM      9  C   UNL     1     105.399 123.025  80.322  0.00  0.00    +0.000 A 
ATOM     10  C   UNL     1     104.381 123.501  81.140  0.00  0.00    +0.000 A 
ATOM     11  F   UNL     1     105.760 121.738  80.403  0.00  0.00    +0.000 F 
ENDROOT
BRANCH   1  13
ATOM     12  C   UNL     1     100.302 126.725  82.488  0.00  0.00    +0.000 C 
ATOM     13  O   UNL     1     101.600 127.302  82.540  0.00  0.00    +0.000 OA
ENDBRANCH   1  13
TORSDOF 1
ENDMDL
