MODEL 1
REMARK VINA RESULT:      -4.0      0.000      0.000
REMARK  Name = *****
REMARK  0 active torsions:
REMARK  status: ('A' for Active; 'I' for Inactive)
REMARK                            x       y       z     vdW  Elec       q    Type
REMARK                         _______ _______ _______ _____ _____    ______ ____
ROOT
ATOM      1  C   UNL     1     101.760 128.773  83.691  0.00  0.00    +0.000 A 
ATOM      2  C   UNL     1     100.883 127.868  83.138  0.00  0.00    +0.000 A 
ATOM      3  C   UNL     1     101.317 126.859  82.307  0.00  0.00    +0.000 A 
ATOM      4  C   UNL     1     102.647 126.688  81.973  0.00  0.00    +0.000 A 
ATOM      5  C   UNL     1     103.573 127.595  82.518  0.00  0.00    +0.000 A 
ATOM      6  C   UNL     1     103.120 128.632  83.376  0.00  0.00    +0.000 A 
ATOM      7 BR   UNL     1     104.304 129.901  84.158  0.00  0.00    +0.000 Br
ATOM      8 CL   UNL     1     105.260 127.438  82.140  0.00  0.00    +0.000 Cl
ATOM      9 CL   UNL     1     103.088 125.392  80.923  0.00  0.00    +0.000 Cl
ATOM     10  N   UNL     1     100.194 126.161  81.950  0.00  0.00    +0.000 N 
ATOM     11  C   UNL     1      99.114 126.749  82.560  0.00  0.00    +0.000 A 
ATOM     12  O   UNL     1      97.957 126.373  82.452  0.00  0.00    +0.000 OA
ATOM     13  O   UNL     1      99.511 127.848  83.333  0.00  0.00    +0.000 OA
ATOM     14  H   UNL     1     100.166 125.375  81.358  0.00  0.00    +0.000 HD
ENDROOT
TORSDOF 0
ENDMDL
