MODEL 1
REMARK VINA RESULT:      -4.1      0.000      0.000
REMARK  Name = *****
REMARK  1 active torsions:
REMARK  status: ('A' for Active; 'I' for Inactive)
REMARK    1  A    between atoms: C_7  and  O_12
REMARK                            x       y       z     vdW  Elec       q    Type
REMARK                         _______ _______ _______ _____ _____    ______ ____
ROOT
ATOM      1  C   UNL     1     103.554 125.101  80.828  0.00  0.00    +0.000 A 
ATOM      2  C   UNL     1     102.897 126.223  81.347  0.00  0.00    +0.000 A 
ATOM      3  C   UNL     1     103.426 127.500  81.192  0.00  0.00    +0.000 A 
ATOM      4  C   UNL     1     104.627 127.657  80.508  0.00  0.00    +0.000 A 
ATOM      5  C   UNL     1     105.296 126.539  79.983  0.00  0.00    +0.000 A 
ATOM      6  C   UNL     1     104.766 125.241  80.136  0.00  0.00    +0.000 A 
ATOM      7  C   UNL     1     105.529 124.115  79.555  0.00  0.00    +0.000 A 
ATOM      8  C   UNL     1     106.680 124.332  78.911  0.00  0.00    +0.000 A 
ATOM      9  C   UNL     1     107.234 125.689  78.751  0.00  0.00    +0.000 A 
ATOM     10  O   UNL     1     108.290 125.876  78.159  0.00  0.00    +0.000 OA
ATOM     11  N   UNL     1     106.510 126.709  79.295  0.00  0.00    +0.000 N 
ATOM     12 CL   UNL     1     105.268 129.252  80.325  0.00  0.00    +0.000 Cl
ATOM     13 CL   UNL     1     101.411 126.019  82.191  0.00  0.00    +0.000 Cl
ATOM     14  H   UNL     1     106.861 127.624  79.200  0.00  0.00    +0.000 HD
ENDROOT
BRANCH   7  15
ATOM     15  O   UNL     1     105.068 122.818  79.668  0.00  0.00    +0.000 OA
ATOM     16  H   UNL     1     104.171 122.657  79.889  0.00  0.00    +0.000 HD
ENDBRANCH   7  15
TORSDOF 1
ENDMDL
