MODEL 1
REMARK VINA RESULT:      -4.2      0.000      0.000
REMARK  Name = *****
REMARK  0 active torsions:
REMARK  status: ('A' for Active; 'I' for Inactive)
REMARK                            x       y       z     vdW  Elec       q    Type
REMARK                         _______ _______ _______ _____ _____    ______ ____
ROOT
ATOM      1  C   UNL     1     102.087 128.805  83.725  0.00  0.00    +0.000 A 
ATOM      2  C   UNL     1     103.415 128.559  83.365  0.00  0.00    +0.000 A 
ATOM      3  C   UNL     1     103.748 127.494  82.497  0.00  0.00    +0.000 A 
ATOM      4  C   UNL     1     102.751 126.656  81.972  0.00  0.00    +0.000 A 
ATOM      5  C   UNL     1     101.439 126.913  82.338  0.00  0.00    +0.000 A 
ATOM      6  C   UNL     1     101.129 127.967  83.196  0.00  0.00    +0.000 A 
ATOM      7  C   UNL     1      99.675 127.966  83.380  0.00  0.00    +0.000 C 
ATOM      8  O   UNL     1      99.029 128.731  84.056  0.00  0.00    +0.000 OA
ATOM      9  C   UNL     1      99.156 126.777  82.525  0.00  0.00    +0.000 C 
ATOM     10  O   UNL     1      98.004 126.429  82.401  0.00  0.00    +0.000 OA
ATOM     11  N   UNL     1     100.284 126.225  81.952  0.00  0.00    +0.000 N 
ATOM     12 CL   UNL     1     103.095 125.342  80.909  0.00  0.00    +0.000 Cl
ATOM     13 CL   UNL     1     105.421 127.277  82.116  0.00  0.00    +0.000 Cl
ATOM     14  H   UNL     1     100.276 125.447  81.349  0.00  0.00    +0.000 HD
ENDROOT
TORSDOF 0
ENDMDL
