MODEL 1
REMARK VINA RESULT:      -4.6      0.000      0.000
REMARK  Name = *****
REMARK  4 active torsions:
REMARK  status: ('A' for Active; 'I' for Inactive)
REMARK    1  A    between atoms: C_1  and  C_2
REMARK    2  A    between atoms: C_4  and  C_15
REMARK    3  A    between atoms: C_5  and  C_14
REMARK    4  A    between atoms: C_12  and  C_13
REMARK                            x       y       z     vdW  Elec       q    Type
REMARK                         _______ _______ _______ _____ _____    ______ ____
ROOT
ATOM      1  C   UNL     1     101.745 130.963  85.802  0.00  0.00    +0.000 C 
ATOM      2  C   UNL     1     101.713 130.061  84.582  0.00  0.00    +0.000 C 
ATOM      3  C   UNL     1     102.883 129.551  84.161  0.00  0.00    +0.000 C 
ATOM      4  C   UNL     1     103.214 128.655  83.061  0.00  0.00    +0.000 C 
ATOM      5  C   UNL     1     102.392 127.728  82.514  0.00  0.00    +0.000 C 
ATOM      6  C   UNL     1     100.963 127.636  82.832  0.00  0.00    +0.000 C 
ATOM      7  C   UNL     1     100.184 126.613  82.470  0.00  0.00    +0.000 C 
ATOM      8  C   UNL     1      98.802 127.042  82.641  0.00  0.00    +0.000 C 
ATOM      9  O   UNL     1      97.836 126.340  82.391  0.00  0.00    +0.000 OA
ATOM     10  O   UNL     1      98.757 128.339  83.047  0.00  0.00    +0.000 OA
ATOM     11  C   UNL     1     100.086 128.677  83.310  0.00  0.00    +0.000 C 
ATOM     12  C   UNL     1     100.388 129.785  84.012  0.00  0.00    +0.000 C 
ATOM     13  C   UNL     1      99.291 130.780  84.335  0.00  0.00    +0.000 C 
ATOM     14  C   UNL     1     102.885 126.735  81.474  0.00  0.00    +0.000 C 
ATOM     15  C   UNL     1     104.657 128.822  82.621  0.00  0.00    +0.000 C 
ENDROOT
TORSDOF 0
ENDMDL
