MODEL 1
REMARK VINA RESULT:      -4.0      0.000      0.000
REMARK  Name = *****
REMARK  2 active torsions:
REMARK  status: ('A' for Active; 'I' for Inactive)
REMARK    1  A    between atoms: C_1  and  O_2
REMARK    2  A    between atoms: O_2  and  C_3
REMARK                            x       y       z     vdW  Elec       q    Type
REMARK                         _______ _______ _______ _____ _____    ______ ____
ROOT
ATOM      1  C   UNL     1      87.502  64.130  87.557  0.00  0.00    +0.000 A 
ATOM      2  C   UNL     1      88.632  64.678  86.944  0.00  0.00    +0.000 A 
ATOM      3  C   UNL     1      88.857  66.076  86.914  0.00  0.00    +0.000 A 
ATOM      4  C   UNL     1      89.963  66.716  86.320  0.00  0.00    +0.000 A 
ATOM      5  N   UNL     1      90.175  68.049  86.293  0.00  0.00    +0.000 NA
ATOM      6  C   UNL     1      89.238  68.801  86.889  0.00  0.00    +0.000 A 
ATOM      7  C   UNL     1      88.105  68.305  87.508  0.00  0.00    +0.000 A 
ATOM      8  C   UNL     1      87.906  66.920  87.523  0.00  0.00    +0.000 A 
ATOM      9  C   UNL     1      86.773  66.360  88.137  0.00  0.00    +0.000 A 
ATOM     10  C   UNL     1      86.573  64.976  88.154  0.00  0.00    +0.000 A 
ATOM     11 CL   UNL     1      89.538  70.488  86.836  0.00  0.00    +0.000 Cl
ATOM     12 CL   UNL     1      91.224  65.843  85.528  0.00  0.00    +0.000 Cl
ENDROOT
BRANCH   1  14
ATOM     13  C   UNL     1      86.672  62.117  88.516  0.00  0.00    +0.000 C 
ATOM     14  O   UNL     1      87.429  62.765  87.502  0.00  0.00    +0.000 OA
ENDBRANCH   1  14
TORSDOF 1
ENDMDL
