MODEL 1
REMARK VINA RESULT:      -4.0      0.000      0.000
REMARK  Name = *****
REMARK  3 active torsions:
REMARK  status: ('A' for Active; 'I' for Inactive)
REMARK    1  A    between atoms: C_1  and  C_2
REMARK    2  A    between atoms: C_8  and  O_11
REMARK    3  A    between atoms: O_11  and  C_12
REMARK                            x       y       z     vdW  Elec       q    Type
REMARK                         _______ _______ _______ _____ _____    ______ ____
ROOT
ATOM      1  C   UNL     1      83.675  72.598  87.677  0.00  0.00    +0.000 C 
ATOM      2  C   UNL     1      85.036  72.002  87.565  0.00  0.00    +0.000 C 
ATOM      3  C   UNL     1      85.868  71.606  88.546  0.00  0.00    +0.000 C 
ATOM      4  C   UNL     1      87.087  71.090  87.924  0.00  0.00    +0.000 A 
ATOM      5  C   UNL     1      86.959  71.189  86.535  0.00  0.00    +0.000 A 
ATOM      6  C   UNL     1      85.629  71.783  86.189  0.00  0.00    +0.000 C 
ATOM      7  C   UNL     1      87.967  70.774  85.679  0.00  0.00    +0.000 A 
ATOM      8  C   UNL     1      89.139  70.244  86.229  0.00  0.00    +0.000 A 
ATOM      9  C   UNL     1      89.273  70.142  87.623  0.00  0.00    +0.000 A 
ATOM     10  C   UNL     1      88.245  70.566  88.478  0.00  0.00    +0.000 A 
ATOM     11 BR   UNL     1      85.609  71.665  90.367  0.00  0.00    +0.000 Br
ENDROOT
BRANCH   8  12
ATOM     12  O   UNL     1      90.075  69.863  85.305  0.00  0.00    +0.000 OA
ATOM     13  C   UNL     1      90.460  70.835  84.341  0.00  0.00    +0.000 C 
ENDBRANCH   8  12
TORSDOF 1
ENDMDL
