MODEL 1
REMARK VINA RESULT:      -3.6      0.000      0.000
REMARK  Name = *****
REMARK  0 active torsions:
REMARK  status: ('A' for Active; 'I' for Inactive)
REMARK                            x       y       z     vdW  Elec       q    Type
REMARK                         _______ _______ _______ _____ _____    ______ ____
ROOT
ATOM      1  C   UNL     1      83.574  72.777  86.334  0.00  0.00    +0.000 C 
ATOM      2  C   UNL     1      84.685  72.195  86.802  0.00  0.00    +0.000 C 
ATOM      3  C   UNL     1      84.952  71.897  88.261  0.00  0.00    +0.000 C 
ATOM      4  C   UNL     1      86.448  71.606  88.246  0.00  0.00    +0.000 C 
ATOM      5  C   UNL     1      87.002  70.775  89.394  0.00  0.00    +0.000 C 
ATOM      6  C   UNL     1      88.488  70.483  89.145  0.00  0.00    +0.000 C 
ATOM      7  C   UNL     1      88.752  69.867  87.765  0.00  0.00    +0.000 C 
ATOM      8  C   UNL     1      88.109  70.663  86.621  0.00  0.00    +0.000 C 
ATOM      9  C   UNL     1      86.631  70.872  86.916  0.00  0.00    +0.000 C 
ATOM     10  C   UNL     1      85.849  71.749  85.943  0.00  0.00    +0.000 C 
ENDROOT
TORSDOF 0
ENDMDL
