MODEL 1
REMARK VINA RESULT:      -3.8      0.000      0.000
REMARK  Name = *****
REMARK  0 active torsions:
REMARK  status: ('A' for Active; 'I' for Inactive)
REMARK                            x       y       z     vdW  Elec       q    Type
REMARK                         _______ _______ _______ _____ _____    ______ ____
ROOT
ATOM      1  C   UNL     1     102.734 126.986  81.458  0.00  0.00    +0.000 A 
ATOM      2  C   UNL     1     102.013 127.007  82.582  0.00  0.00    +0.000 A 
ATOM      3  C   UNL     1     102.034 125.903  83.557  0.00  0.00    +0.000 A 
ATOM      4  O   UNL     1     101.358 125.955  84.577  0.00  0.00    +0.000 OA
ATOM      5  O   UNL     1     102.851 124.823  83.256  0.00  0.00    +0.000 OA
ATOM      6  C   UNL     1     103.623 124.777  82.074  0.00  0.00    +0.000 A 
ATOM      7  C   UNL     1     104.423 123.656  81.833  0.00  0.00    +0.000 A 
ATOM      8  C   UNL     1     105.191 123.595  80.671  0.00  0.00    +0.000 A 
ATOM      9  C   UNL     1     105.150 124.652  79.764  0.00  0.00    +0.000 A 
ATOM     10  C   UNL     1     104.351 125.773  80.004  0.00  0.00    +0.000 A 
ATOM     11  C   UNL     1     103.580 125.839  81.168  0.00  0.00    +0.000 A 
ATOM     12 CL   UNL     1     106.097 124.579  78.328  0.00  0.00    +0.000 Cl
ATOM     13 CL   UNL     1     104.487 122.339  82.942  0.00  0.00    +0.000 Cl
ENDROOT
TORSDOF 0
ENDMDL
