REMARK  Name = *****
REMARK  0 active torsions:
REMARK  status: ('A' for Active; 'I' for Inactive)
REMARK                            x       y       z     vdW  Elec       q    Type
REMARK                         _______ _______ _______ _____ _____    ______ ____
ROOT
ATOM      1  C   UNL     1       1.205  -1.371   0.000  0.00  0.00    +0.000 A 
ATOM      2  C   UNL     1       2.417  -0.689   0.001  0.00  0.00    +0.000 A 
ATOM      3  C   UNL     1       2.445   0.703   0.002  0.00  0.00    +0.000 A 
ATOM      4  C   UNL     1       1.248   1.432   0.004  0.00  0.00    +0.000 A 
ATOM      5  C   UNL     1       0.018   0.758   0.003  0.00  0.00    +0.000 A 
ATOM      6  C   UNL     1       0.012  -0.646   0.002  0.00  0.00    +0.000 A 
ATOM      7  N   UNL     1      -1.196  -1.350   0.001  0.00  0.00    +0.000 N 
ATOM      8  C   UNL     1      -2.416  -0.746   0.002  0.00  0.00    +0.000 A 
ATOM      9  O   UNL     1      -3.455  -1.398   0.001  0.00  0.00    +0.000 OA
ATOM     10  N   UNL     1      -2.412   0.615   0.003  0.00  0.00    +0.000 N 
ATOM     11  C   UNL     1      -1.307   1.434   0.003  0.00  0.00    +0.000 A 
ATOM     12  O   UNL     1      -1.449   2.649   0.001  0.00  0.00    +0.000 OA
ATOM     13 CL   UNL     1       1.413   3.151   0.007  0.00  0.00    +0.000 Cl
ATOM     14 CL   UNL     1       3.892  -1.573  -0.001  0.00  0.00    +0.000 Cl
ATOM     15  H   UNL     1      -1.163  -2.334   0.001  0.00  0.00    +0.000 HD
ATOM     16  H   UNL     1      -3.291   1.060   0.004  0.00  0.00    +0.000 HD
ENDROOT
TORSDOF 0
