MODEL 1
REMARK VINA RESULT:      -4.3      0.000      0.000
REMARK  Name = *****
REMARK  0 active torsions:
REMARK  status: ('A' for Active; 'I' for Inactive)
REMARK                            x       y       z     vdW  Elec       q    Type
REMARK                         _______ _______ _______ _____ _____    ______ ____
ROOT
ATOM      1  C   UNL     1     102.490 127.905  83.230  0.00  0.00    +0.000 A 
ATOM      2  C   UNL     1     101.809 126.844  82.629  0.00  0.00    +0.000 A 
ATOM      3  C   UNL     1     100.416 126.913  82.552  0.00  0.00    +0.000 A 
ATOM      4  C   UNL     1      99.690 127.992  83.053  0.00  0.00    +0.000 A 
ATOM      5  C   UNL     1      98.343 127.658  82.773  0.00  0.00    +0.000 A 
ATOM      6  N   UNL     1      98.219 126.481  82.156  0.00  0.00    +0.000 NA
ATOM      7  N   UNL     1      99.486 126.052  82.034  0.00  0.00    +0.000 N 
ATOM      8  C   UNL     1     100.393 129.049  83.656  0.00  0.00    +0.000 A 
ATOM      9  C   UNL     1     101.790 129.001  83.741  0.00  0.00    +0.000 A 
ATOM     10 CL   UNL     1     102.701 130.274  84.471  0.00  0.00    +0.000 Cl
ATOM     11 CL   UNL     1      99.422 130.332  84.242  0.00  0.00    +0.000 Cl
ATOM     12 CL   UNL     1     102.666 125.496  82.000  0.00  0.00    +0.000 Cl
ATOM     13  H   UNL     1      99.724 125.196  81.610  0.00  0.00    +0.000 HD
ENDROOT
TORSDOF 0
ENDMDL
