MODEL 1
REMARK VINA RESULT:      -4.3      0.000      0.000
REMARK  Name = *****
REMARK  0 active torsions:
REMARK  status: ('A' for Active; 'I' for Inactive)
REMARK                            x       y       z     vdW  Elec       q    Type
REMARK                         _______ _______ _______ _____ _____    ______ ____
ROOT
ATOM      1  C   UNL     1      99.358 129.307  83.572  0.00  0.00    +0.000 C 
ATOM      2  C   UNL     1      99.854 128.177  83.060  0.00  0.00    +0.000 C 
ATOM      3  C   UNL     1     101.244 127.733  83.002  0.00  0.00    +0.000 A 
ATOM      4  C   UNL     1     101.217 126.485  82.366  0.00  0.00    +0.000 A 
ATOM      5  C   UNL     1     102.362 125.751  82.129  0.00  0.00    +0.000 A 
ATOM      6  C   UNL     1     103.574 126.305  82.553  0.00  0.00    +0.000 A 
ATOM      7  C   UNL     1     103.606 127.558  83.193  0.00  0.00    +0.000 A 
ATOM      8  C   UNL     1     102.436 128.289  83.425  0.00  0.00    +0.000 A 
ATOM      9 CL   UNL     1     105.119 128.206  83.701  0.00  0.00    +0.000 Cl
ATOM     10  N   UNL     1      99.911 126.133  82.031  0.00  0.00    +0.000 N 
ATOM     11  C   UNL     1      99.008 127.111  82.419  0.00  0.00    +0.000 C 
ATOM     12  O   UNL     1      97.801 127.110  82.274  0.00  0.00    +0.000 OA
ATOM     13  H   UNL     1      99.662 125.295  81.578  0.00  0.00    +0.000 HD
ENDROOT
TORSDOF 0
ENDMDL
