REMARK  Name = *****
REMARK  4 active torsions:
REMARK  status: ('A' for Active; 'I' for Inactive)
REMARK    1  A    between atoms: C_1  and  C_2
REMARK    2  A    between atoms: C_8  and  C_13
REMARK    3  A    between atoms: C_9  and  C_12
REMARK    4  A    between atoms: C_10  and  C_11
REMARK                            x       y       z     vdW  Elec       q    Type
REMARK                         _______ _______ _______ _____ _____    ______ ____
ROOT
ATOM      1  C   UNL     1       0.910  -0.135   0.031  0.00  0.00    +0.000 C 
ATOM      2  C   UNL     1       2.409  -0.063   0.032  0.00  0.00    +0.000 C 
ATOM      3  C   UNL     1       3.067   1.175   0.030  0.00  0.00    +0.000 C 
ATOM      4  C   UNL     1       4.454   1.190   0.030  0.00  0.00    +0.000 C 
ATOM      5  C   UNL     1       5.205   0.003   0.031  0.00  0.00    +0.000 C 
ATOM      6  C   UNL     1       4.564  -1.226   0.033  0.00  0.00    +0.000 C 
ATOM      7  C   UNL     1       3.164  -1.254   0.033  0.00  0.00    +0.000 C 
ATOM      8  C   UNL     1       6.643   0.329   0.029  0.00  0.00    +0.000 C 
ATOM      9  C   UNL     1       6.764   1.676   0.026  0.00  0.00    +0.000 C 
ATOM     10  C   UNL     1       5.432   2.280   0.027  0.00  0.00    +0.000 C 
ATOM     11  C   UNL     1       5.139   3.585   0.027  0.00  0.00    +0.000 C 
ATOM     12  C   UNL     1       8.021   2.476   0.021  0.00  0.00    +0.000 C 
ATOM     13  C   UNL     1       7.731  -0.683   0.029  0.00  0.00    +0.000 C 
ENDROOT
TORSDOF 0
