REMARK  Name = *****
REMARK  2 active torsions:
REMARK  status: ('A' for Active; 'I' for Inactive)
REMARK    1  A    between atoms: C_1  and  O_2
REMARK    2  A    between atoms: O_2  and  C_3
REMARK                            x       y       z     vdW  Elec       q    Type
REMARK                         _______ _______ _______ _____ _____    ______ ____
ROOT
ATOM      1  C   UNL     1       3.073  -1.131   0.139  0.00  0.00    +0.000 A 
ATOM      2  C   UNL     1       4.164  -1.121   1.014  0.00  0.00    +0.000 A 
ATOM      3  C   UNL     1       4.910  -2.284   1.263  0.00  0.00    +0.000 A 
ATOM      4  C   UNL     1       4.547  -3.487   0.613  0.00  0.00    +0.000 A 
ATOM      5  C   UNL     1       3.452  -3.487  -0.264  0.00  0.00    +0.000 A 
ATOM      6  C   UNL     1       2.720  -2.318  -0.499  0.00  0.00    +0.000 A 
ATOM      7  C   UNL     1       5.289  -4.652   0.859  0.00  0.00    +0.000 A 
ATOM      8  C   UNL     1       6.369  -4.619   1.734  0.00  0.00    +0.000 A 
ATOM      9  C   UNL     1       6.735  -3.445   2.377  0.00  0.00    +0.000 A 
ATOM     10  C   UNL     1       6.007  -2.278   2.142  0.00  0.00    +0.000 A 
ATOM     11  F   UNL     1       7.068  -5.739   1.959  0.00  0.00    +0.000 F 
ENDROOT
BRANCH   1  13
ATOM     12  C   UNL     1       1.320   0.118  -0.873  0.00  0.00    +0.000 C 
ATOM     13  O   UNL     1       2.444   0.075  -0.002  0.00  0.00    +0.000 OA
ENDBRANCH   1  13
TORSDOF 1
