MODEL 1
REMARK VINA RESULT:      -4.0      0.000      0.000
REMARK  Name = *****
REMARK  0 active torsions:
REMARK  status: ('A' for Active; 'I' for Inactive)
REMARK                            x       y       z     vdW  Elec       q    Type
REMARK                         _______ _______ _______ _____ _____    ______ ____
ROOT
ATOM      1  C   UNL     1     104.465 126.985  82.335  0.00  0.00    +0.000 A 
ATOM      2  C   UNL     1     103.530 127.862  82.891  0.00  0.00    +0.000 A 
ATOM      3  C   UNL     1     102.163 127.600  82.784  0.00  0.00    +0.000 A 
ATOM      4  C   UNL     1     101.745 126.439  82.108  0.00  0.00    +0.000 A 
ATOM      5  C   UNL     1     102.671 125.558  81.549  0.00  0.00    +0.000 A 
ATOM      6  C   UNL     1     104.032 125.840  81.668  0.00  0.00    +0.000 A 
ATOM      7 CL   UNL     1     105.186 124.763  80.985  0.00  0.00    +0.000 Cl
ATOM      8  N   UNL     1     100.377 126.169  81.998  0.00  0.00    +0.000 N 
ATOM      9  C   UNL     1      99.431 127.012  82.536  0.00  0.00    +0.000 A 
ATOM     10  O   UNL     1      98.232 126.793  82.452  0.00  0.00    +0.000 OA
ATOM     11  C   UNL     1      99.990 128.244  83.249  0.00  0.00    +0.000 A 
ATOM     12  N   UNL     1     101.257 128.508  83.358  0.00  0.00    +0.000 NA
ATOM     13 CL   UNL     1      98.858 129.326  83.933  0.00  0.00    +0.000 Cl
ATOM     14  H   UNL     1     100.084 125.357  81.525  0.00  0.00    +0.000 HD
ENDROOT
TORSDOF 0
ENDMDL
