MODEL 1
REMARK VINA RESULT:      -4.4      0.000      0.000
REMARK  Name = *****
REMARK  1 active torsions:
REMARK  status: ('A' for Active; 'I' for Inactive)
REMARK    1  A    between atoms: C_6  and  C_7
REMARK                            x       y       z     vdW  Elec       q    Type
REMARK                         _______ _______ _______ _____ _____    ______ ____
ROOT
ATOM      1  C   UNL     1     103.644 127.756  82.519  0.00  0.00    +0.000 A 
ATOM      2  C   UNL     1     103.247 128.785  83.397  0.00  0.00    +0.000 A 
ATOM      3  C   UNL     1     101.904 128.940  83.761  0.00  0.00    +0.000 A 
ATOM      4  C   UNL     1     100.990 128.054  83.229  0.00  0.00    +0.000 A 
ATOM      5  C   UNL     1     101.375 127.030  82.357  0.00  0.00    +0.000 A 
ATOM      6  C   UNL     1     102.702 126.863  81.988  0.00  0.00    +0.000 A 
ATOM      7  N   UNL     1     100.274 126.267  81.958  0.00  0.00    +0.000 N 
ATOM      8  C   UNL     1      99.110 126.731  82.531  0.00  0.00    +0.000 C 
ATOM      9  O   UNL     1      97.988 126.300  82.395  0.00  0.00    +0.000 OA
ATOM     10  C   UNL     1      99.536 127.940  83.403  0.00  0.00    +0.000 C 
ATOM     11  O   UNL     1      98.805 128.628  84.074  0.00  0.00    +0.000 OA
ATOM     12 CL   UNL     1     101.469 130.206  84.833  0.00  0.00    +0.000 Cl
ATOM     13  H   UNL     1     100.323 125.498  81.345  0.00  0.00    +0.000 HD
ENDROOT
BRANCH   6  14
ATOM     14  C   UNL     1     103.111 125.821  81.097  0.00  0.00    +0.000 C 
ATOM     15  N   UNL     1     103.458 124.987  80.370  0.00  0.00    +0.000 NA
ENDBRANCH   6  14
TORSDOF 1
ENDMDL
