MODEL 1
REMARK VINA RESULT:      -4.2      0.000      0.000
REMARK  Name = *****
REMARK  2 active torsions:
REMARK  status: ('A' for Active; 'I' for Inactive)
REMARK    1  A    between atoms: C_7  and  N_11
REMARK    2  A    between atoms: C_8  and  O_10
REMARK                            x       y       z     vdW  Elec       q    Type
REMARK                         _______ _______ _______ _____ _____    ______ ____
ROOT
ATOM      1  C   UNL     1     101.803 128.822  83.687  0.00  0.00    +0.000 A 
ATOM      2  C   UNL     1     103.137 128.706  83.281  0.00  0.00    +0.000 A 
ATOM      3  C   UNL     1     103.545 127.703  82.408  0.00  0.00    +0.000 A 
ATOM      4  C   UNL     1     102.618 126.783  81.917  0.00  0.00    +0.000 A 
ATOM      5  C   UNL     1     101.283 126.896  82.323  0.00  0.00    +0.000 A 
ATOM      6  C   UNL     1     100.851 127.899  83.200  0.00  0.00    +0.000 A 
ATOM      7  C   UNL     1      99.453 127.702  83.381  0.00  0.00    +0.000 A 
ATOM      8  C   UNL     1      99.063 126.611  82.632  0.00  0.00    +0.000 A 
ATOM      9  N   UNL     1     100.180 126.136  81.998  0.00  0.00    +0.000 N 
ATOM     10 CL   UNL     1     103.112 125.539  80.839  0.00  0.00    +0.000 Cl
ATOM     11 CL   UNL     1     104.296 129.832  83.875  0.00  0.00    +0.000 Cl
ATOM     12  H   UNL     1     100.193 125.359  81.394  0.00  0.00    +0.000 HD
ENDROOT
BRANCH   8  13
ATOM     13  O   UNL     1      97.896 126.005  82.441  0.00  0.00    +0.000 OA
ATOM     14  H   UNL     1      97.482 125.552  83.148  0.00  0.00    +0.000 HD
ENDBRANCH   8  13
BRANCH   7  15
ATOM     15  N   UNL     1      98.644 128.506  84.195  0.00  0.00    +0.000 NA
ATOM     16  O   UNL     1      97.703 127.922  84.747  0.00  0.00    +0.000 OA
ENDBRANCH   7  15
TORSDOF 2
ENDMDL
