MODEL 1
REMARK VINA RESULT:      -3.9      0.000      0.000
REMARK  Name = *****
REMARK  3 active torsions:
REMARK  status: ('A' for Active; 'I' for Inactive)
REMARK    1  A    between atoms: C_1  and  O_2
REMARK    2  A    between atoms: O_2  and  C_3
REMARK    3  A    between atoms: C_13  and  S_14
REMARK                            x       y       z     vdW  Elec       q    Type
REMARK                         _______ _______ _______ _____ _____    ______ ____
ROOT
ATOM      1  C   UNL     1     102.635 126.098  81.979  0.00  0.00    +0.000 A 
ATOM      2  C   UNL     1     103.336 124.908  81.734  0.00  0.00    +0.000 A 
ATOM      3  C   UNL     1     104.352 124.837  80.766  0.00  0.00    +0.000 A 
ATOM      4  C   UNL     1     104.644 126.007  80.046  0.00  0.00    +0.000 A 
ATOM      5  C   UNL     1     103.954 127.198  80.282  0.00  0.00    +0.000 A 
ATOM      6  C   UNL     1     102.949 127.242  81.249  0.00  0.00    +0.000 A 
ATOM      7  N   UNL     1     105.647 125.995  79.068  0.00  0.00    +0.000 N 
ATOM      8  C   UNL     1     106.387 124.889  78.752  0.00  0.00    +0.000 A 
ATOM      9  S   UNL     1     107.556 125.004  77.562  0.00  0.00    +0.000 S 
ATOM     10  C   UNL     1     106.086 123.649  79.507  0.00  0.00    +0.000 A 
ATOM     11  C   UNL     1     105.132 123.617  80.453  0.00  0.00    +0.000 A 
ATOM     12  H   UNL     1     105.830 126.831  78.580  0.00  0.00    +0.000 HD
ENDROOT
BRANCH   1  14
ATOM     13  C   UNL     1     100.435 126.648  82.699  0.00  0.00    +0.000 C 
ATOM     14  O   UNL     1     101.677 126.005  82.951  0.00  0.00    +0.000 OA
ENDBRANCH   1  14
BRANCH  11  15
ATOM     15  S   UNL     1     104.808 122.145  81.316  0.00  0.00    +0.000 S 
ATOM     16  H   UNL     1     103.480 122.069  81.601  0.00  0.00    +0.000 HD
ENDBRANCH  11  15
TORSDOF 2
ENDMDL
