MODEL 1
REMARK VINA RESULT:      -2.7      0.000      0.000
REMARK  Name = *****
REMARK  1 active torsions:
REMARK  status: ('A' for Active; 'I' for Inactive)
REMARK    1  A    between atoms: C_1  and  C_2
REMARK                            x       y       z     vdW  Elec       q    Type
REMARK                         _______ _______ _______ _____ _____    ______ ____
ROOT
ATOM      1  C   UNL     1      88.506  63.789  89.424  0.00  0.00    +0.000 C 
ATOM      2  C   UNL     1      87.433  63.945  88.347  0.00  0.00    +0.000 C 
ATOM      3  C   UNL     1      87.886  63.601  86.932  0.00  0.00    +0.000 C 
ATOM      4  S   UNL     1      89.296  64.569  86.347  0.00  0.00    +0.000 S 
ATOM      5  C   UNL     1      88.838  66.197  86.740  0.00  0.00    +0.000 A 
ATOM      6  C   UNL     1      87.838  66.597  87.549  0.00  0.00    +0.000 A 
ATOM      7  S   UNL     1      86.695  65.602  88.400  0.00  0.00    +0.000 S 
ATOM      8  S   UNL     1      87.642  68.327  87.752  0.00  0.00    +0.000 S 
ATOM      9  C   UNL     1      88.977  68.819  86.733  0.00  0.00    +0.000 A 
ATOM     10  S   UNL     1      89.401  70.409  86.471  0.00  0.00    +0.000 S 
ATOM     11  S   UNL     1      89.819  67.461  86.023  0.00  0.00    +0.000 S 
ENDROOT
TORSDOF 0
ENDMDL
