MODEL 1
REMARK VINA RESULT:      -4.5      0.000      0.000
REMARK  Name = *****
REMARK  4 active torsions:
REMARK  status: ('A' for Active; 'I' for Inactive)
REMARK    1  A    between atoms: C_1  and  C_2
REMARK    2  A    between atoms: C_3  and  C_13
REMARK    3  A    between atoms: C_4  and  C_12
REMARK    4  A    between atoms: C_8  and  C_11
REMARK                            x       y       z     vdW  Elec       q    Type
REMARK                         _______ _______ _______ _____ _____    ______ ____
ROOT
ATOM      1  C   UNL     1      87.285  69.691  85.027  0.00  0.00    +0.000 C 
ATOM      2  C   UNL     1      87.545  70.869  85.958  0.00  0.00    +0.000 C 
ATOM      3  C   UNL     1      88.215  70.465  87.269  0.00  0.00    +0.000 C 
ATOM      4  C   UNL     1      87.468  70.781  88.347  0.00  0.00    +0.000 C 
ATOM      5  C   UNL     1      86.243  71.424  87.866  0.00  0.00    +0.000 A 
ATOM      6  C   UNL     1      86.271  71.487  86.468  0.00  0.00    +0.000 A 
ATOM      7  C   UNL     1      85.232  72.064  85.749  0.00  0.00    +0.000 A 
ATOM      8  C   UNL     1      84.140  72.592  86.451  0.00  0.00    +0.000 A 
ATOM      9  C   UNL     1      84.108  72.508  87.857  0.00  0.00    +0.000 A 
ATOM     10  C   UNL     1      85.163  71.930  88.571  0.00  0.00    +0.000 A 
ATOM     11  C   UNL     1      82.980  73.190  85.708  0.00  0.00    +0.000 C 
ATOM     12  C   UNL     1      87.731  70.577  89.795  0.00  0.00    +0.000 C 
ATOM     13  C   UNL     1      89.565  69.835  87.241  0.00  0.00    +0.000 C 
ENDROOT
TORSDOF 0
ENDMDL
