REMARK  Name = *****
REMARK  2 active torsions:
REMARK  status: ('A' for Active; 'I' for Inactive)
REMARK    1  A    between atoms: C_1  and  O_2
REMARK    2  A    between atoms: O_2  and  C_3
REMARK                            x       y       z     vdW  Elec       q    Type
REMARK                         _______ _______ _______ _____ _____    ______ ____
ROOT
ATOM      1  C   UNL     1       3.085  -1.248   0.671  0.00  0.00    +0.000 A 
ATOM      2  C   UNL     1       3.999  -0.443   1.378  0.00  0.00    +0.000 A 
ATOM      3  C   UNL     1       4.611  -1.000   2.483  0.00  0.00    +0.000 A 
ATOM      4  C   UNL     1       4.362  -2.315   2.879  0.00  0.00    +0.000 A 
ATOM      5  C   UNL     1       3.488  -3.133   2.177  0.00  0.00    +0.000 A 
ATOM      6  C   UNL     1       2.848  -2.595   1.050  0.00  0.00    +0.000 A 
ATOM      7 CL   UNL     1       1.771  -3.570   0.100  0.00  0.00    +0.000 Cl
ATOM      8 CL   UNL     1       3.239  -4.754   2.716  0.00  0.00    +0.000 Cl
ATOM      9  N   UNL     1       5.100  -2.650   4.018  0.00  0.00    +0.000 N 
ATOM     10  C   UNL     1       5.876  -1.595   4.442  0.00  0.00    +0.000 C 
ATOM     11  O   UNL     1       6.628  -1.552   5.388  0.00  0.00    +0.000 OA
ATOM     12  C   UNL     1       5.582  -0.448   3.441  0.00  0.00    +0.000 C 
ATOM     13  O   UNL     1       6.056   0.662   3.472  0.00  0.00    +0.000 OA
ATOM     14 CL   UNL     1       4.352   1.163   0.870  0.00  0.00    +0.000 Cl
ATOM     15  H   UNL     1       5.070  -3.529   4.460  0.00  0.00    +0.000 HD
ENDROOT
BRANCH   1  17
ATOM     16  C   UNL     1       1.249  -0.108  -0.156  0.00  0.00    +0.000 C 
ATOM     17  O   UNL     1       2.487  -0.753  -0.467  0.00  0.00    +0.000 OA
ENDBRANCH   1  17
TORSDOF 1
