MODEL 1
REMARK VINA RESULT:      -4.1      0.000      0.000
REMARK  Name = *****
REMARK  4 active torsions:
REMARK  status: ('A' for Active; 'I' for Inactive)
REMARK    1  A    between atoms: C_1  and  C_2
REMARK    2  A    between atoms: C_9  and  O_13
REMARK    3  A    between atoms: C_10  and  C_12
REMARK    4  A    between atoms: O_13  and  C_14
REMARK                            x       y       z     vdW  Elec       q    Type
REMARK                         _______ _______ _______ _____ _____    ______ ____
ROOT
ATOM      1  C   UNL     1     103.873 124.418  81.610  0.00  0.00    +0.000 C 
ATOM      2  C   UNL     1     103.343 125.628  80.827  0.00  0.00    +0.000 C 
ATOM      3  C   UNL     1     104.468 126.318  80.040  0.00  0.00    +0.000 C 
ATOM      4  C   UNL     1     105.345 127.173  80.947  0.00  0.00    +0.000 C 
ATOM      5  C   UNL     1     104.520 128.281  81.596  0.00  0.00    +0.000 C 
ATOM      6  C   UNL     1     103.201 127.807  82.155  0.00  0.00    +0.000 A 
ATOM      7  C   UNL     1     102.623 126.587  81.758  0.00  0.00    +0.000 A 
ATOM      8  C   UNL     1     101.359 126.237  82.261  0.00  0.00    +0.000 A 
ATOM      9  C   UNL     1     100.679 127.089  83.133  0.00  0.00    +0.000 A 
ATOM     10  C   UNL     1     101.259 128.282  83.570  0.00  0.00    +0.000 A 
ATOM     11  C   UNL     1     102.509 128.643  83.049  0.00  0.00    +0.000 A 
ATOM     12  C   UNL     1     100.552 129.197  84.527  0.00  0.00    +0.000 C 
ENDROOT
BRANCH   9  13
ATOM     13  O   UNL     1      99.457 126.696  83.615  0.00  0.00    +0.000 OA
ATOM     14  C   UNL     1      98.478 126.772  82.579  0.00  0.00    +0.000 C 
ENDBRANCH   9  13
TORSDOF 1
ENDMDL
