REMARK  Name = *****
REMARK  5 active torsions:
REMARK  status: ('A' for Active; 'I' for Inactive)
REMARK    1  A    between atoms: C_1  and  C_2
REMARK    2  A    between atoms: C_6  and  C_7
REMARK    3  A    between atoms: C_6  and  C_8
REMARK    4  A    between atoms: C_10  and  O_13
REMARK    5  A    between atoms: O_13  and  C_14
REMARK                            x       y       z     vdW  Elec       q    Type
REMARK                         _______ _______ _______ _____ _____    ______ ____
ROOT
ATOM      1  C   UNL     1       1.059  -0.011  -0.083  0.00  0.00    +0.000 C 
ATOM      2  C   UNL     1       2.552   0.012  -0.090  0.00  0.00    +0.000 C 
ATOM      3  C   UNL     1       3.352   1.093  -0.090  0.00  0.00    +0.000 C 
ATOM      4  C   UNL     1       4.741   0.660  -0.098  0.00  0.00    +0.000 A 
ATOM      5  C   UNL     1       4.776  -0.739  -0.102  0.00  0.00    +0.000 A 
ATOM      6  C   UNL     1       3.364  -1.291  -0.097  0.00  0.00    +0.000 C 
ATOM      7  C   UNL     1       3.111  -2.127   1.163  0.00  0.00    +0.000 C 
ATOM      8  C   UNL     1       3.101  -2.118  -1.362  0.00  0.00    +0.000 C 
ATOM      9  C   UNL     1       5.985  -1.423  -0.109  0.00  0.00    +0.000 A 
ATOM     10  C   UNL     1       7.179  -0.694  -0.114  0.00  0.00    +0.000 A 
ATOM     11  C   UNL     1       7.141   0.709  -0.110  0.00  0.00    +0.000 A 
ATOM     12  C   UNL     1       5.918   1.393  -0.101  0.00  0.00    +0.000 A 
ATOM     13 CL   UNL     1       2.889   2.725  -0.083  0.00  0.00    +0.000 Cl
ENDROOT
BRANCH  10  14
ATOM     14  O   UNL     1       8.311  -1.464  -0.122  0.00  0.00    +0.000 OA
ATOM     15  C   UNL     1       9.557  -0.777  -0.132  0.00  0.00    +0.000 C 
ENDBRANCH  10  14
TORSDOF 1
