REMARK  Name = *****
REMARK  0 active torsions:
REMARK  status: ('A' for Active; 'I' for Inactive)
REMARK                            x       y       z     vdW  Elec       q    Type
REMARK                         _______ _______ _______ _____ _____    ______ ____
ROOT
ATOM      1  C   UNL     1       1.987   1.101   0.003  0.00  0.00    +0.000 A 
ATOM      2  C   UNL     1       0.662   1.550   0.006  0.00  0.00    +0.000 A 
ATOM      3  C   UNL     1      -0.344   0.599  -0.004  0.00  0.00    +0.000 A 
ATOM      4  C   UNL     1      -0.063  -0.769  -0.017  0.00  0.00    +0.000 A 
ATOM      5  C   UNL     1       1.251  -1.224  -0.020  0.00  0.00    +0.000 A 
ATOM      6  C   UNL     1       2.274  -0.274  -0.009  0.00  0.00    +0.000 A 
ATOM      7 CL   UNL     1       3.914  -0.796  -0.011  0.00  0.00    +0.000 Cl
ATOM      8  C   UNL     1      -1.355  -1.538  -0.026  0.00  0.00    +0.000 C 
ATOM      9  C   UNL     1      -2.430  -0.427  -0.015  0.00  0.00    +0.000 C 
ATOM     10  O   UNL     1      -3.645  -0.578  -0.016  0.00  0.00    +0.000 OA
ATOM     11  N   UNL     1      -1.725   0.788  -0.003  0.00  0.00    +0.000 N 
ATOM     12 CL   UNL     1      -2.491   2.280   0.013  0.00  0.00    +0.000 Cl
ATOM     13 CL   UNL     1      -1.518  -2.494  -1.506  0.00  0.00    +0.000 Cl
ATOM     14 CL   UNL     1      -1.520  -2.528   1.430  0.00  0.00    +0.000 Cl
ENDROOT
TORSDOF 0
