MODEL 1
REMARK VINA RESULT:      -4.1      0.000      0.000
REMARK  Name = *****
REMARK  0 active torsions:
REMARK  status: ('A' for Active; 'I' for Inactive)
REMARK                            x       y       z     vdW  Elec       q    Type
REMARK                         _______ _______ _______ _____ _____    ______ ____
ROOT
ATOM      1  C   UNL     1     101.921 128.621  83.481  0.00  0.00    +0.000 A 
ATOM      2  C   UNL     1     100.850 127.854  83.070  0.00  0.00    +0.000 A 
ATOM      3  C   UNL     1     101.003 126.678  82.340  0.00  0.00    +0.000 A 
ATOM      4  C   UNL     1     102.252 126.213  81.989  0.00  0.00    +0.000 A 
ATOM      5  C   UNL     1     103.362 126.970  82.393  0.00  0.00    +0.000 A 
ATOM      6  C   UNL     1     103.198 128.167  83.135  0.00  0.00    +0.000 A 
ATOM      7 CL   UNL     1     104.545 129.120  83.645  0.00  0.00    +0.000 Cl
ATOM      8 CL   UNL     1     104.926 126.379  81.946  0.00  0.00    +0.000 Cl
ATOM      9  N   UNL     1      99.773 126.095  82.048  0.00  0.00    +0.000 N 
ATOM     10  C   UNL     1      98.733 126.847  82.563  0.00  0.00    +0.000 C 
ATOM     11  O   UNL     1      97.545 126.628  82.490  0.00  0.00    +0.000 OA
ATOM     12  C   UNL     1      99.413 128.054  83.268  0.00  0.00    +0.000 C 
ATOM     13  O   UNL     1      98.881 128.965  83.856  0.00  0.00    +0.000 OA
ATOM     14  H   UNL     1      99.659 125.258  81.542  0.00  0.00    +0.000 HD
ENDROOT
TORSDOF 0
ENDMDL
