MODEL 1
REMARK VINA RESULT:      -3.5      0.000      0.000
REMARK  Name = *****
REMARK  0 active torsions:
REMARK  status: ('A' for Active; 'I' for Inactive)
REMARK                            x       y       z     vdW  Elec       q    Type
REMARK                         _______ _______ _______ _____ _____    ______ ____
ROOT
ATOM      1  C   UNL     1      89.257  70.556  86.382  0.00  0.00    +0.000 A 
ATOM      2  C   UNL     1      89.650  69.357  86.984  0.00  0.00    +0.000 A 
ATOM      3  C   UNL     1      89.979  68.304  86.155  0.00  0.00    +0.000 A 
ATOM      4  C   UNL     1      89.927  68.412  84.795  0.00  0.00    +0.000 A 
ATOM      5  C   UNL     1      89.543  69.579  84.167  0.00  0.00    +0.000 A 
ATOM      6  C   UNL     1      89.205  70.661  84.981  0.00  0.00    +0.000 A 
ATOM      7 CL   UNL     1      88.717  72.145  84.260  0.00  0.00    +0.000 Cl
ATOM      8  O   UNL     1      90.292  67.255  84.185  0.00  0.00    +0.000 OA
ATOM      9  C   UNL     1      90.551  66.492  85.305  0.00  0.00    +0.000 A 
ATOM     10  S   UNL     1      91.054  64.923  85.163  0.00  0.00    +0.000 S 
ATOM     11  O   UNL     1      90.381  67.069  86.547  0.00  0.00    +0.000 OA
ENDROOT
TORSDOF 0
ENDMDL
