REMARK  Name = *****
REMARK  1 active torsions:
REMARK  status: ('A' for Active; 'I' for Inactive)
REMARK    1  A    between atoms: C_1  and  C_2
REMARK                            x       y       z     vdW  Elec       q    Type
REMARK                         _______ _______ _______ _____ _____    ______ ____
ROOT
ATOM      1  C   UNL     1       1.808   0.325   1.377  0.00  0.00    +0.000 C 
ATOM      2  C   UNL     1       2.236  -0.031  -0.067  0.00  0.00    +0.000 C 
ATOM      3  C   UNL     1       1.012  -0.478  -0.879  0.00  0.00    +0.000 C 
ATOM      4  C   UNL     1       0.484  -1.839  -0.392  0.00  0.00    +0.000 C 
ATOM      5  C   UNL     1       1.573  -2.917  -0.284  0.00  0.00    +0.000 C 
ATOM      6  C   UNL     1       2.844  -2.448   0.440  0.00  0.00    +0.000 C 
ATOM      7  C   UNL     1       3.304  -1.135  -0.169  0.00  0.00    +0.000 C 
ATOM      8  C   UNL     1       4.560  -0.480   0.383  0.00  0.00    +0.000 C 
ATOM      9  C   UNL     1       4.451   0.975  -0.106  0.00  0.00    +0.000 C 
ATOM     10  C   UNL     1       3.020   1.151  -0.656  0.00  0.00    +0.000 C 
ENDROOT
TORSDOF 0
