MODEL 1
REMARK VINA RESULT:      -4.6      0.000      0.000
REMARK  Name = *****
REMARK  0 active torsions:
REMARK  status: ('A' for Active; 'I' for Inactive)
REMARK                            x       y       z     vdW  Elec       q    Type
REMARK                         _______ _______ _______ _____ _____    ______ ____
ROOT
ATOM      1  C   UNL     1      85.173  72.177  85.701  0.00  0.00    +0.000 A 
ATOM      2  C   UNL     1      86.333  71.608  85.168  0.00  0.00    +0.000 A 
ATOM      3  C   UNL     1      87.224  71.012  86.043  0.00  0.00    +0.000 A 
ATOM      4  C   UNL     1      86.981  70.988  87.427  0.00  0.00    +0.000 A 
ATOM      5  C   UNL     1      85.839  71.559  87.966  0.00  0.00    +0.000 A 
ATOM      6  C   UNL     1      84.933  72.152  87.087  0.00  0.00    +0.000 A 
ATOM      7 CL   UNL     1      83.497  72.870  87.708  0.00  0.00    +0.000 Cl
ATOM      8  C   UNL     1      88.134  70.315  88.123  0.00  0.00    +0.000 C 
ATOM      9  C   UNL     1      88.687  69.441  86.987  0.00  0.00    +0.000 C 
ATOM     10  C   UNL     1      88.552  70.355  85.763  0.00  0.00    +0.000 C 
ATOM     11  F   UNL     1      89.558  71.270  85.729  0.00  0.00    +0.000 F 
ATOM     12  F   UNL     1      88.618  69.663  84.600  0.00  0.00    +0.000 F 
ATOM     13  F   UNL     1      89.945  68.999  87.202  0.00  0.00    +0.000 F 
ATOM     14  F   UNL     1      87.907  68.328  86.830  0.00  0.00    +0.000 F 
ATOM     15  F   UNL     1      89.062  71.221  88.529  0.00  0.00    +0.000 F 
ATOM     16  F   UNL     1      87.802  69.583  89.213  0.00  0.00    +0.000 F 
ENDROOT
TORSDOF 0
ENDMDL
