REMARK  Name = *****
REMARK  1 active torsions:
REMARK  status: ('A' for Active; 'I' for Inactive)
REMARK    1  A    between atoms: C_9  and  C_11
REMARK                            x       y       z     vdW  Elec       q    Type
REMARK                         _______ _______ _______ _____ _____    ______ ____
ROOT
ATOM      1  C   UNL     1      -0.942  -1.377   0.007  0.00  0.00    +0.000 A 
ATOM      2  C   UNL     1       0.416  -1.726   0.000  0.00  0.00    +0.000 A 
ATOM      3  C   UNL     1       1.373  -0.702  -0.011  0.00  0.00    +0.000 A 
ATOM      4  C   UNL     1       0.956   0.623  -0.014  0.00  0.00    +0.000 A 
ATOM      5  C   UNL     1      -0.389   1.003  -0.007  0.00  0.00    +0.000 A 
ATOM      6  C   UNL     1      -1.329  -0.035   0.004  0.00  0.00    +0.000 A 
ATOM      7 CL   UNL     1      -3.006   0.359   0.012  0.00  0.00    +0.000 Cl
ATOM      8  N   UNL     1       2.120   1.345  -0.025  0.00  0.00    +0.000 N 
ATOM      9  C   UNL     1       3.188   0.469  -0.030  0.00  0.00    +0.000 A 
ATOM     10  N   UNL     1       2.742  -0.779  -0.020  0.00  0.00    +0.000 NA
ATOM     11  H   UNL     1       2.185   2.327  -0.029  0.00  0.00    +0.000 HD
ENDROOT
BRANCH   9  12
ATOM     12  C   UNL     1       4.626   0.927  -0.046  0.00  0.00    +0.000 C 
ATOM     13 CL   UNL     1       4.745   2.724  -0.053  0.00  0.00    +0.000 Cl
ATOM     14 CL   UNL     1       5.471   0.326   1.409  0.00  0.00    +0.000 Cl
ATOM     15 CL   UNL     1       5.441   0.316  -1.514  0.00  0.00    +0.000 Cl
ENDBRANCH   9  12
TORSDOF 1
