REMARK  Name = *****
REMARK  4 active torsions:
REMARK  status: ('A' for Active; 'I' for Inactive)
REMARK    1  A    between atoms: C_1  and  C_2
REMARK    2  A    between atoms: C_3  and  C_12
REMARK    3  A    between atoms: C_12  and  O_14
REMARK    4  A    between atoms: O_14  and  C_15
REMARK                            x       y       z     vdW  Elec       q    Type
REMARK                         _______ _______ _______ _____ _____    ______ ____
ROOT
ATOM      1  C   UNL     1       1.047  -0.083   0.051  0.00  0.00    +0.000 C 
ATOM      2  C   UNL     1       2.536  -0.013   0.052  0.00  0.00    +0.000 A 
ATOM      3  C   UNL     1       3.340   1.125   0.053  0.00  0.00    +0.000 A 
ATOM      4  N   UNL     1       4.647   0.685   0.054  0.00  0.00    +0.000 N 
ATOM      5  C   UNL     1       4.716  -0.684   0.053  0.00  0.00    +0.000 A 
ATOM      6  C   UNL     1       3.406  -1.154   0.052  0.00  0.00    +0.000 A 
ATOM      7  C   UNL     1       3.191  -2.548   0.051  0.00  0.00    +0.000 A 
ATOM      8  C   UNL     1       4.290  -3.416   0.052  0.00  0.00    +0.000 A 
ATOM      9  C   UNL     1       5.586  -2.909   0.053  0.00  0.00    +0.000 A 
ATOM     10  C   UNL     1       5.830  -1.533   0.054  0.00  0.00    +0.000 A 
ATOM     11 CL   UNL     1       6.922  -3.998   0.054  0.00  0.00    +0.000 Cl
ATOM     12  H   UNL     1       5.432   1.280   0.055  0.00  0.00    +0.000 HD
ENDROOT
BRANCH   3  13
ATOM     13  C   UNL     1       2.981   2.527   0.054  0.00  0.00    +0.000 C 
ATOM     14  O   UNL     1       1.848   2.988   0.053  0.00  0.00    +0.000 OA
BRANCH  13  15
ATOM     15  O   UNL     1       4.121   3.282   0.057  0.00  0.00    +0.000 OA
ATOM     16  C   UNL     1       3.879   4.690   0.059  0.00  0.00    +0.000 C 
ENDBRANCH  13  15
ENDBRANCH   3  13
TORSDOF 2
