MODEL 1
REMARK VINA RESULT:      -4.0      0.000      0.000
REMARK  Name = *****
REMARK  2 active torsions:
REMARK  status: ('A' for Active; 'I' for Inactive)
REMARK    1  A    between atoms: C_6  and  O_11
REMARK    2  A    between atoms: O_11  and  C_12
REMARK                            x       y       z     vdW  Elec       q    Type
REMARK                         _______ _______ _______ _____ _____    ______ ____
ROOT
ATOM      1  C   UNL     1      84.474  72.344  87.870  0.00  0.00    +0.000 A 
ATOM      2  C   UNL     1      84.514  72.320  86.479  0.00  0.00    +0.000 A 
ATOM      3  C   UNL     1      85.618  71.773  85.823  0.00  0.00    +0.000 A 
ATOM      4  C   UNL     1      86.696  71.244  86.550  0.00  0.00    +0.000 A 
ATOM      5  C   UNL     1      87.813  70.687  85.906  0.00  0.00    +0.000 A 
ATOM      6  C   UNL     1      88.883  70.157  86.635  0.00  0.00    +0.000 A 
ATOM      7  C   UNL     1      88.842  70.187  88.027  0.00  0.00    +0.000 A 
ATOM      8  C   UNL     1      87.736  70.739  88.685  0.00  0.00    +0.000 A 
ATOM      9  C   UNL     1      86.656  71.269  87.961  0.00  0.00    +0.000 A 
ATOM     10  C   UNL     1      85.539  71.823  88.607  0.00  0.00    +0.000 A 
ENDROOT
BRANCH   6  11
ATOM     11  O   UNL     1      89.895  69.648  85.869  0.00  0.00    +0.000 OA
BRANCH  11  12
ATOM     12  C   UNL     1      90.050  70.199  84.570  0.00  0.00    +0.000 C 
ATOM     13  F   UNL     1      90.925  71.235  84.687  0.00  0.00    +0.000 F 
ENDBRANCH  11  12
ENDBRANCH   6  11
TORSDOF 2
ENDMDL
