MODEL 1
REMARK VINA RESULT:      -2.9      0.000      0.000
REMARK  Name = *****
REMARK  0 active torsions:
REMARK  status: ('A' for Active; 'I' for Inactive)
REMARK                            x       y       z     vdW  Elec       q    Type
REMARK                         _______ _______ _______ _____ _____    ______ ____
ROOT
ATOM      1  C   UNL     1     106.412 121.615  81.184  0.00  0.00    +0.000 C 
ATOM      2  C   UNL     1     107.569 122.210  80.413  0.00  0.00    +0.000 C 
ATOM      3  O   UNL     1     108.529 121.511  80.079  0.00  0.00    +0.000 OA
ATOM      4  C   UNL     1     107.525 123.679  80.057  0.00  0.00    +0.000 C 
ATOM      5  S   UNL     1     105.932 124.109  79.336  0.00  0.00    +0.000 S 
ATOM      6  C   UNL     1     104.901 124.420  80.705  0.00  0.00    +0.000 A 
ATOM      7  C   UNL     1     104.910 123.855  81.931  0.00  0.00    +0.000 A 
ATOM      8  S   UNL     1     105.985 122.658  82.591  0.00  0.00    +0.000 S 
ATOM      9  S   UNL     1     103.691 124.434  83.060  0.00  0.00    +0.000 S 
ATOM     10  C   UNL     1     102.904 125.567  81.988  0.00  0.00    +0.000 A 
ATOM     11  S   UNL     1     101.594 126.497  82.425  0.00  0.00    +0.000 S 
ATOM     12  S   UNL     1     103.645 125.614  80.407  0.00  0.00    +0.000 S 
ENDROOT
TORSDOF 0
ENDMDL
