MODEL 1
REMARK VINA RESULT:      -4.1      0.000      0.000
REMARK  Name = *****
REMARK  0 active torsions:
REMARK  status: ('A' for Active; 'I' for Inactive)
REMARK                            x       y       z     vdW  Elec       q    Type
REMARK                         _______ _______ _______ _____ _____    ______ ____
ROOT
ATOM      1  C   UNL     1     102.097 126.052  81.991  0.00  0.00    +0.000 A 
ATOM      2  C   UNL     1     103.275 126.665  82.424  0.00  0.00    +0.000 A 
ATOM      3  C   UNL     1     103.246 127.819  83.231  0.00  0.00    +0.000 A 
ATOM      4  C   UNL     1     102.025 128.387  83.622  0.00  0.00    +0.000 A 
ATOM      5  C   UNL     1     100.863 127.773  83.190  0.00  0.00    +0.000 A 
ATOM      6  C   UNL     1     100.907 126.627  82.388  0.00  0.00    +0.000 A 
ATOM      7  N   UNL     1      99.634 126.170  82.065  0.00  0.00    +0.000 N 
ATOM      8  C   UNL     1      98.663 126.973  82.622  0.00  0.00    +0.000 C 
ATOM      9  O   UNL     1      97.461 126.858  82.538  0.00  0.00    +0.000 OA
ATOM     10  C   UNL     1      99.435 128.075  83.395  0.00  0.00    +0.000 C 
ATOM     11  O   UNL     1      98.936 128.977  84.024  0.00  0.00    +0.000 OA
ATOM     12  I   UNL     1     102.057 130.086  84.810  0.00  0.00    +0.000 I 
ATOM     13  I   UNL     1     105.110 125.858  81.864  0.00  0.00    +0.000 I 
ATOM     14  H   UNL     1      99.450 125.378  81.510  0.00  0.00    +0.000 HD
ENDROOT
TORSDOF 0
ENDMDL
