MODEL 1
REMARK VINA RESULT:      -2.6      0.000      0.000
REMARK  Name = *****
REMARK  0 active torsions:
REMARK  status: ('A' for Active; 'I' for Inactive)
REMARK                            x       y       z     vdW  Elec       q    Type
REMARK                         _______ _______ _______ _____ _____    ______ ____
ROOT
ATOM      1  C   UNL     1      89.871  64.641  83.618  0.00  0.00    +0.000 C 
ATOM      2  O   UNL     1      91.140  65.193  83.947  0.00  0.00    +0.000 OA
ATOM      3  C   UNL     1      91.331  65.526  85.318  0.00  0.00    +0.000 C 
ATOM      4  S   UNL     1      90.011  66.503  86.048  0.00  0.00    +0.000 S 
ATOM      5  C   UNL     1      88.846  65.311  86.550  0.00  0.00    +0.000 A 
ATOM      6  C   UNL     1      88.581  64.096  86.020  0.00  0.00    +0.000 A 
ATOM      7  S   UNL     1      89.338  63.290  84.676  0.00  0.00    +0.000 S 
ATOM      8  S   UNL     1      87.316  63.164  86.810  0.00  0.00    +0.000 S 
ATOM      9  C   UNL     1      86.892  64.340  88.029  0.00  0.00    +0.000 A 
ATOM     10  S   UNL     1      85.700  64.105  89.168  0.00  0.00    +0.000 S 
ATOM     11  S   UNL     1      87.857  65.793  87.923  0.00  0.00    +0.000 S 
ENDROOT
TORSDOF 0
ENDMDL
