MODEL 1
REMARK VINA RESULT:      -4.4      0.000      0.000
REMARK  Name = *****
REMARK  3 active torsions:
REMARK  status: ('A' for Active; 'I' for Inactive)
REMARK    1  A    between atoms: C_1  and  C_2
REMARK    2  A    between atoms: C_6  and  O_13
REMARK    3  A    between atoms: O_13  and  C_14
REMARK                            x       y       z     vdW  Elec       q    Type
REMARK                         _______ _______ _______ _____ _____    ______ ____
ROOT
ATOM      1  C   UNL     1     101.154 130.464  84.531  0.00  0.00    +0.000 C 
ATOM      2  C   UNL     1     100.559 129.275  83.823  0.00  0.00    +0.000 A 
ATOM      3  C   UNL     1     101.371 128.213  83.330  0.00  0.00    +0.000 A 
ATOM      4  C   UNL     1     102.777 128.185  83.459  0.00  0.00    +0.000 A 
ATOM      5  C   UNL     1     103.544 127.123  82.961  0.00  0.00    +0.000 A 
ATOM      6  C   UNL     1     102.925 126.058  82.317  0.00  0.00    +0.000 A 
ATOM      7  C   UNL     1     101.537 126.065  82.179  0.00  0.00    +0.000 A 
ATOM      8  C   UNL     1     100.752 127.123  82.675  0.00  0.00    +0.000 A 
ATOM      9  C   UNL     1      99.358 127.116  82.527  0.00  0.00    +0.000 A 
ATOM     10  C   UNL     1      98.566 128.150  83.009  0.00  0.00    +0.000 A 
ATOM     11  C   UNL     1      99.164 129.227  83.654  0.00  0.00    +0.000 A 
ATOM     12  F   UNL     1      98.751 126.089  81.908  0.00  0.00    +0.000 F 
ENDROOT
BRANCH   6  13
ATOM     13  O   UNL     1     103.550 124.964  81.786  0.00  0.00    +0.000 OA
ATOM     14  C   UNL     1     103.882 125.019  80.404  0.00  0.00    +0.000 C 
ENDBRANCH   6  13
TORSDOF 1
ENDMDL
