MODEL 1
REMARK VINA RESULT:      -3.9      0.000      0.000
REMARK  Name = *****
REMARK  0 active torsions:
REMARK  status: ('A' for Active; 'I' for Inactive)
REMARK                            x       y       z     vdW  Elec       q    Type
REMARK                         _______ _______ _______ _____ _____    ______ ____
ROOT
ATOM      1  C   UNL     1     103.917 127.454  82.311  0.00  0.00    +0.000 A 
ATOM      2  C   UNL     1     103.700 128.555  83.156  0.00  0.00    +0.000 A 
ATOM      3  C   UNL     1     102.408 128.876  83.588  0.00  0.00    +0.000 A 
ATOM      4  C   UNL     1     101.343 128.090  83.168  0.00  0.00    +0.000 A 
ATOM      5  C   UNL     1     101.566 126.997  82.328  0.00  0.00    +0.000 A 
ATOM      6  C   UNL     1     102.844 126.668  81.893  0.00  0.00    +0.000 A 
ATOM      7 CL   UNL     1     103.120 125.322  80.859  0.00  0.00    +0.000 Cl
ATOM      8  N   UNL     1     100.392 126.311  82.000  0.00  0.00    +0.000 N 
ATOM      9  C   UNL     1      99.233 126.808  82.541  0.00  0.00    +0.000 A 
ATOM     10  O   UNL     1      98.113 126.356  82.376  0.00  0.00    +0.000 OA
ATOM     11  S   UNL     1      99.606 128.224  83.530  0.00  0.00    +0.000 S 
ATOM     12 CL   UNL     1     102.190 130.234  84.623  0.00  0.00    +0.000 Cl
ATOM     13  H   UNL     1     100.398 125.519  81.415  0.00  0.00    +0.000 HD
ENDROOT
TORSDOF 0
ENDMDL
