REMARK  Name = *****
REMARK  0 active torsions:
REMARK  status: ('A' for Active; 'I' for Inactive)
REMARK                            x       y       z     vdW  Elec       q    Type
REMARK                         _______ _______ _______ _____ _____    ______ ____
ROOT
ATOM      1  C   UNL     1       2.106   0.718   0.000  0.00  0.00    +0.000 A 
ATOM      2  C   UNL     1       0.881   1.389  -0.000  0.00  0.00    +0.000 A 
ATOM      3  C   UNL     1      -0.294   0.622   0.000  0.00  0.00    +0.000 A 
ATOM      4  C   UNL     1      -0.294  -0.787   0.001  0.00  0.00    +0.000 A 
ATOM      5  C   UNL     1       0.973  -1.414   0.001  0.00  0.00    +0.000 A 
ATOM      6  C   UNL     1       2.157  -0.671   0.000  0.00  0.00    +0.000 A 
ATOM      7 CL   UNL     1       1.034  -3.122   0.001  0.00  0.00    +0.000 Cl
ATOM      8  C   UNL     1      -1.672  -1.190   0.001  0.00  0.00    +0.000 A 
ATOM      9  C   UNL     1      -2.423  -0.045   0.001  0.00  0.00    +0.000 A 
ATOM     10  N   UNL     1      -1.607   1.038   0.000  0.00  0.00    +0.000 N 
ATOM     11 CL   UNL     1      -4.098   0.242   0.001  0.00  0.00    +0.000 Cl
ATOM     12 CL   UNL     1      -2.285  -2.778   0.003  0.00  0.00    +0.000 Cl
ATOM     13  H   UNL     1      -1.906   1.976  -0.000  0.00  0.00    +0.000 HD
ENDROOT
TORSDOF 0
