MODEL 1
REMARK VINA RESULT:      -4.3      0.000      0.000
REMARK  Name = *****
REMARK  1 active torsions:
REMARK  status: ('A' for Active; 'I' for Inactive)
REMARK    1  A    between atoms: C_12  and  N_13
REMARK                            x       y       z     vdW  Elec       q    Type
REMARK                         _______ _______ _______ _____ _____    ______ ____
ROOT
ATOM      1  C   UNL     1      84.619  72.324  86.526  0.00  0.00    +0.000 A 
ATOM      2  C   UNL     1      85.073  72.183  85.221  0.00  0.00    +0.000 A 
ATOM      3  C   UNL     1      86.316  71.595  84.968  0.00  0.00    +0.000 A 
ATOM      4  C   UNL     1      87.136  71.146  86.019  0.00  0.00    +0.000 A 
ATOM      5  C   UNL     1      86.648  71.263  87.337  0.00  0.00    +0.000 A 
ATOM      6  C   UNL     1      85.401  71.860  87.581  0.00  0.00    +0.000 A 
ATOM      7  C   UNL     1      87.415  70.748  88.473  0.00  0.00    +0.000 C 
ATOM      8  C   UNL     1      88.536  70.042  88.301  0.00  0.00    +0.000 C 
ATOM      9  C   UNL     1      89.103  69.776  86.960  0.00  0.00    +0.000 C 
ATOM     10  O   UNL     1      90.029  68.981  86.861  0.00  0.00    +0.000 OA
ATOM     11  C   UNL     1      88.478  70.524  85.812  0.00  0.00    +0.000 C 
ATOM     12  C   UNL     1      89.163  70.683  84.658  0.00  0.00    +0.000 C 
ENDROOT
BRANCH  12  13
ATOM     13  N   UNL     1      90.385  70.212  84.406  0.00  0.00    +0.000 NA
ATOM     14  O   UNL     1      90.421  69.364  83.507  0.00  0.00    +0.000 OA
ENDBRANCH  12  13
TORSDOF 1
ENDMDL
