REMARK  Name = *****
REMARK  2 active torsions:
REMARK  status: ('A' for Active; 'I' for Inactive)
REMARK    1  A    between atoms: C_1  and  O_2
REMARK    2  A    between atoms: O_2  and  C_3
REMARK                            x       y       z     vdW  Elec       q    Type
REMARK                         _______ _______ _______ _____ _____    ______ ____
ROOT
ATOM      1  C   UNL     1       3.084   0.215  -1.110  0.00  0.00    +0.000 A 
ATOM      2  C   UNL     1       4.185  -0.610  -1.368  0.00  0.00    +0.000 A 
ATOM      3  C   UNL     1       4.930  -0.423  -2.548  0.00  0.00    +0.000 A 
ATOM      4  C   UNL     1       4.596   0.572  -3.473  0.00  0.00    +0.000 A 
ATOM      5  C   UNL     1       3.479   1.393  -3.191  0.00  0.00    +0.000 A 
ATOM      6  C   UNL     1       2.736   1.208  -2.017  0.00  0.00    +0.000 A 
ATOM      7  C   UNL     1       5.498   0.569  -4.591  0.00  0.00    +0.000 A 
ATOM      8  C   UNL     1       6.456  -0.402  -4.473  0.00  0.00    +0.000 A 
ATOM      9  S   UNL     1       6.313  -1.318  -3.062  0.00  0.00    +0.000 S 
ATOM     10 BR   UNL     1       7.796  -0.691  -5.750  0.00  0.00    +0.000 Br
ENDROOT
BRANCH   1  12
ATOM     11  C   UNL     1       1.309   0.741   0.386  0.00  0.00    +0.000 C 
ATOM     12  O   UNL     1       2.439  -0.061   0.066  0.00  0.00    +0.000 OA
ENDBRANCH   1  12
TORSDOF 1
