MODEL 1
REMARK VINA RESULT:      -4.1      0.000      0.000
REMARK  Name = *****
REMARK  4 active torsions:
REMARK  status: ('A' for Active; 'I' for Inactive)
REMARK    1  A    between atoms: C_1  and  C_2
REMARK    2  A    between atoms: C_3  and  C_14
REMARK    3  A    between atoms: C_4  and  C_13
REMARK    4  A    between atoms: C_7  and  C_8
REMARK                            x       y       z     vdW  Elec       q    Type
REMARK                         _______ _______ _______ _____ _____    ______ ____
ROOT
ATOM      1  C   UNL     1     101.507 130.585  84.787  0.00  0.00    +0.000 C 
ATOM      2  C   UNL     1     101.547 129.327  83.945  0.00  0.00    +0.000 A 
ATOM      3  C   UNL     1     100.324 128.615  83.670  0.00  0.00    +0.000 A 
ATOM      4  C   UNL     1     100.321 127.477  82.821  0.00  0.00    +0.000 A 
ATOM      5  C   UNL     1     101.553 127.052  82.364  0.00  0.00    +0.000 A 
ATOM      6  C   UNL     1     102.747 127.707  82.679  0.00  0.00    +0.000 A 
ATOM      7  C   UNL     1     102.793 128.838  83.473  0.00  0.00    +0.000 A 
ATOM      8  C   UNL     1     104.094 129.517  83.778  0.00  0.00    +0.000 C 
ATOM      9  N   UNL     1     103.789 127.013  82.056  0.00  0.00    +0.000 N 
ATOM     10  C   UNL     1     103.252 125.931  81.360  0.00  0.00    +0.000 A 
ATOM     11  S   UNL     1     104.093 124.826  80.473  0.00  0.00    +0.000 S 
ATOM     12  N   UNL     1     101.871 125.957  81.553  0.00  0.00    +0.000 N 
ATOM     13  C   UNL     1      99.067 126.736  82.467  0.00  0.00    +0.000 C 
ATOM     14  C   UNL     1      99.017 129.113  84.251  0.00  0.00    +0.000 C 
ATOM     15  H   UNL     1     104.744 127.251  82.100  0.00  0.00    +0.000 HD
ATOM     16  H   UNL     1     101.227 125.312  81.180  0.00  0.00    +0.000 HD
ENDROOT
TORSDOF 0
ENDMDL
