REMARK  Name = *****
REMARK  0 active torsions:
REMARK  status: ('A' for Active; 'I' for Inactive)
REMARK                            x       y       z     vdW  Elec       q    Type
REMARK                         _______ _______ _______ _____ _____    ______ ____
ROOT
ATOM      1  C   UNL     1      -2.227  -0.727  -0.002  0.00  0.00    +0.000 A 
ATOM      2  C   UNL     1      -2.245   0.671  -0.002  0.00  0.00    +0.000 A 
ATOM      3  C   UNL     1      -1.048   1.391  -0.001  0.00  0.00    +0.000 A 
ATOM      4  C   UNL     1       0.162   0.701  -0.000  0.00  0.00    +0.000 A 
ATOM      5  C   UNL     1       0.180  -0.694  -0.000  0.00  0.00    +0.000 A 
ATOM      6  C   UNL     1      -1.011  -1.415  -0.001  0.00  0.00    +0.000 A 
ATOM      7  S   UNL     1       1.782  -1.458   0.001  0.00  0.00    +0.000 S 
ATOM      8  C   UNL     1       2.722   0.037   0.001  0.00  0.00    +0.000 A 
ATOM      9  S   UNL     1       4.391   0.058   0.001  0.00  0.00    +0.000 S 
ATOM     10  S   UNL     1       1.743   1.506   0.000  0.00  0.00    +0.000 S 
ENDROOT
TORSDOF 0
