REMARK  Name = *****
REMARK  1 active torsions:
REMARK  status: ('A' for Active; 'I' for Inactive)
REMARK    1  A    between atoms: C_10  and  C_12
REMARK                            x       y       z     vdW  Elec       q    Type
REMARK                         _______ _______ _______ _____ _____    ______ ____
ROOT
ATOM      1  C   UNL     1      -1.251   1.351  -0.047  0.00  0.00    +0.000 A 
ATOM      2  C   UNL     1      -2.434   0.616  -0.029  0.00  0.00    +0.000 A 
ATOM      3  C   UNL     1      -2.395  -0.782   0.013  0.00  0.00    +0.000 A 
ATOM      4  C   UNL     1      -1.164  -1.456   0.036  0.00  0.00    +0.000 A 
ATOM      5  C   UNL     1       0.041  -0.724   0.017  0.00  0.00    +0.000 A 
ATOM      6  C   UNL     1      -0.028   0.682  -0.024  0.00  0.00    +0.000 A 
ATOM      7  N   UNL     1       1.154   1.429  -0.036  0.00  0.00    +0.000 N 
ATOM      8  C   UNL     1       2.389   0.833  -0.004  0.00  0.00    +0.000 A 
ATOM      9  O   UNL     1       3.436   1.461   0.028  0.00  0.00    +0.000 OA
ATOM     10  C   UNL     1       2.384  -0.689   0.011  0.00  0.00    +0.000 A 
ATOM     11  N   UNL     1       1.288  -1.392   0.032  0.00  0.00    +0.000 NA
ATOM     12 CL   UNL     1      -1.105  -3.191   0.090  0.00  0.00    +0.000 Cl
ATOM     13 CL   UNL     1      -3.913  -1.611   0.035  0.00  0.00    +0.000 Cl
ATOM     14  H   UNL     1       1.099   2.411  -0.068  0.00  0.00    +0.000 HD
ENDROOT
BRANCH  10  15
ATOM     15  C   UNL     1       3.721  -1.366  -0.012  0.00  0.00    +0.000 C 
ATOM     16 BR   UNL     1       4.226  -1.564  -1.877  0.00  0.00    +0.000 Br
ENDBRANCH  10  15
TORSDOF 1
