MODEL 1
REMARK VINA RESULT:      -4.5      0.000      0.000
REMARK  Name = *****
REMARK  0 active torsions:
REMARK  status: ('A' for Active; 'I' for Inactive)
REMARK                            x       y       z     vdW  Elec       q    Type
REMARK                         _______ _______ _______ _____ _____    ______ ____
ROOT
ATOM      1  C   UNL     1      88.277  70.106  85.840  0.00  0.00    +0.000 C 
ATOM      2  C   UNL     1      87.092  70.854  86.388  0.00  0.00    +0.000 A 
ATOM      3  C   UNL     1      87.068  70.784  87.792  0.00  0.00    +0.000 A 
ATOM      4  C   UNL     1      86.058  71.386  88.524  0.00  0.00    +0.000 A 
ATOM      5  C   UNL     1      85.064  72.079  87.827  0.00  0.00    +0.000 A 
ATOM      6  C   UNL     1      85.088  72.144  86.425  0.00  0.00    +0.000 A 
ATOM      7  C   UNL     1      86.103  71.527  85.690  0.00  0.00    +0.000 A 
ATOM      8 CL   UNL     1      83.843  72.997  85.596  0.00  0.00    +0.000 Cl
ATOM      9  C   UNL     1      88.209  69.935  88.283  0.00  0.00    +0.000 C 
ATOM     10  C   UNL     1      89.172  70.033  87.083  0.00  0.00    +0.000 C 
ATOM     11  F   UNL     1      90.040  69.000  87.012  0.00  0.00    +0.000 F 
ATOM     12  F   UNL     1      89.923  71.170  87.144  0.00  0.00    +0.000 F 
ATOM     13  F   UNL     1      87.810  68.645  88.462  0.00  0.00    +0.000 F 
ATOM     14  F   UNL     1      88.784  70.329  89.444  0.00  0.00    +0.000 F 
ENDROOT
TORSDOF 0
ENDMDL
