MODEL 1
REMARK VINA RESULT:      -4.0      0.000      0.000
REMARK  Name = *****
REMARK  0 active torsions:
REMARK  status: ('A' for Active; 'I' for Inactive)
REMARK                            x       y       z     vdW  Elec       q    Type
REMARK                         _______ _______ _______ _____ _____    ______ ____
ROOT
ATOM      1  C   UNL     1     101.850 128.815  83.680  0.00  0.00    +0.000 A 
ATOM      2  C   UNL     1     100.960 127.918  83.143  0.00  0.00    +0.000 A 
ATOM      3  C   UNL     1     101.360 126.880  82.306  0.00  0.00    +0.000 A 
ATOM      4  C   UNL     1     102.683 126.685  81.963  0.00  0.00    +0.000 A 
ATOM      5  C   UNL     1     103.627 127.584  82.493  0.00  0.00    +0.000 A 
ATOM      6  C   UNL     1     103.202 128.640  83.347  0.00  0.00    +0.000 A 
ATOM      7 BR   UNL     1     104.423 129.895  84.100  0.00  0.00    +0.000 Br
ATOM      8 CL   UNL     1     105.310 127.397  82.100  0.00  0.00    +0.000 Cl
ATOM      9 CL   UNL     1     103.099 125.374  80.921  0.00  0.00    +0.000 Cl
ATOM     10  N   UNL     1     100.215 126.168  81.944  0.00  0.00    +0.000 N 
ATOM     11  C   UNL     1      99.099 126.759  82.551  0.00  0.00    +0.000 A 
ATOM     12  O   UNL     1      97.940 126.400  82.456  0.00  0.00    +0.000 OA
ATOM     13  N   UNL     1      99.580 127.846  83.294  0.00  0.00    +0.000 N 
ATOM     14  H   UNL     1     100.194 125.378  81.356  0.00  0.00    +0.000 HD
ATOM     15  H   UNL     1      99.031 128.458  83.835  0.00  0.00    +0.000 HD
ENDROOT
TORSDOF 0
ENDMDL
