MODEL 1
REMARK VINA RESULT:      -4.3      0.000      0.000
REMARK  Name = *****
REMARK  1 active torsions:
REMARK  status: ('A' for Active; 'I' for Inactive)
REMARK    1  A    between atoms: C_10  and  C_12
REMARK                            x       y       z     vdW  Elec       q    Type
REMARK                         _______ _______ _______ _____ _____    ______ ____
ROOT
ATOM      1  C   UNL     1      86.094  62.693  87.569  0.00  0.00    +0.000 A 
ATOM      2  C   UNL     1      86.571  63.353  86.436  0.00  0.00    +0.000 A 
ATOM      3  C   UNL     1      87.728  64.148  86.497  0.00  0.00    +0.000 A 
ATOM      4  C   UNL     1      88.382  64.257  87.721  0.00  0.00    +0.000 A 
ATOM      5  C   UNL     1      87.936  63.612  88.883  0.00  0.00    +0.000 A 
ATOM      6  C   UNL     1      86.774  62.825  88.781  0.00  0.00    +0.000 A 
ATOM      7 CL   UNL     1      86.132  61.982  90.148  0.00  0.00    +0.000 Cl
ATOM      8 CL   UNL     1      88.822  63.816  90.346  0.00  0.00    +0.000 Cl
ATOM      9  N   UNL     1      89.452  65.081  87.469  0.00  0.00    +0.000 N 
ATOM     10  C   UNL     1      89.427  65.440  86.142  0.00  0.00    +0.000 A 
ATOM     11  N   UNL     1      88.388  64.885  85.538  0.00  0.00    +0.000 NA
ATOM     12 CL   UNL     1      85.795  63.240  84.921  0.00  0.00    +0.000 Cl
ATOM     13  H   UNL     1      90.124  65.365  88.130  0.00  0.00    +0.000 HD
ENDROOT
BRANCH  10  14
ATOM     14  C   UNL     1      90.480  66.337  85.576  0.00  0.00    +0.000 C 
ATOM     15  F   UNL     1      90.222  66.619  84.268  0.00  0.00    +0.000 F 
ATOM     16  F   UNL     1      90.549  67.528  86.220  0.00  0.00    +0.000 F 
ATOM     17  F   UNL     1      91.715  65.778  85.614  0.00  0.00    +0.000 F 
ENDBRANCH  10  14
TORSDOF 1
ENDMDL
