MODEL 1
REMARK VINA RESULT:      -4.9      0.000      0.000
REMARK  Name = *****
REMARK  0 active torsions:
REMARK  status: ('A' for Active; 'I' for Inactive)
REMARK                            x       y       z     vdW  Elec       q    Type
REMARK                         _______ _______ _______ _____ _____    ______ ____
ROOT
ATOM      1  C   UNL     1      99.839 129.888  84.549  0.00  0.00    +0.000 A 
ATOM      2  C   UNL     1     101.238 129.874  84.351  0.00  0.00    +0.000 A 
ATOM      3  C   UNL     1     101.848 128.856  83.580  0.00  0.00    +0.000 A 
ATOM      4  C   UNL     1     100.986 127.930  83.070  0.00  0.00    +0.000 A 
ATOM      5  C   UNL     1      99.611 127.909  83.242  0.00  0.00    +0.000 A 
ATOM      6  C   UNL     1      98.998 128.905  83.997  0.00  0.00    +0.000 A 
ATOM      7  C   UNL     1      99.049 126.768  82.545  0.00  0.00    +0.000 C 
ATOM      8  O   UNL     1      97.905 126.356  82.420  0.00  0.00    +0.000 OA
ATOM      9  N   UNL     1     100.184 126.166  81.985  0.00  0.00    +0.000 N 
ATOM     10  C   UNL     1     101.348 126.853  82.293  0.00  0.00    +0.000 A 
ATOM     11  C   UNL     1     102.673 126.625  81.959  0.00  0.00    +0.000 A 
ATOM     12  C   UNL     1     103.610 127.545  82.456  0.00  0.00    +0.000 A 
ATOM     13  C   UNL     1     103.212 128.643  83.252  0.00  0.00    +0.000 A 
ATOM     14 CL   UNL     1     104.436 129.722  83.818  0.00  0.00    +0.000 Cl
ATOM     15 CL   UNL     1     103.152 125.295  80.995  0.00  0.00    +0.000 Cl
ATOM     16  H   UNL     1     100.158 125.349  81.436  0.00  0.00    +0.000 HD
ENDROOT
TORSDOF 0
ENDMDL
