MODEL 1
REMARK VINA RESULT:      -4.1      0.000      0.000
REMARK  Name = *****
REMARK  4 active torsions:
REMARK  status: ('A' for Active; 'I' for Inactive)
REMARK    1  A    between atoms: C_1  and  C_2
REMARK    2  A    between atoms: C_9  and  O_13
REMARK    3  A    between atoms: C_10  and  C_12
REMARK    4  A    between atoms: O_13  and  C_14
REMARK                            x       y       z     vdW  Elec       q    Type
REMARK                         _______ _______ _______ _____ _____    ______ ____
ROOT
ATOM      1  C   UNL     1      99.388 130.374  83.426  0.00  0.00    +0.000 C 
ATOM      2  C   UNL     1      99.731 129.146  84.278  0.00  0.00    +0.000 C 
ATOM      3  C   UNL     1      98.449 128.423  84.747  0.00  0.00    +0.000 C 
ATOM      4  C   UNL     1      97.893 127.463  83.734  0.00  0.00    +0.000 C 
ATOM      5  C   UNL     1      98.671 126.869  82.818  0.00  0.00    +0.000 C 
ATOM      6  C   UNL     1     100.114 127.131  82.789  0.00  0.00    +0.000 A 
ATOM      7  C   UNL     1     100.650 128.220  83.499  0.00  0.00    +0.000 A 
ATOM      8  C   UNL     1     102.030 128.470  83.446  0.00  0.00    +0.000 A 
ATOM      9  C   UNL     1     102.872 127.649  82.691  0.00  0.00    +0.000 A 
ATOM     10  C   UNL     1     102.346 126.541  82.008  0.00  0.00    +0.000 A 
ATOM     11  C   UNL     1     100.964 126.301  82.052  0.00  0.00    +0.000 A 
ATOM     12  C   UNL     1     103.242 125.628  81.218  0.00  0.00    +0.000 C 
ENDROOT
BRANCH   9  13
ATOM     13  O   UNL     1     104.229 127.834  82.604  0.00  0.00    +0.000 OA
ATOM     14  C   UNL     1     104.634 129.155  82.262  0.00  0.00    +0.000 C 
ENDBRANCH   9  13
TORSDOF 1
ENDMDL
