REMARK  Name = *****
REMARK  0 active torsions:
REMARK  status: ('A' for Active; 'I' for Inactive)
REMARK                            x       y       z     vdW  Elec       q    Type
REMARK                         _______ _______ _______ _____ _____    ______ ____
ROOT
ATOM      1  C   UNL     1       1.067  -1.421   0.007  0.00  0.00    +0.000 A 
ATOM      2  C   UNL     1       2.212  -0.628   0.009  0.00  0.00    +0.000 A 
ATOM      3  C   UNL     1       2.142   0.770   0.007  0.00  0.00    +0.000 A 
ATOM      4  C   UNL     1       0.898   1.399   0.003  0.00  0.00    +0.000 A 
ATOM      5  C   UNL     1      -0.246   0.611   0.001  0.00  0.00    +0.000 A 
ATOM      6  C   UNL     1      -0.159  -0.781   0.003  0.00  0.00    +0.000 A 
ATOM      7  S   UNL     1      -1.779  -1.502   0.000  0.00  0.00    +0.000 S 
ATOM      8  C   UNL     1      -2.540   0.095  -0.002  0.00  0.00    +0.000 A 
ATOM      9  S   UNL     1      -4.164   0.411  -0.003  0.00  0.00    +0.000 S 
ATOM     10  N   UNL     1      -1.568   1.071  -0.001  0.00  0.00    +0.000 N 
ATOM     11 CL   UNL     1       0.803   3.115   0.001  0.00  0.00    +0.000 Cl
ATOM     12  F   UNL     1       3.414  -1.218   0.013  0.00  0.00    +0.000 F 
ATOM     13  H   UNL     1      -1.790   2.030  -0.003  0.00  0.00    +0.000 HD
ENDROOT
TORSDOF 0
