MODEL 1
REMARK VINA RESULT:      -4.0      0.000      0.000
REMARK  Name = *****
REMARK  1 active torsions:
REMARK  status: ('A' for Active; 'I' for Inactive)
REMARK    1  A    between atoms: C_1  and  N_2
REMARK                            x       y       z     vdW  Elec       q    Type
REMARK                         _______ _______ _______ _____ _____    ______ ____
ROOT
ATOM      1  C   UNL     1      97.662 127.463  84.845  0.00  0.00    +0.000 C 
ATOM      2  N   UNL     1      99.006 126.962  85.102  0.00  0.00    +0.000 NA
ATOM      3  C   UNL     1      99.732 126.690  84.075  0.00  0.00    +0.000 C 
ATOM      4  C   UNL     1     101.099 126.179  84.150  0.00  0.00    +0.000 A 
ATOM      5  C   UNL     1     101.544 126.008  82.841  0.00  0.00    +0.000 A 
ATOM      6  C   UNL     1     102.815 125.531  82.590  0.00  0.00    +0.000 A 
ATOM      7  C   UNL     1     103.638 125.227  83.681  0.00  0.00    +0.000 A 
ATOM      8  C   UNL     1     103.166 125.408  84.996  0.00  0.00    +0.000 A 
ATOM      9  C   UNL     1     101.882 125.889  85.250  0.00  0.00    +0.000 A 
ATOM     10 BR   UNL     1     104.302 124.987  86.450  0.00  0.00    +0.000 Br
ATOM     11 BR   UNL     1     103.451 125.287  80.830  0.00  0.00    +0.000 Br
ATOM     12  N   UNL     1     100.556 126.376  81.928  0.00  0.00    +0.000 N 
ATOM     13  C   UNL     1      99.414 126.806  82.571  0.00  0.00    +0.000 C 
ATOM     14  O   UNL     1      98.382 127.192  82.071  0.00  0.00    +0.000 OA
ATOM     15  H   UNL     1     100.660 126.334  80.949  0.00  0.00    +0.000 HD
ENDROOT
TORSDOF 0
ENDMDL
