REMARK  Name = *****
REMARK  0 active torsions:
REMARK  status: ('A' for Active; 'I' for Inactive)
REMARK                            x       y       z     vdW  Elec       q    Type
REMARK                         _______ _______ _______ _____ _____    ______ ____
ROOT
ATOM      1  C   UNL     1      -1.344  -1.354   0.059  0.00  0.00    +0.000 C 
ATOM      2  C   UNL     1       0.027  -0.711   0.047  0.00  0.00    +0.000 A 
ATOM      3  C   UNL     1       0.331   0.606  -0.021  0.00  0.00    +0.000 A 
ATOM      4  C   UNL     1      -0.620   1.784  -0.064  0.00  0.00    +0.000 C 
ATOM      5  S   UNL     1      -2.283   1.392   0.535  0.00  0.00    +0.000 S 
ATOM      6  S   UNL     1      -2.650  -0.279  -0.587  0.00  0.00    +0.000 S 
ATOM      7  S   UNL     1       2.042   1.010  -0.053  0.00  0.00    +0.000 S 
ATOM      8  C   UNL     1       2.667  -0.625   0.041  0.00  0.00    +0.000 A 
ATOM      9  S   UNL     1       4.290  -0.999   0.056  0.00  0.00    +0.000 S 
ATOM     10  S   UNL     1       1.388  -1.822   0.117  0.00  0.00    +0.000 S 
ENDROOT
TORSDOF 0
