MODEL 1
REMARK VINA RESULT:      -3.0      0.000      0.000
REMARK  Name = *****
REMARK  1 active torsions:
REMARK  status: ('A' for Active; 'I' for Inactive)
REMARK    1  A    between atoms: C_1  and  C_2
REMARK                            x       y       z     vdW  Elec       q    Type
REMARK                         _______ _______ _______ _____ _____    ______ ____
ROOT
ATOM      1  C   UNL     1     101.434 126.356  82.346  0.00  0.00    +0.000 C 
ATOM      2  C   UNL     1     102.718 125.655  81.984  0.00  0.00    +0.000 C 
ATOM      3  C   UNL     1     103.137 125.612  80.708  0.00  0.00    +0.000 C 
ATOM      4  S   UNL     1     104.601 124.889  80.138  0.00  0.00    +0.000 S 
ATOM      5  C   UNL     1     104.702 123.559  81.246  0.00  0.00    +0.000 A 
ATOM      6  C   UNL     1     104.301 123.593  82.529  0.00  0.00    +0.000 A 
ATOM      7  S   UNL     1     103.612 124.975  83.318  0.00  0.00    +0.000 S 
ATOM      8  S   UNL     1     104.541 122.142  83.469  0.00  0.00    +0.000 S 
ATOM      9  C   UNL     1     105.271 121.188  82.191  0.00  0.00    +0.000 A 
ATOM     10  S   UNL     1     105.772 119.611  82.390  0.00  0.00    +0.000 S 
ATOM     11  S   UNL     1     105.413 122.068  80.682  0.00  0.00    +0.000 S 
ENDROOT
TORSDOF 0
ENDMDL
