REMARK  Name = *****
REMARK  4 active torsions:
REMARK  status: ('A' for Active; 'I' for Inactive)
REMARK    1  A    between atoms: C_1  and  C_2
REMARK    2  A    between atoms: C_4  and  C_13
REMARK    3  A    between atoms: C_9  and  O_11
REMARK    4  A    between atoms: O_11  and  C_12
REMARK                            x       y       z     vdW  Elec       q    Type
REMARK                         _______ _______ _______ _____ _____    ______ ____
ROOT
ATOM      1  C   UNL     1       1.016  -0.036   0.098  0.00  0.00    +0.000 C 
ATOM      2  C   UNL     1       2.538  -0.068   0.066  0.00  0.00    +0.000 C 
ATOM      3  C   UNL     1       3.116   1.084  -0.731  0.00  0.00    +0.000 C 
ATOM      4  C   UNL     1       3.870   0.679  -1.768  0.00  0.00    +0.000 C 
ATOM      5  C   UNL     1       3.871  -0.783  -1.770  0.00  0.00    +0.000 A 
ATOM      6  C   UNL     1       3.089  -1.240  -0.699  0.00  0.00    +0.000 A 
ATOM      7  C   UNL     1       2.924  -2.593  -0.460  0.00  0.00    +0.000 A 
ATOM      8  C   UNL     1       3.553  -3.493  -1.323  0.00  0.00    +0.000 A 
ATOM      9  C   UNL     1       4.335  -3.045  -2.404  0.00  0.00    +0.000 A 
ATOM     10  C   UNL     1       4.498  -1.675  -2.629  0.00  0.00    +0.000 A 
ATOM     11  C   UNL     1       4.596   1.508  -2.759  0.00  0.00    +0.000 C 
ENDROOT
BRANCH   9  12
ATOM     12  O   UNL     1       4.883  -4.050  -3.157  0.00  0.00    +0.000 OA
ATOM     13  C   UNL     1       5.666  -3.659  -4.278  0.00  0.00    +0.000 C 
ENDBRANCH   9  12
TORSDOF 1
