REMARK  Name = *****
REMARK  0 active torsions:
REMARK  status: ('A' for Active; 'I' for Inactive)
REMARK                            x       y       z     vdW  Elec       q    Type
REMARK                         _______ _______ _______ _____ _____    ______ ____
ROOT
ATOM      1  C   UNL     1      -1.285   1.409  -0.013  0.00  0.00    +0.000 A 
ATOM      2  C   UNL     1      -2.416   0.692  -0.030  0.00  0.00    +0.000 A 
ATOM      3  C   UNL     1      -2.389  -0.788  -0.042  0.00  0.00    +0.000 A 
ATOM      4  O   UNL     1      -3.428  -1.438  -0.058  0.00  0.00    +0.000 OA
ATOM      5  N   UNL     1      -1.155  -1.377  -0.034  0.00  0.00    +0.000 N 
ATOM      6  C   UNL     1       0.051  -0.661  -0.017  0.00  0.00    +0.000 A 
ATOM      7  C   UNL     1       0.028   0.746  -0.006  0.00  0.00    +0.000 A 
ATOM      8  C   UNL     1       1.254   1.432   0.010  0.00  0.00    +0.000 A 
ATOM      9  C   UNL     1       2.464   0.729   0.015  0.00  0.00    +0.000 A 
ATOM     10  C   UNL     1       2.456  -0.664   0.004  0.00  0.00    +0.000 A 
ATOM     11  C   UNL     1       1.255  -1.368  -0.012  0.00  0.00    +0.000 A 
ATOM     12 BR   UNL     1       4.093  -1.609   0.009  0.00  0.00    +0.000 Br
ATOM     13 CL   UNL     1       1.347   3.160   0.024  0.00  0.00    +0.000 Cl
ATOM     14  H   UNL     1      -1.111  -2.361  -0.040  0.00  0.00    +0.000 HD
ENDROOT
TORSDOF 0
