MODEL 1
REMARK VINA RESULT:      -4.8      0.000      0.000
REMARK  Name = *****
REMARK  0 active torsions:
REMARK  status: ('A' for Active; 'I' for Inactive)
REMARK                            x       y       z     vdW  Elec       q    Type
REMARK                         _______ _______ _______ _____ _____    ______ ____
ROOT
ATOM      1  C   UNL     1     100.483 130.017  84.322  0.00  0.00    +0.000 A 
ATOM      2  C   UNL     1     101.821 129.587  84.182  0.00  0.00    +0.000 A 
ATOM      3  C   UNL     1     102.109 128.380  83.519  0.00  0.00    +0.000 A 
ATOM      4  C   UNL     1     103.363 127.784  83.278  0.00  0.00    +0.000 A 
ATOM      5  C   UNL     1     103.439 126.555  82.585  0.00  0.00    +0.000 A 
ATOM      6  C   UNL     1     102.295 125.877  82.111  0.00  0.00    +0.000 A 
ATOM      7  C   UNL     1     101.088 126.500  82.371  0.00  0.00    +0.000 A 
ATOM      8  C   UNL     1     101.029 127.696  83.046  0.00  0.00    +0.000 A 
ATOM      9  C   UNL     1      99.705 128.082  83.162  0.00  0.00    +0.000 A 
ATOM     10  C   UNL     1      99.398 129.273  83.815  0.00  0.00    +0.000 A 
ATOM     11  C   UNL     1      98.857 127.089  82.531  0.00  0.00    +0.000 C 
ATOM     12  O   UNL     1      97.646 127.004  82.388  0.00  0.00    +0.000 OA
ATOM     13  N   UNL     1      99.787 126.143  82.066  0.00  0.00    +0.000 N 
ATOM     14 CL   UNL     1     104.990 125.852  82.307  0.00  0.00    +0.000 Cl
ATOM     15  H   UNL     1      99.539 125.323  81.581  0.00  0.00    +0.000 HD
ENDROOT
TORSDOF 0
ENDMDL
