MODEL 1
REMARK VINA RESULT:      -4.1      0.000      0.000
REMARK  Name = *****
REMARK  0 active torsions:
REMARK  status: ('A' for Active; 'I' for Inactive)
REMARK                            x       y       z     vdW  Elec       q    Type
REMARK                         _______ _______ _______ _____ _____    ______ ____
ROOT
ATOM      1  C   UNL     1     101.845 129.000  83.956  0.00  0.00    +0.000 A 
ATOM      2  C   UNL     1     103.207 128.863  83.684  0.00  0.00    +0.000 A 
ATOM      3  C   UNL     1     103.686 127.851  82.827  0.00  0.00    +0.000 A 
ATOM      4  C   UNL     1     102.797 126.951  82.222  0.00  0.00    +0.000 A 
ATOM      5  C   UNL     1     101.447 127.088  82.493  0.00  0.00    +0.000 A 
ATOM      6  C   UNL     1     100.998 128.096  83.344  0.00  0.00    +0.000 A 
ATOM      7  C   UNL     1      99.541 127.980  83.427  0.00  0.00    +0.000 C 
ATOM      8  O   UNL     1      98.792 128.677  84.068  0.00  0.00    +0.000 OA
ATOM      9  C   UNL     1      99.176 126.774  82.519  0.00  0.00    +0.000 C 
ATOM     10  O   UNL     1      98.067 126.340  82.309  0.00  0.00    +0.000 OA
ATOM     11  N   UNL     1     100.380 126.324  82.018  0.00  0.00    +0.000 N 
ATOM     12  I   UNL     1     103.522 125.470  80.965  0.00  0.00    +0.000 I 
ATOM     13  I   UNL     1     104.559 130.180  84.562  0.00  0.00    +0.000 I 
ATOM     14  H   UNL     1     100.475 125.560  81.403  0.00  0.00    +0.000 HD
ENDROOT
TORSDOF 0
ENDMDL
