REMARK  Name = *****
REMARK  2 active torsions:
REMARK  status: ('A' for Active; 'I' for Inactive)
REMARK    1  A    between atoms: C_1  and  C_2
REMARK    2  A    between atoms: C_2  and  C_4
REMARK                            x       y       z     vdW  Elec       q    Type
REMARK                         _______ _______ _______ _____ _____    ______ ____
ROOT
ATOM      1  C   UNL     1       3.106   1.384   0.487  0.00  0.00    +0.000 A 
ATOM      2  C   UNL     1       2.669   2.173   1.536  0.00  0.00    +0.000 A 
ATOM      3  C   UNL     1       3.428   3.381   1.541  0.00  0.00    +0.000 A 
ATOM      4  C   UNL     1       4.326   3.294   0.475  0.00  0.00    +0.000 A 
ATOM      5  N   UNL     1       4.112   2.084  -0.141  0.00  0.00    +0.000 N 
ATOM      6  C   UNL     1       5.240   4.314   0.172  0.00  0.00    +0.000 A 
ATOM      7  C   UNL     1       5.234   5.454   0.986  0.00  0.00    +0.000 A 
ATOM      8  C   UNL     1       4.359   5.582   2.058  0.00  0.00    +0.000 A 
ATOM      9  C   UNL     1       3.465   4.549   2.328  0.00  0.00    +0.000 A 
ATOM     10 CL   UNL     1       2.357   4.631   3.628  0.00  0.00    +0.000 Cl
ATOM     11 CL   UNL     1       6.343   6.729   0.645  0.00  0.00    +0.000 Cl
ATOM     12  H   UNL     1       4.610   1.761  -0.926  0.00  0.00    +0.000 HD
ENDROOT
BRANCH   1  14
ATOM     13  C   UNL     1       1.570  -0.602   0.784  0.00  0.00    +0.000 C 
ATOM     14  C   UNL     1       2.685   0.076   0.029  0.00  0.00    +0.000 C 
ATOM     15  O   UNL     1       3.213  -0.466  -0.941  0.00  0.00    +0.000 OA
ENDBRANCH   1  14
TORSDOF 1
