REMARK  Name = *****
REMARK  3 active torsions:
REMARK  status: ('A' for Active; 'I' for Inactive)
REMARK    1  A    between atoms: C_1  and  O_2
REMARK    2  A    between atoms: O_2  and  C_3
REMARK    3  A    between atoms: C_9  and  C_11
REMARK                            x       y       z     vdW  Elec       q    Type
REMARK                         _______ _______ _______ _____ _____    ______ ____
ROOT
ATOM      1  C   UNL     1       3.064   0.798  -0.784  0.00  0.00    +0.000 A 
ATOM      2  C   UNL     1       4.248   0.289  -1.327  0.00  0.00    +0.000 A 
ATOM      3  C   UNL     1       5.087   1.085  -2.124  0.00  0.00    +0.000 A 
ATOM      4  C   UNL     1       4.725   2.424  -2.380  0.00  0.00    +0.000 A 
ATOM      5  C   UNL     1       5.565   3.223  -3.170  0.00  0.00    +0.000 A 
ATOM      6  C   UNL     1       6.746   2.707  -3.706  0.00  0.00    +0.000 A 
ATOM      7  C   UNL     1       7.111   1.376  -3.470  0.00  0.00    +0.000 A 
ATOM      8  C   UNL     1       6.279   0.578  -2.670  0.00  0.00    +0.000 A 
ATOM      9  C   UNL     1       3.535   2.927  -1.833  0.00  0.00    +0.000 A 
ATOM     10  C   UNL     1       2.709   2.120  -1.041  0.00  0.00    +0.000 A 
ENDROOT
BRANCH   1  12
ATOM     11  C   UNL     1       1.155   0.383   0.571  0.00  0.00    +0.000 C 
ATOM     12  O   UNL     1       2.351  -0.094  -0.030  0.00  0.00    +0.000 OA
ENDBRANCH   1  12
BRANCH   7  13
ATOM     13  C   UNL     1       8.388   0.821  -4.035  0.00  0.00    +0.000 C 
ATOM     14 CL   UNL     1       9.734   1.080  -2.908  0.00  0.00    +0.000 Cl
ENDBRANCH   7  13
TORSDOF 2
