MODEL 1
REMARK VINA RESULT:      -4.2      0.000      0.000
REMARK  Name = *****
REMARK  0 active torsions:
REMARK  status: ('A' for Active; 'I' for Inactive)
REMARK                            x       y       z     vdW  Elec       q    Type
REMARK                         _______ _______ _______ _____ _____    ______ ____
ROOT
ATOM      1  C   UNL     1     101.733 128.985  83.824  0.00  0.00    +0.000 A 
ATOM      2  C   UNL     1     103.085 128.840  83.508  0.00  0.00    +0.000 A 
ATOM      3  C   UNL     1     103.535 127.804  82.667  0.00  0.00    +0.000 A 
ATOM      4  C   UNL     1     102.626 126.888  82.123  0.00  0.00    +0.000 A 
ATOM      5  C   UNL     1     101.287 127.032  82.435  0.00  0.00    +0.000 A 
ATOM      6  C   UNL     1     100.867 128.065  83.270  0.00  0.00    +0.000 A 
ATOM      7  C   UNL     1      99.413 127.948  83.405  0.00  0.00    +0.000 C 
ATOM      8  O   UNL     1      98.685 128.664  84.051  0.00  0.00    +0.000 OA
ATOM      9  C   UNL     1      99.021 126.715  82.546  0.00  0.00    +0.000 C 
ATOM     10  O   UNL     1      97.906 126.273  82.386  0.00  0.00    +0.000 OA
ATOM     11  N   UNL     1     100.209 126.252  82.018  0.00  0.00    +0.000 N 
ATOM     12 BR   UNL     1     103.237 125.504  80.997  0.00  0.00    +0.000 Br
ATOM     13 CL   UNL     1     104.227 129.949  84.161  0.00  0.00    +0.000 Cl
ATOM     14  H   UNL     1     100.286 125.470  81.424  0.00  0.00    +0.000 HD
ENDROOT
TORSDOF 0
ENDMDL
