MODEL 1
REMARK VINA RESULT:      -4.2      0.000      0.000
REMARK  Name = *****
REMARK  0 active torsions:
REMARK  status: ('A' for Active; 'I' for Inactive)
REMARK                            x       y       z     vdW  Elec       q    Type
REMARK                         _______ _______ _______ _____ _____    ______ ____
ROOT
ATOM      1  C   UNL     1     101.784 128.887  83.711  0.00  0.00    +0.000 A 
ATOM      2  C   UNL     1     103.116 128.690  83.345  0.00  0.00    +0.000 A 
ATOM      3  C   UNL     1     103.496 127.631  82.497  0.00  0.00    +0.000 A 
ATOM      4  C   UNL     1     102.535 126.745  82.000  0.00  0.00    +0.000 A 
ATOM      5  C   UNL     1     101.215 126.940  82.363  0.00  0.00    +0.000 A 
ATOM      6  C   UNL     1     100.863 127.993  83.201  0.00  0.00    +0.000 A 
ATOM      7  C   UNL     1      99.413 127.928  83.393  0.00  0.00    +0.000 C 
ATOM      8  O   UNL     1      98.736 128.674  84.060  0.00  0.00    +0.000 OA
ATOM      9  C   UNL     1      98.945 126.700  82.563  0.00  0.00    +0.000 C 
ATOM     10  O   UNL     1      97.811 126.296  82.452  0.00  0.00    +0.000 OA
ATOM     11  N   UNL     1     100.095 126.191  81.995  0.00  0.00    +0.000 N 
ATOM     12 CL   UNL     1     102.999 125.454  80.967  0.00  0.00    +0.000 Cl
ATOM     13 CL   UNL     1     104.321 129.764  83.940  0.00  0.00    +0.000 Cl
ATOM     14  H   UNL     1     100.122 125.403  81.407  0.00  0.00    +0.000 HD
ENDROOT
TORSDOF 0
ENDMDL
