MODEL 1
REMARK VINA RESULT:      -3.9      0.000      0.000
REMARK  Name = *****
REMARK  4 active torsions:
REMARK  status: ('A' for Active; 'I' for Inactive)
REMARK    1  A    between atoms: C_1  and  O_2
REMARK    2  A    between atoms: O_2  and  C_3
REMARK    3  A    between atoms: C_10  and  S_13
REMARK    4  A    between atoms: S_13  and  C_14
REMARK                            x       y       z     vdW  Elec       q    Type
REMARK                         _______ _______ _______ _____ _____    ______ ____
ROOT
ATOM      1  C   UNL     1     105.968 124.230  79.285  0.00  0.00    +0.000 A 
ATOM      2  C   UNL     1     105.457 125.528  79.384  0.00  0.00    +0.000 A 
ATOM      3  C   UNL     1     104.455 125.849  80.315  0.00  0.00    +0.000 A 
ATOM      4  C   UNL     1     103.956 124.842  81.165  0.00  0.00    +0.000 A 
ATOM      5  C   UNL     1     104.473 123.541  81.058  0.00  0.00    +0.000 A 
ATOM      6  C   UNL     1     105.471 123.237  80.126  0.00  0.00    +0.000 A 
ATOM      7  C   UNL     1     102.953 125.164  82.097  0.00  0.00    +0.000 A 
ATOM      8  C   UNL     1     102.436 126.464  82.203  0.00  0.00    +0.000 A 
ATOM      9  C   UNL     1     102.940 127.451  81.354  0.00  0.00    +0.000 A 
ATOM     10  C   UNL     1     103.939 127.148  80.421  0.00  0.00    +0.000 A 
ENDROOT
BRANCH   1  12
ATOM     11  C   UNL     1     106.682 124.627  77.053  0.00  0.00    +0.000 C 
ATOM     12  O   UNL     1     106.938 124.069  78.335  0.00  0.00    +0.000 OA
ENDBRANCH   1  12
BRANCH   8  13
ATOM     13  S   UNL     1     101.163 126.724  83.434  0.00  0.00    +0.000 S 
ATOM     14  C   UNL     1      99.642 126.829  82.456  0.00  0.00    +0.000 C 
ENDBRANCH   8  13
TORSDOF 2
ENDMDL
