MODEL 1
REMARK VINA RESULT:      -4.0      0.000      0.000
REMARK  Name = *****
REMARK  2 active torsions:
REMARK  status: ('A' for Active; 'I' for Inactive)
REMARK    1  A    between atoms: C_1  and  O_2
REMARK    2  A    between atoms: O_2  and  C_3
REMARK                            x       y       z     vdW  Elec       q    Type
REMARK                         _______ _______ _______ _____ _____    ______ ____
ROOT
ATOM      1  C   UNL     1      89.116  70.248  86.168  0.00  0.00    +0.000 A 
ATOM      2  C   UNL     1      87.972  70.803  85.589  0.00  0.00    +0.000 A 
ATOM      3  C   UNL     1      86.901  71.256  86.377  0.00  0.00    +0.000 A 
ATOM      4  C   UNL     1      86.986  71.148  87.782  0.00  0.00    +0.000 A 
ATOM      5  C   UNL     1      88.140  70.592  88.356  0.00  0.00    +0.000 A 
ATOM      6  C   UNL     1      89.197  70.145  87.554  0.00  0.00    +0.000 A 
ATOM      7  C   UNL     1      85.918  71.599  88.575  0.00  0.00    +0.000 A 
ATOM      8  C   UNL     1      84.783  72.147  87.979  0.00  0.00    +0.000 A 
ATOM      9  C   UNL     1      84.693  72.257  86.595  0.00  0.00    +0.000 A 
ATOM     10  C   UNL     1      85.748  71.813  85.796  0.00  0.00    +0.000 A 
ATOM     11 CL   UNL     1      83.481  72.693  88.964  0.00  0.00    +0.000 Cl
ENDROOT
BRANCH   1  13
ATOM     12  C   UNL     1      90.496  70.810  84.315  0.00  0.00    +0.000 C 
ATOM     13  O   UNL     1      90.073  69.850  85.275  0.00  0.00    +0.000 OA
ENDBRANCH   1  13
TORSDOF 1
ENDMDL
