MODEL 1
REMARK VINA RESULT:      -4.8      0.000      0.000
REMARK  Name = *****
REMARK  0 active torsions:
REMARK  status: ('A' for Active; 'I' for Inactive)
REMARK                            x       y       z     vdW  Elec       q    Type
REMARK                         _______ _______ _______ _____ _____    ______ ____
ROOT
ATOM      1  C   UNL     1      99.251 129.040  83.537  0.00  0.00    +0.000 A 
ATOM      2  C   UNL     1     100.611 129.245  83.759  0.00  0.00    +0.000 A 
ATOM      3  C   UNL     1     101.514 128.306  83.309  0.00  0.00    +0.000 A 
ATOM      4  C   UNL     1     101.077 127.149  82.645  0.00  0.00    +0.000 A 
ATOM      5  C   UNL     1      99.736 126.927  82.430  0.00  0.00    +0.000 A 
ATOM      6  C   UNL     1      98.823 127.883  82.875  0.00  0.00    +0.000 A 
ATOM      7  F   UNL     1      97.511 127.696  82.676  0.00  0.00    +0.000 F 
ATOM      8  F   UNL     1      99.319 125.817  81.811  0.00  0.00    +0.000 F 
ATOM      9  C   UNL     1     102.255 126.288  82.312  0.00  0.00    +0.000 C 
ATOM     10  C   UNL     1     103.370 127.346  82.276  0.00  0.00    +0.000 C 
ATOM     11  C   UNL     1     103.005 128.269  83.449  0.00  0.00    +0.000 C 
ATOM     12  F   UNL     1     103.379 127.712  84.631  0.00  0.00    +0.000 F 
ATOM     13  F   UNL     1     103.634 129.464  83.361  0.00  0.00    +0.000 F 
ATOM     14  F   UNL     1     104.614 126.830  82.353  0.00  0.00    +0.000 F 
ATOM     15  F   UNL     1     103.310 128.043  81.099  0.00  0.00    +0.000 F 
ATOM     16  F   UNL     1     102.494 125.375  83.290  0.00  0.00    +0.000 F 
ATOM     17  F   UNL     1     102.174 125.605  81.147  0.00  0.00    +0.000 F 
ATOM     18  F   UNL     1     101.027 130.338  84.403  0.00  0.00    +0.000 F 
ENDROOT
TORSDOF 0
ENDMDL
