MODEL 1
REMARK VINA RESULT:      -4.0      0.000      0.000
REMARK  Name = *****
REMARK  1 active torsions:
REMARK  status: ('A' for Active; 'I' for Inactive)
REMARK    1  A    between atoms: C_8  and  C_10
REMARK                            x       y       z     vdW  Elec       q    Type
REMARK                         _______ _______ _______ _____ _____    ______ ____
ROOT
ATOM      1  C   UNL     1     102.908 125.770  81.466  0.00  0.00    +0.000 A 
ATOM      2  C   UNL     1     104.177 126.332  81.653  0.00  0.00    +0.000 A 
ATOM      3  C   UNL     1     104.356 127.507  82.374  0.00  0.00    +0.000 A 
ATOM      4  C   UNL     1     103.245 128.140  82.925  0.00  0.00    +0.000 A 
ATOM      5  C   UNL     1     101.946 127.618  82.767  0.00  0.00    +0.000 A 
ATOM      6  C   UNL     1     101.811 126.434  82.034  0.00  0.00    +0.000 A 
ATOM      7  N   UNL     1     100.470 126.116  82.011  0.00  0.00    +0.000 N 
ATOM      8  C   UNL     1      99.749 127.054  82.701  0.00  0.00    +0.000 A 
ATOM      9  C   UNL     1     100.634 127.995  83.181  0.00  0.00    +0.000 A 
ATOM     10 CL   UNL     1     103.384 129.586  83.824  0.00  0.00    +0.000 Cl
ATOM     11 CL   UNL     1     105.549 125.544  80.968  0.00  0.00    +0.000 Cl
ATOM     12  H   UNL     1     100.086 125.328  81.563  0.00  0.00    +0.000 HD
ENDROOT
BRANCH   8  13
ATOM     13  C   UNL     1      98.337 127.009  82.857  0.00  0.00    +0.000 C 
ATOM     14  N   UNL     1      97.190 126.963  83.016  0.00  0.00    +0.000 NA
ENDBRANCH   8  13
TORSDOF 1
ENDMDL
