REMARK  Name = *****
REMARK  6 active torsions:
REMARK  status: ('A' for Active; 'I' for Inactive)
REMARK    1  A    between atoms: C_1  and  C_2
REMARK    2  A    between atoms: C_3  and  C_15
REMARK    3  A    between atoms: C_4  and  C_14
REMARK    4  A    between atoms: C_7  and  C_8
REMARK    5  A    between atoms: C_9  and  C_13
REMARK    6  A    between atoms: C_10  and  C_12
REMARK                            x       y       z     vdW  Elec       q    Type
REMARK                         _______ _______ _______ _____ _____    ______ ____
ROOT
ATOM      1  C   UNL     1       0.923   0.048  -0.089  0.00  0.00    +0.000 C 
ATOM      2  C   UNL     1       2.437   0.083  -0.025  0.00  0.00    +0.000 A 
ATOM      3  C   UNL     1       3.166  -1.131   0.052  0.00  0.00    +0.000 A 
ATOM      4  C   UNL     1       4.583  -1.127   0.021  0.00  0.00    +0.000 A 
ATOM      5  C   UNL     1       5.213   0.133  -0.026  0.00  0.00    +0.000 A 
ATOM      6  C   UNL     1       4.533   1.352  -0.045  0.00  0.00    +0.000 A 
ATOM      7  C   UNL     1       3.110   1.343   0.004  0.00  0.00    +0.000 A 
ATOM      8  C   UNL     1       2.304   2.619   0.050  0.00  0.00    +0.000 C 
ATOM      9  C   UNL     1       5.538   2.391  -0.133  0.00  0.00    +0.000 A 
ATOM     10  C   UNL     1       6.776   1.773  -0.112  0.00  0.00    +0.000 A 
ATOM     11  N   UNL     1       6.560   0.426  -0.051  0.00  0.00    +0.000 N 
ATOM     12  C   UNL     1       8.152   2.332  -0.162  0.00  0.00    +0.000 C 
ATOM     13  C   UNL     1       5.317   3.860  -0.241  0.00  0.00    +0.000 C 
ATOM     14  C   UNL     1       5.370  -2.411   0.043  0.00  0.00    +0.000 C 
ATOM     15  C   UNL     1       2.423  -2.450   0.118  0.00  0.00    +0.000 C 
ATOM     16  H   UNL     1       7.275  -0.251  -0.028  0.00  0.00    +0.000 HD
ENDROOT
TORSDOF 0
