REMARK  Name = *****
REMARK  0 active torsions:
REMARK  status: ('A' for Active; 'I' for Inactive)
REMARK                            x       y       z     vdW  Elec       q    Type
REMARK                         _______ _______ _______ _____ _____    ______ ____
ROOT
ATOM      1  C   UNL     1       1.227  -1.386  -0.000  0.00  0.00    +0.000 A 
ATOM      2  C   UNL     1       2.425  -0.674  -0.000  0.00  0.00    +0.000 A 
ATOM      3  C   UNL     1       2.423   0.720   0.001  0.00  0.00    +0.000 A 
ATOM      4  C   UNL     1       1.206   1.404   0.002  0.00  0.00    +0.000 A 
ATOM      5  C   UNL     1       0.000   0.693   0.002  0.00  0.00    +0.000 A 
ATOM      6  C   UNL     1       0.013  -0.688   0.001  0.00  0.00    +0.000 A 
ATOM      7  C   UNL     1      -1.272  -1.400   0.001  0.00  0.00    +0.000 A 
ATOM      8  O   UNL     1      -1.279  -2.627   0.001  0.00  0.00    +0.000 OA
ATOM      9  O   UNL     1      -2.416  -0.685   0.001  0.00  0.00    +0.000 OA
ATOM     10  C   UNL     1      -2.425   0.672   0.001  0.00  0.00    +0.000 A 
ATOM     11  O   UNL     1      -3.475   1.307   0.001  0.00  0.00    +0.000 OA
ATOM     12  N   UNL     1      -1.231   1.331   0.002  0.00  0.00    +0.000 N 
ATOM     13 CL   UNL     1       1.221   3.129   0.004  0.00  0.00    +0.000 Cl
ATOM     14 BR   UNL     1       4.069  -1.606  -0.002  0.00  0.00    +0.000 Br
ATOM     15  H   UNL     1      -1.244   2.316   0.003  0.00  0.00    +0.000 HD
ENDROOT
TORSDOF 0
