REMARK  Name = *****
REMARK  2 active torsions:
REMARK  status: ('A' for Active; 'I' for Inactive)
REMARK    1  A    between atoms: C_1  and  C_2
REMARK    2  A    between atoms: C_8  and  C_11
REMARK                            x       y       z     vdW  Elec       q    Type
REMARK                         _______ _______ _______ _____ _____    ______ ____
ROOT
ATOM      1  C   UNL     1       0.979   0.147   0.036  0.00  0.00    +0.000 C 
ATOM      2  C   UNL     1       2.485   0.070   0.033  0.00  0.00    +0.000 A 
ATOM      3  C   UNL     1       3.218  -1.151   0.031  0.00  0.00    +0.000 A 
ATOM      4  C   UNL     1       2.751  -2.515   0.032  0.00  0.00    +0.000 A 
ATOM      5  C   UNL     1       3.765  -3.440   0.029  0.00  0.00    +0.000 A 
ATOM      6  S   UNL     1       5.293  -2.701   0.025  0.00  0.00    +0.000 S 
ATOM      7  C   UNL     1       4.621  -1.102   0.027  0.00  0.00    +0.000 A 
ATOM      8  C   UNL     1       5.334   0.125   0.025  0.00  0.00    +0.000 A 
ATOM      9  C   UNL     1       4.580   1.308   0.028  0.00  0.00    +0.000 A 
ATOM     10  C   UNL     1       3.193   1.284   0.032  0.00  0.00    +0.000 A 
ATOM     11  C   UNL     1       6.835   0.243   0.020  0.00  0.00    +0.000 C 
ENDROOT
TORSDOF 0
