MODEL 1
REMARK VINA RESULT:      -4.5      0.000      0.000
REMARK  Name = *****
REMARK  2 active torsions:
REMARK  status: ('A' for Active; 'I' for Inactive)
REMARK    1  A    between atoms: C_1  and  C_2
REMARK    2  A    between atoms: C_2  and  C_15
REMARK                            x       y       z     vdW  Elec       q    Type
REMARK                         _______ _______ _______ _____ _____    ______ ____
ROOT
ATOM      1  C   UNL     1      99.691 128.244  85.320  0.00  0.00    +0.000 C 
ATOM      2  C   UNL     1      99.825 128.682  83.855  0.00  0.00    +0.000 C 
ATOM      3  C   UNL     1     101.219 128.377  83.347  0.00  0.00    +0.000 A 
ATOM      4  C   UNL     1     101.405 127.257  82.539  0.00  0.00    +0.000 A 
ATOM      5  C   UNL     1     102.687 126.895  82.096  0.00  0.00    +0.000 A 
ATOM      6  C   UNL     1     103.797 127.656  82.454  0.00  0.00    +0.000 A 
ATOM      7  C   UNL     1     103.619 128.772  83.264  0.00  0.00    +0.000 A 
ATOM      8  C   UNL     1     102.347 129.131  83.716  0.00  0.00    +0.000 A 
ATOM      9 CL   UNL     1     104.982 129.714  83.730  0.00  0.00    +0.000 Cl
ATOM     10 CL   UNL     1     102.925 125.506  81.096  0.00  0.00    +0.000 Cl
ATOM     11  N   UNL     1     100.290 126.500  82.191  0.00  0.00    +0.000 N 
ATOM     12  C   UNL     1      98.998 126.839  82.453  0.00  0.00    +0.000 C 
ATOM     13  O   UNL     1      98.070 126.143  82.055  0.00  0.00    +0.000 OA
ATOM     14  O   UNL     1      98.784 127.997  83.118  0.00  0.00    +0.000 OA
ATOM     15  C   UNL     1      99.479 130.173  83.724  0.00  0.00    +0.000 C 
ATOM     16  H   UNL     1     100.450 125.652  81.719  0.00  0.00    +0.000 HD
ENDROOT
TORSDOF 0
ENDMDL
