REMARK  Name = *****
REMARK  3 active torsions:
REMARK  status: ('A' for Active; 'I' for Inactive)
REMARK    1  A    between atoms: C_1  and  C_2
REMARK    2  A    between atoms: C_2  and  C_3
REMARK    3  A    between atoms: C_10  and  C_12
REMARK                            x       y       z     vdW  Elec       q    Type
REMARK                         _______ _______ _______ _____ _____    ______ ____
ROOT
ATOM      1  C   UNL     1       2.917  -0.509   1.399  0.00  0.00    +0.000 A 
ATOM      2  C   UNL     1       3.451   0.385   2.345  0.00  0.00    +0.000 A 
ATOM      3  C   UNL     1       3.881  -0.097   3.597  0.00  0.00    +0.000 A 
ATOM      4  C   UNL     1       3.761  -1.456   3.871  0.00  0.00    +0.000 A 
ATOM      5  C   UNL     1       3.229  -2.367   2.954  0.00  0.00    +0.000 A 
ATOM      6  C   UNL     1       2.807  -1.868   1.716  0.00  0.00    +0.000 A 
ATOM      7  N   UNL     1       4.246  -1.655   5.141  0.00  0.00    +0.000 N 
ATOM      8  C   UNL     1       4.675  -0.469   5.699  0.00  0.00    +0.000 A 
ATOM      9  C   UNL     1       4.454   0.513   4.747  0.00  0.00    +0.000 A 
ATOM     10  H   UNL     1       4.282  -2.528   5.593  0.00  0.00    +0.000 HD
ENDROOT
BRANCH   8  11
ATOM     11  C   UNL     1       5.230  -0.416   7.040  0.00  0.00    +0.000 C 
ATOM     12  O   UNL     1       5.330  -1.437   7.717  0.00  0.00    +0.000 OA
ATOM     13 CL   UNL     1       5.724   1.167   7.584  0.00  0.00    +0.000 Cl
ENDBRANCH   8  11
BRANCH   1  15
ATOM     14  C   UNL     1       0.966   0.394   0.106  0.00  0.00    +0.000 C 
ATOM     15  C   UNL     1       2.435   0.003   0.065  0.00  0.00    +0.000 C 
ENDBRANCH   1  15
TORSDOF 2
