MODEL 1
REMARK VINA RESULT:      -4.4      0.000      0.000
REMARK  Name = *****
REMARK  4 active torsions:
REMARK  status: ('A' for Active; 'I' for Inactive)
REMARK    1  A    between atoms: C_1  and  C_2
REMARK    2  A    between atoms: C_5  and  O_13
REMARK    3  A    between atoms: C_6  and  C_12
REMARK    4  A    between atoms: O_13  and  C_14
REMARK                            x       y       z     vdW  Elec       q    Type
REMARK                         _______ _______ _______ _____ _____    ______ ____
ROOT
ATOM      1  C   UNL     1      83.654  72.724  88.884  0.00  0.00    +0.000 C 
ATOM      2  C   UNL     1      84.323  72.425  87.567  0.00  0.00    +0.000 A 
ATOM      3  C   UNL     1      85.599  71.803  87.500  0.00  0.00    +0.000 A 
ATOM      4  C   UNL     1      86.341  71.426  88.640  0.00  0.00    +0.000 A 
ATOM      5  C   UNL     1      87.598  70.827  88.525  0.00  0.00    +0.000 A 
ATOM      6  C   UNL     1      88.140  70.529  87.274  0.00  0.00    +0.000 A 
ATOM      7  C   UNL     1      87.423  70.911  86.134  0.00  0.00    +0.000 A 
ATOM      8  C   UNL     1      86.169  71.541  86.229  0.00  0.00    +0.000 A 
ATOM      9  C   UNL     1      85.474  71.906  85.067  0.00  0.00    +0.000 A 
ATOM     10  C   UNL     1      84.227  72.520  85.142  0.00  0.00    +0.000 A 
ATOM     11  C   UNL     1      83.655  72.776  86.383  0.00  0.00    +0.000 A 
ATOM     12  C   UNL     1      89.478  69.862  87.141  0.00  0.00    +0.000 C 
ENDROOT
BRANCH   5  13
ATOM     13  O   UNL     1      88.275  70.462  89.659  0.00  0.00    +0.000 OA
ATOM     14  C   UNL     1      88.539  71.609  90.468  0.00  0.00    +0.000 C 
ENDBRANCH   5  13
TORSDOF 1
ENDMDL
