REMARK  Name = *****
REMARK  3 active torsions:
REMARK  status: ('A' for Active; 'I' for Inactive)
REMARK    1  A    between atoms: C_1  and  C_2
REMARK    2  A    between atoms: C_2  and  O_3
REMARK    3  A    between atoms: O_3  and  C_4
REMARK                            x       y       z     vdW  Elec       q    Type
REMARK                         _______ _______ _______ _____ _____    ______ ____
ROOT
ATOM      1  C   UNL     1       4.303  -0.445  -1.502  0.00  0.00    +0.000 A 
ATOM      2  C   UNL     1       4.813   0.095  -2.687  0.00  0.00    +0.000 A 
ATOM      3  C   UNL     1       6.183   0.026  -2.990  0.00  0.00    +0.000 A 
ATOM      4  C   UNL     1       6.700   0.566  -4.179  0.00  0.00    +0.000 A 
ATOM      5  C   UNL     1       8.065   0.488  -4.464  0.00  0.00    +0.000 A 
ATOM      6  C   UNL     1       8.928  -0.130  -3.565  0.00  0.00    +0.000 A 
ATOM      7  C   UNL     1       8.430  -0.671  -2.379  0.00  0.00    +0.000 A 
ATOM      8  C   UNL     1       7.060  -0.601  -2.078  0.00  0.00    +0.000 A 
ATOM      9  C   UNL     1       6.539  -1.139  -0.891  0.00  0.00    +0.000 A 
ATOM     10  C   UNL     1       5.172  -1.062  -0.605  0.00  0.00    +0.000 A 
ENDROOT
BRANCH   1  11
ATOM     11  O   UNL     1       2.951  -0.303  -1.347  0.00  0.00    +0.000 OA
BRANCH  11  13
ATOM     12  C   UNL     1       0.880  -0.576  -0.203  0.00  0.00    +0.000 C 
ATOM     13  C   UNL     1       2.374  -0.839  -0.158  0.00  0.00    +0.000 C 
ENDBRANCH  11  13
ENDBRANCH   1  11
TORSDOF 2
