MODEL 1
REMARK VINA RESULT:      -4.1      0.000      0.000
REMARK  Name = *****
REMARK  0 active torsions:
REMARK  status: ('A' for Active; 'I' for Inactive)
REMARK                            x       y       z     vdW  Elec       q    Type
REMARK                         _______ _______ _______ _____ _____    ______ ____
ROOT
ATOM      1  C   UNL     1      85.182  72.001  86.124  0.00  0.00    +0.000 A 
ATOM      2  C   UNL     1      84.558  72.309  87.343  0.00  0.00    +0.000 A 
ATOM      3  C   UNL     1      85.187  72.026  88.557  0.00  0.00    +0.000 A 
ATOM      4  C   UNL     1      86.442  71.433  88.525  0.00  0.00    +0.000 A 
ATOM      5  C   UNL     1      87.067  71.124  87.304  0.00  0.00    +0.000 A 
ATOM      6  C   UNL     1      86.446  71.404  86.098  0.00  0.00    +0.000 A 
ATOM      7  C   UNL     1      88.358  70.517  87.591  0.00  0.00    +0.000 C 
ATOM      8  C   UNL     1      88.524  70.455  88.919  0.00  0.00    +0.000 C 
ATOM      9  C   UNL     1      87.343  71.022  89.659  0.00  0.00    +0.000 C 
ATOM     10 CL   UNL     1      86.596  69.772  90.664  0.00  0.00    +0.000 Cl
ATOM     11 CL   UNL     1      87.845  72.416  90.629  0.00  0.00    +0.000 Cl
ATOM     12 CL   UNL     1      89.454  69.985  86.418  0.00  0.00    +0.000 Cl
ENDROOT
TORSDOF 0
ENDMDL
