MODEL 1
REMARK VINA RESULT:      -4.0      0.000      0.000
REMARK  Name = *****
REMARK  2 active torsions:
REMARK  status: ('A' for Active; 'I' for Inactive)
REMARK    1  A    between atoms: C_1  and  O_2
REMARK    2  A    between atoms: O_2  and  C_3
REMARK                            x       y       z     vdW  Elec       q    Type
REMARK                         _______ _______ _______ _____ _____    ______ ____
ROOT
ATOM      1  C   UNL     1      88.995  70.286  86.196  0.00  0.00    +0.000 A 
ATOM      2  C   UNL     1      87.779  70.854  85.809  0.00  0.00    +0.000 A 
ATOM      3  C   UNL     1      86.806  71.263  86.760  0.00  0.00    +0.000 A 
ATOM      4  C   UNL     1      87.106  71.077  88.133  0.00  0.00    +0.000 A 
ATOM      5  C   UNL     1      86.182  71.463  89.117  0.00  0.00    +0.000 A 
ATOM      6  C   UNL     1      84.960  72.033  88.770  0.00  0.00    +0.000 A 
ATOM      7  C   UNL     1      84.644  72.225  87.431  0.00  0.00    +0.000 A 
ATOM      8  C   UNL     1      85.552  71.846  86.435  0.00  0.00    +0.000 A 
ATOM      9 BR   UNL     1      85.007  72.158  84.635  0.00  0.00    +0.000 Br
ATOM     10  C   UNL     1      88.330  70.505  88.510  0.00  0.00    +0.000 A 
ATOM     11  C   UNL     1      89.262  70.115  87.550  0.00  0.00    +0.000 A 
ENDROOT
BRANCH   1  13
ATOM     12  C   UNL     1      90.451  70.788  84.382  0.00  0.00    +0.000 C 
ATOM     13  O   UNL     1      89.990  69.864  85.359  0.00  0.00    +0.000 OA
ENDBRANCH   1  13
TORSDOF 1
ENDMDL
