MODEL 1
REMARK VINA RESULT:      -3.6      0.000      0.000
REMARK  Name = *****
REMARK  0 active torsions:
REMARK  status: ('A' for Active; 'I' for Inactive)
REMARK                            x       y       z     vdW  Elec       q    Type
REMARK                         _______ _______ _______ _____ _____    ______ ____
ROOT
ATOM      1  C   UNL     1      88.910  70.473  87.969  0.00  0.00    +0.000 C 
ATOM      2  C   UNL     1      88.469  70.863  89.405  0.00  0.00    +0.000 C 
ATOM      3  C   UNL     1      86.958  70.506  89.395  0.00  0.00    +0.000 C 
ATOM      4  C   UNL     1      87.091  69.126  88.723  0.00  0.00    +0.000 C 
ATOM      5  C   UNL     1      87.696  69.699  87.414  0.00  0.00    +0.000 C 
ATOM      6  C   UNL     1      86.506  70.582  87.068  0.00  0.00    +0.000 C 
ATOM      7  C   UNL     1      86.353  71.450  88.329  0.00  0.00    +0.000 C 
ATOM      8  C   UNL     1      85.019  72.014  87.987  0.00  0.00    +0.000 C 
ATOM      9  C   UNL     1      84.990  72.194  86.646  0.00  0.00    +0.000 C 
ATOM     10  C   UNL     1      86.210  71.567  85.966  0.00  0.00    +0.000 C 
ENDROOT
TORSDOF 0
ENDMDL
