MODEL 1
REMARK VINA RESULT:      -3.5      0.000      0.000
REMARK  Name = *****
REMARK  1 active torsions:
REMARK  status: ('A' for Active; 'I' for Inactive)
REMARK    1  A    between atoms: C_9  and  C_11
REMARK                            x       y       z     vdW  Elec       q    Type
REMARK                         _______ _______ _______ _____ _____    ______ ____
ROOT
ATOM      1  C   UNL     1      96.213 114.823  79.199  0.00  0.00    +0.000 A 
ATOM      2  C   UNL     1      96.179 115.258  80.527  0.00  0.00    +0.000 A 
ATOM      3  C   UNL     1      96.816 116.469  80.863  0.00  0.00    +0.000 A 
ATOM      4  C   UNL     1      97.475 117.241  79.904  0.00  0.00    +0.000 A 
ATOM      5  C   UNL     1      97.492 116.780  78.566  0.00  0.00    +0.000 A 
ATOM      6  C   UNL     1      96.862 115.579  78.232  0.00  0.00    +0.000 A 
ATOM      7 CL   UNL     1      96.894 115.030  76.601  0.00  0.00    +0.000 Cl
ATOM      8  C   UNL     1      98.039 118.423  80.490  0.00  0.00    +0.000 A 
ATOM      9  C   UNL     1      97.803 118.527  81.845  0.00  0.00    +0.000 A 
ATOM     10  S   UNL     1      96.902 117.196  82.422  0.00  0.00    +0.000 S 
ENDROOT
BRANCH   9  11
ATOM     11  C   UNL     1      98.237 119.607  82.780  0.00  0.00    +0.000 C 
ATOM     12 CL   UNL     1      99.596 119.045  83.780  0.00  0.00    +0.000 Cl
ENDBRANCH   9  11
TORSDOF 1
ENDMDL
