MODEL 1
REMARK VINA RESULT:      -3.7      0.000      0.000
REMARK  Name = *****
REMARK  3 active torsions:
REMARK  status: ('A' for Active; 'I' for Inactive)
REMARK    1  A    between atoms: C_1  and  O_2
REMARK    2  A    between atoms: O_2  and  C_3
REMARK    3  A    between atoms: C_10  and  C_12
REMARK                            x       y       z     vdW  Elec       q    Type
REMARK                         _______ _______ _______ _____ _____    ______ ____
ROOT
ATOM      1  C   UNL     1     104.604 125.775  80.119  0.00  0.00    +0.000 A 
ATOM      2  C   UNL     1     103.401 125.331  80.692  0.00  0.00    +0.000 A 
ATOM      3  C   UNL     1     102.658 126.209  81.502  0.00  0.00    +0.000 A 
ATOM      4  C   UNL     1     103.145 127.492  81.704  0.00  0.00    +0.000 A 
ATOM      5  C   UNL     1     104.331 127.970  81.154  0.00  0.00    +0.000 A 
ATOM      6  C   UNL     1     105.057 127.079  80.350  0.00  0.00    +0.000 A 
ATOM      7  O   UNL     1     102.304 128.199  82.506  0.00  0.00    +0.000 OA
ATOM      8  C   UNL     1     101.269 127.369  82.834  0.00  0.00    +0.000 A 
ATOM      9  C   UNL     1     101.442 126.138  82.232  0.00  0.00    +0.000 A 
ENDROOT
BRANCH   1  11
ATOM     10  C   UNL     1     105.637 123.633  80.004  0.00  0.00    +0.000 C 
ATOM     11  O   UNL     1     105.238 124.833  79.353  0.00  0.00    +0.000 OA
ENDBRANCH   1  11
BRANCH   8  12
ATOM     12  C   UNL     1     100.218 127.939  83.704  0.00  0.00    +0.000 C 
ATOM     13 CL   UNL     1      98.704 128.157  82.798  0.00  0.00    +0.000 Cl
ENDBRANCH   8  12
TORSDOF 2
ENDMDL
