MODEL 1
REMARK VINA RESULT:      -3.7      0.000      0.000
REMARK  Name = *****
REMARK  1 active torsions:
REMARK  status: ('A' for Active; 'I' for Inactive)
REMARK    1  A    between atoms: C_1  and  N_2
REMARK                            x       y       z     vdW  Elec       q    Type
REMARK                         _______ _______ _______ _____ _____    ______ ____
ROOT
ATOM      1  C   UNL     1      99.506 126.936  86.707  0.00  0.00    +0.000 C 
ATOM      2  N   UNL     1      99.610 126.891  85.276  0.00  0.00    +0.000 N 
ATOM      3  C   UNL     1     100.689 126.444  84.472  0.00  0.00    +0.000 A 
ATOM      4  C   UNL     1     100.348 126.585  83.117  0.00  0.00    +0.000 A 
ATOM      5  C   UNL     1     101.169 126.245  82.057  0.00  0.00    +0.000 A 
ATOM      6  C   UNL     1     102.416 125.729  82.375  0.00  0.00    +0.000 A 
ATOM      7  C   UNL     1     102.805 125.568  83.713  0.00  0.00    +0.000 A 
ATOM      8  C   UNL     1     101.945 125.924  84.770  0.00  0.00    +0.000 A 
ATOM      9 CL   UNL     1     102.556 125.671  86.358  0.00  0.00    +0.000 Cl
ATOM     10 BR   UNL     1     103.606 125.237  80.992  0.00  0.00    +0.000 Br
ATOM     11  C   UNL     1      99.001 127.142  83.038  0.00  0.00    +0.000 C 
ATOM     12  O   UNL     1      98.380 127.398  82.033  0.00  0.00    +0.000 OA
ATOM     13  C   UNL     1      98.546 127.331  84.494  0.00  0.00    +0.000 C 
ATOM     14  O   UNL     1      97.473 127.777  84.837  0.00  0.00    +0.000 OA
ENDROOT
TORSDOF 0
ENDMDL
