REMARK  Name = *****
REMARK  3 active torsions:
REMARK  status: ('A' for Active; 'I' for Inactive)
REMARK    1  A    between atoms: C_1  and  C_2
REMARK    2  A    between atoms: SI_4  and  C_11
REMARK    3  A    between atoms: SI_4  and  C_12
REMARK                            x       y       z     vdW  Elec       q    Type
REMARK                         _______ _______ _______ _____ _____    ______ ____
ROOT
ATOM      1  C   UNL     1       0.904   0.114   0.142  0.00  0.00    +0.000 C 
ATOM      2  C   UNL     1       2.403   0.002  -0.145  0.00  0.00    +0.000 C 
ATOM      3  C   UNL     1       3.182   1.225   0.420  0.00  0.00    +0.000 C 
ATOM      4 SI   UNL     1       4.027   0.652   2.067  0.00  0.00    +0.000 Si
ATOM      5  C   UNL     1       3.782  -1.146   1.607  0.00  0.00    +0.000 A 
ATOM      6  C   UNL     1       4.311  -2.266   2.242  0.00  0.00    +0.000 A 
ATOM      7  C   UNL     1       4.035  -3.531   1.720  0.00  0.00    +0.000 A 
ATOM      8  C   UNL     1       3.243  -3.669   0.575  0.00  0.00    +0.000 A 
ATOM      9  C   UNL     1       2.713  -2.545  -0.061  0.00  0.00    +0.000 A 
ATOM     10  C   UNL     1       2.980  -1.276   0.452  0.00  0.00    +0.000 A 
ATOM     11  C   UNL     1       5.805   1.151   2.129  0.00  0.00    +0.000 C 
ATOM     12  C   UNL     1       3.050   1.143   3.556  0.00  0.00    +0.000 C 
ENDROOT
TORSDOF 0
