MODEL 1
REMARK VINA RESULT:      -3.6      0.000      0.000
REMARK  Name = *****
REMARK  0 active torsions:
REMARK  status: ('A' for Active; 'I' for Inactive)
REMARK                            x       y       z     vdW  Elec       q    Type
REMARK                         _______ _______ _______ _____ _____    ______ ____
ROOT
ATOM      1  C   UNL     1      96.783 115.228  77.723  0.00  0.00    +0.000 C 
ATOM      2  C   UNL     1      96.089 114.557  78.662  0.00  0.00    +0.000 C 
ATOM      3  C   UNL     1      95.599 115.087  79.937  0.00  0.00    +0.000 C 
ATOM      4  C   UNL     1      96.044 116.158  80.622  0.00  0.00    +0.000 C 
ATOM      5  C   UNL     1      97.134 117.063  80.246  0.00  0.00    +0.000 C 
ATOM      6  C   UNL     1      97.372 118.048  81.128  0.00  0.00    +0.000 C 
ATOM      7  C   UNL     1      96.458 118.017  82.305  0.00  0.00    +0.000 C 
ATOM      8  S   UNL     1      96.396 119.039  83.626  0.00  0.00    +0.000 S 
ATOM      9  S   UNL     1      95.348 116.644  82.135  0.00  0.00    +0.000 S 
ATOM     10 CL   UNL     1      98.591 119.242  80.971  0.00  0.00    +0.000 Cl
ATOM     11  C   UNL     1      97.913 116.866  79.018  0.00  0.00    +0.000 C 
ATOM     12  C   UNL     1      97.181 116.617  77.913  0.00  0.00    +0.000 C 
ENDROOT
TORSDOF 0
ENDMDL
