MODEL 1
REMARK VINA RESULT:      -3.6      0.000      0.000
REMARK  Name = *****
REMARK  1 active torsions:
REMARK  status: ('A' for Active; 'I' for Inactive)
REMARK    1  A    between atoms: C_4  and  C_11
REMARK                            x       y       z     vdW  Elec       q    Type
REMARK                         _______ _______ _______ _____ _____    ______ ____
ROOT
ATOM      1  C   UNL     1      89.145  70.414  85.036  0.00  0.00    +0.000 C 
ATOM      2  C   UNL     1      89.705  70.789  86.407  0.00  0.00    +0.000 C 
ATOM      3  C   UNL     1      89.164  69.888  87.512  0.00  0.00    +0.000 C 
ATOM      4  C   UNL     1      87.615  69.958  87.642  0.00  0.00    +0.000 C 
ATOM      5  C   UNL     1      87.237  71.137  88.581  0.00  0.00    +0.000 C 
ATOM      6  C   UNL     1      85.767  71.529  88.475  0.00  0.00    +0.000 C 
ATOM      7  C   UNL     1      85.377  71.951  87.060  0.00  0.00    +0.000 C 
ATOM      8  C   UNL     1      86.379  71.517  85.993  0.00  0.00    +0.000 C 
ATOM      9  C   UNL     1      86.912  70.097  86.249  0.00  0.00    +0.000 C 
ATOM     10  C   UNL     1      87.829  69.640  85.104  0.00  0.00    +0.000 C 
ATOM     11  C   UNL     1      87.158  68.635  88.302  0.00  0.00    +0.000 C 
ENDROOT
TORSDOF 0
ENDMDL
