REMARK  Name = *****
REMARK  1 active torsions:
REMARK  status: ('A' for Active; 'I' for Inactive)
REMARK    1  A    between atoms: C_1  and  C_2
REMARK                            x       y       z     vdW  Elec       q    Type
REMARK                         _______ _______ _______ _____ _____    ______ ____
ROOT
ATOM      1  C   UNL     1       0.761   0.070   0.041  0.00  0.00    +0.000 C 
ATOM      2  C   UNL     1       2.255   0.072  -0.243  0.00  0.00    +0.000 C 
ATOM      3  S   UNL     1       3.034  -1.438   0.439  0.00  0.00    +0.000 S 
ATOM      4  C   UNL     1       4.282  -0.625   1.307  0.00  0.00    +0.000 A 
ATOM      5  C   UNL     1       4.285   0.712   1.328  0.00  0.00    +0.000 A 
ATOM      6  S   UNL     1       3.039   1.557   0.487  0.00  0.00    +0.000 S 
ATOM      7  S   UNL     1       5.542   1.498   2.213  0.00  0.00    +0.000 S 
ATOM      8  C   UNL     1       6.341   0.017   2.745  0.00  0.00    +0.000 A 
ATOM      9  S   UNL     1       7.711  -0.001   3.693  0.00  0.00    +0.000 S 
ATOM     10  S   UNL     1       5.537  -1.443   2.166  0.00  0.00    +0.000 S 
ENDROOT
TORSDOF 0
