MODEL 1
REMARK VINA RESULT:      -4.1      0.000      0.000
REMARK  Name = *****
REMARK  5 active torsions:
REMARK  status: ('A' for Active; 'I' for Inactive)
REMARK    1  A    between atoms: C_1  and  C_2
REMARK    2  A    between atoms: C_5  and  O_14
REMARK    3  A    between atoms: C_9  and  O_12
REMARK    4  A    between atoms: O_12  and  C_13
REMARK    5  A    between atoms: O_14  and  C_15
REMARK                            x       y       z     vdW  Elec       q    Type
REMARK                         _______ _______ _______ _____ _____    ______ ____
ROOT
ATOM      1  C   UNL     1      85.111  72.018  85.054  0.00  0.00    +0.000 C 
ATOM      2  C   UNL     1      85.496  71.836  86.500  0.00  0.00    +0.000 A 
ATOM      3  C   UNL     1      86.746  71.281  86.882  0.00  0.00    +0.000 A 
ATOM      4  C   UNL     1      87.716  70.859  85.937  0.00  0.00    +0.000 A 
ATOM      5  C   UNL     1      88.942  70.314  86.324  0.00  0.00    +0.000 A 
ATOM      6  C   UNL     1      89.220  70.179  87.678  0.00  0.00    +0.000 A 
ATOM      7  C   UNL     1      88.287  70.585  88.632  0.00  0.00    +0.000 A 
ATOM      8  C   UNL     1      87.042  71.138  88.265  0.00  0.00    +0.000 A 
ATOM      9  C   UNL     1      86.095  71.549  89.237  0.00  0.00    +0.000 A 
ATOM     10  C   UNL     1      84.874  72.093  88.836  0.00  0.00    +0.000 A 
ATOM     11  C   UNL     1      84.579  72.235  87.483  0.00  0.00    +0.000 A 
ENDROOT
BRANCH   9  12
ATOM     12  O   UNL     1      86.459  71.377  90.553  0.00  0.00    +0.000 OA
ATOM     13  C   UNL     1      86.570  72.535  91.368  0.00  0.00    +0.000 C 
ENDBRANCH   9  12
BRANCH   5  14
ATOM     14  O   UNL     1      89.935  69.882  85.490  0.00  0.00    +0.000 OA
ATOM     15  C   UNL     1      90.422  70.808  84.528  0.00  0.00    +0.000 C 
ENDBRANCH   5  14
TORSDOF 2
ENDMDL
