MODEL 1
REMARK VINA RESULT:      -3.8      0.000      0.000
REMARK  Name = *****
REMARK  0 active torsions:
REMARK  status: ('A' for Active; 'I' for Inactive)
REMARK                            x       y       z     vdW  Elec       q    Type
REMARK                         _______ _______ _______ _____ _____    ______ ____
ROOT
ATOM      1  C   UNL     1     102.536 125.569  82.102  0.00  0.00    +0.000 C 
ATOM      2  C   UNL     1     103.857 124.926  81.895  0.00  0.00    +0.000 C 
ATOM      3  C   UNL     1     103.794 126.299  82.049  0.00  0.00    +0.000 C 
ATOM      4  S   UNL     1     104.557 127.193  80.852  0.00  0.00    +0.000 S 
ATOM      5  C   UNL     1     105.007 125.776  80.081  0.00  0.00    +0.000 A 
ATOM      6  C   UNL     1     104.641 124.632  80.743  0.00  0.00    +0.000 A 
ATOM      7  C   UNL     1     105.135 123.384  80.203  0.00  0.00    +0.000 A 
ATOM      8  S   UNL     1     104.778 121.933  80.924  0.00  0.00    +0.000 S 
ATOM      9  N   UNL     1     105.894 123.486  79.052  0.00  0.00    +0.000 N 
ATOM     10  C   UNL     1     106.222 124.657  78.405  0.00  0.00    +0.000 A 
ATOM     11  S   UNL     1     107.156 124.643  77.029  0.00  0.00    +0.000 S 
ATOM     12  N   UNL     1     105.761 125.829  78.941  0.00  0.00    +0.000 N 
ATOM     13  H   UNL     1     106.229 122.646  78.660  0.00  0.00    +0.000 HD
ATOM     14  H   UNL     1     105.968 126.692  78.515  0.00  0.00    +0.000 HD
ENDROOT
TORSDOF 0
ENDMDL
