MODEL 1
REMARK VINA RESULT:      -4.0      0.000      0.000
REMARK  Name = *****
REMARK  2 active torsions:
REMARK  status: ('A' for Active; 'I' for Inactive)
REMARK    1  A    between atoms: C_1  and  O_2
REMARK    2  A    between atoms: O_2  and  C_3
REMARK                            x       y       z     vdW  Elec       q    Type
REMARK                         _______ _______ _______ _____ _____    ______ ____
ROOT
ATOM      1  C   UNL     1      98.712 127.524  82.873  0.00  0.00    +0.000 A 
ATOM      2  C   UNL     1      99.690 126.642  82.408  0.00  0.00    +0.000 A 
ATOM      3  C   UNL     1     101.060 126.931  82.527  0.00  0.00    +0.000 A 
ATOM      4  C   UNL     1     101.473 128.142  83.131  0.00  0.00    +0.000 A 
ATOM      5  C   UNL     1     100.465 129.022  83.594  0.00  0.00    +0.000 A 
ATOM      6  C   UNL     1      99.106 128.717  83.466  0.00  0.00    +0.000 A 
ATOM      7  C   UNL     1     102.865 128.395  83.232  0.00  0.00    +0.000 A 
ATOM      8  C   UNL     1     103.805 127.478  82.752  0.00  0.00    +0.000 A 
ATOM      9  C   UNL     1     103.382 126.293  82.161  0.00  0.00    +0.000 A 
ATOM     10  C   UNL     1     102.019 126.022  82.050  0.00  0.00    +0.000 A 
ATOM     11 CL   UNL     1     103.484 129.845  83.953  0.00  0.00    +0.000 Cl
ENDROOT
BRANCH   1  13
ATOM     12  C   UNL     1      96.913 126.164  83.624  0.00  0.00    +0.000 C 
ATOM     13  O   UNL     1      97.424 127.102  82.685  0.00  0.00    +0.000 OA
ENDBRANCH   1  13
TORSDOF 1
ENDMDL
