MODEL 1
REMARK VINA RESULT:      -4.3      0.000      0.000
REMARK  Name = *****
REMARK  3 active torsions:
REMARK  status: ('A' for Active; 'I' for Inactive)
REMARK    1  A    between atoms: C_6  and  C_8
REMARK    2  A    between atoms: C_8  and  C_9
REMARK    3  A    between atoms: C_9  and  C_10
REMARK                            x       y       z     vdW  Elec       q    Type
REMARK                         _______ _______ _______ _____ _____    ______ ____
ROOT
ATOM      1  C   UNL     1      98.645 128.494  83.335  0.00  0.00    +0.000 A 
ATOM      2  C   UNL     1      99.021 127.324  82.662  0.00  0.00    +0.000 A 
ATOM      3  C   UNL     1     100.390 127.039  82.554  0.00  0.00    +0.000 A 
ATOM      4  C   UNL     1     101.378 127.871  83.087  0.00  0.00    +0.000 A 
ATOM      5  C   UNL     1     102.632 127.264  82.784  0.00  0.00    +0.000 A 
ATOM      6  C   UNL     1     102.389 126.093  82.095  0.00  0.00    +0.000 A 
ATOM      7  N   UNL     1     101.027 125.977  81.954  0.00  0.00    +0.000 N 
ATOM      8  C   UNL     1     100.954 129.037  83.754  0.00  0.00    +0.000 A 
ATOM      9  C   UNL     1      99.600 129.348  83.879  0.00  0.00    +0.000 A 
ATOM     10 CL   UNL     1     102.175 130.042  84.403  0.00  0.00    +0.000 Cl
ATOM     11  H   UNL     1     100.572 125.238  81.490  0.00  0.00    +0.000 HD
ENDROOT
BRANCH   6  12
ATOM     12  C   UNL     1     103.326 125.068  81.550  0.00  0.00    +0.000 C 
BRANCH  12  13
ATOM     13  C   UNL     1     104.029 125.531  80.270  0.00  0.00    +0.000 C 
BRANCH  13  14
ATOM     14  C   UNL     1     105.115 124.595  79.747  0.00  0.00    +0.000 C 
ATOM     15 CL   UNL     1     104.927 122.935  80.359  0.00  0.00    +0.000 Cl
ENDBRANCH  13  14
ENDBRANCH  12  13
ENDBRANCH   6  12
TORSDOF 3
ENDMDL
