MODEL 1
REMARK VINA RESULT:      -4.5      0.000      0.000
REMARK  Name = *****
REMARK  1 active torsions:
REMARK  status: ('A' for Active; 'I' for Inactive)
REMARK    1  A    between atoms: N_12  and  O_13
REMARK                            x       y       z     vdW  Elec       q    Type
REMARK                         _______ _______ _______ _____ _____    ______ ____
ROOT
ATOM      1  C   UNL     1     102.875 125.554  83.811  0.00  0.00    +0.000 A 
ATOM      2  C   UNL     1     102.435 126.858  83.601  0.00  0.00    +0.000 A 
ATOM      3  C   UNL     1     102.606 127.475  82.365  0.00  0.00    +0.000 A 
ATOM      4  C   UNL     1     103.225 126.777  81.325  0.00  0.00    +0.000 A 
ATOM      5  C   UNL     1     103.680 125.459  81.505  0.00  0.00    +0.000 A 
ATOM      6  C   UNL     1     103.493 124.864  82.767  0.00  0.00    +0.000 A 
ATOM      7  N   UNL     1     103.939 123.557  82.983  0.00  0.00    +0.000 N 
ATOM      8  C   UNL     1     104.563 122.836  81.998  0.00  0.00    +0.000 A 
ATOM      9  O   UNL     1     105.001 121.705  82.148  0.00  0.00    +0.000 OA
ATOM     10  C   UNL     1     104.715 123.539  80.638  0.00  0.00    +0.000 A 
ATOM     11  N   UNL     1     104.299 124.763  80.443  0.00  0.00    +0.000 NA
ATOM     12  N   UNL     1     105.315 122.807  79.626  0.00  0.00    +0.000 N 
ATOM     13 CL   UNL     1     103.416 127.589  79.808  0.00  0.00    +0.000 Cl
ATOM     14 CL   UNL     1     101.672 127.714  84.883  0.00  0.00    +0.000 Cl
ATOM     15  H   UNL     1     103.803 123.142  83.866  0.00  0.00    +0.000 HD
ATOM     16  H   UNL     1     105.286 121.824  79.580  0.00  0.00    +0.000 HD
ENDROOT
BRANCH  12  17
ATOM     17  O   UNL     1     105.965 123.606  78.675  0.00  0.00    +0.000 OA
ATOM     18  H   UNL     1     106.075 124.503  79.027  0.00  0.00    +0.000 HD
ENDBRANCH  12  17
TORSDOF 1
ENDMDL
