REMARK  Name = *****
REMARK  4 active torsions:
REMARK  status: ('A' for Active; 'I' for Inactive)
REMARK    1  A    between atoms: C_1  and  C_2
REMARK    2  A    between atoms: C_3  and  C_13
REMARK    3  A    between atoms: C_6  and  C_7
REMARK    4  A    between atoms: C_9  and  C_12
REMARK                            x       y       z     vdW  Elec       q    Type
REMARK                         _______ _______ _______ _____ _____    ______ ____
ROOT
ATOM      1  C   UNL     1       1.279   0.347  -0.563  0.00  0.00    +0.000 C 
ATOM      2  C   UNL     1       2.582   0.106   0.189  0.00  0.00    +0.000 C 
ATOM      3  C   UNL     1       2.976   1.214   1.209  0.00  0.00    +0.000 C 
ATOM      4  C   UNL     1       3.853   0.439   2.153  0.00  0.00    +0.000 A 
ATOM      5  C   UNL     1       3.690  -0.940   1.996  0.00  0.00    +0.000 A 
ATOM      6  C   UNL     1       2.681  -1.262   0.927  0.00  0.00    +0.000 C 
ATOM      7  C   UNL     1       1.384  -1.800   1.521  0.00  0.00    +0.000 C 
ATOM      8  C   UNL     1       4.400  -1.837   2.783  0.00  0.00    +0.000 A 
ATOM      9  C   UNL     1       5.300  -1.341   3.736  0.00  0.00    +0.000 A 
ATOM     10  C   UNL     1       5.448   0.050   3.896  0.00  0.00    +0.000 A 
ATOM     11  C   UNL     1       4.728   0.946   3.102  0.00  0.00    +0.000 A 
ATOM     12  C   UNL     1       6.059  -2.283   4.624  0.00  0.00    +0.000 C 
ATOM     13  C   UNL     1       1.824   1.894   1.941  0.00  0.00    +0.000 C 
ENDROOT
TORSDOF 0
