MODEL 1
REMARK VINA RESULT:      -4.4      0.000      0.000
REMARK  Name = *****
REMARK  0 active torsions:
REMARK  status: ('A' for Active; 'I' for Inactive)
REMARK                            x       y       z     vdW  Elec       q    Type
REMARK                         _______ _______ _______ _____ _____    ______ ____
ROOT
ATOM      1  C   UNL     1     100.369 128.671  83.454  0.00  0.00    +0.000 A 
ATOM      2  C   UNL     1      99.123 128.226  83.249  0.00  0.00    +0.000 A 
ATOM      3  C   UNL     1      98.866 126.945  82.554  0.00  0.00    +0.000 A 
ATOM      4  O   UNL     1      97.723 126.545  82.370  0.00  0.00    +0.000 OA
ATOM      5  N   UNL     1      99.965 126.245  82.137  0.00  0.00    +0.000 N 
ATOM      6  C   UNL     1     101.285 126.677  82.333  0.00  0.00    +0.000 A 
ATOM      7  C   UNL     1     101.532 127.896  82.993  0.00  0.00    +0.000 A 
ATOM      8  C   UNL     1     102.865 128.300  83.172  0.00  0.00    +0.000 A 
ATOM      9  C   UNL     1     103.918 127.506  82.704  0.00  0.00    +0.000 A 
ATOM     10  C   UNL     1     103.644 126.305  82.053  0.00  0.00    +0.000 A 
ATOM     11  C   UNL     1     102.333 125.883  81.864  0.00  0.00    +0.000 A 
ATOM     12 CL   UNL     1     104.943 125.334  81.478  0.00  0.00    +0.000 Cl
ATOM     13 CL   UNL     1     103.286 129.777  83.969  0.00  0.00    +0.000 Cl
ATOM     14  H   UNL     1      99.822 125.389  81.674  0.00  0.00    +0.000 HD
ENDROOT
TORSDOF 0
ENDMDL
