MODEL 1
REMARK VINA RESULT:      -4.6      0.000      0.000
REMARK  Name = *****
REMARK  0 active torsions:
REMARK  status: ('A' for Active; 'I' for Inactive)
REMARK                            x       y       z     vdW  Elec       q    Type
REMARK                         _______ _______ _______ _____ _____    ______ ____
ROOT
ATOM      1  C   UNL     1     101.822 129.009  83.790  0.00  0.00    +0.000 A 
ATOM      2  C   UNL     1     103.178 128.817  83.506  0.00  0.00    +0.000 A 
ATOM      3  C   UNL     1     103.615 127.748  82.706  0.00  0.00    +0.000 A 
ATOM      4  C   UNL     1     102.688 126.849  82.173  0.00  0.00    +0.000 A 
ATOM      5  C   UNL     1     101.348 127.046  82.458  0.00  0.00    +0.000 A 
ATOM      6  C   UNL     1     100.916 128.107  83.254  0.00  0.00    +0.000 A 
ATOM      7  C   UNL     1      99.417 128.067  83.390  0.00  0.00    +0.000 C 
ATOM      8  C   UNL     1      99.061 126.810  82.539  0.00  0.00    +0.000 C 
ATOM      9  O   UNL     1      97.958 126.331  82.319  0.00  0.00    +0.000 OA
ATOM     10  N   UNL     1     100.257 126.290  82.043  0.00  0.00    +0.000 N 
ATOM     11  F   UNL     1      99.015 127.940  84.686  0.00  0.00    +0.000 F 
ATOM     12  F   UNL     1      98.821 129.196  82.911  0.00  0.00    +0.000 F 
ATOM     13 BR   UNL     1     103.271 125.412  81.098  0.00  0.00    +0.000 Br
ATOM     14 BR   UNL     1     104.450 130.023  84.216  0.00  0.00    +0.000 Br
ATOM     15  H   UNL     1     100.321 125.491  81.473  0.00  0.00    +0.000 HD
ENDROOT
TORSDOF 0
ENDMDL
