MODEL 1
REMARK VINA RESULT:      -4.0      0.000      0.000
REMARK  Name = *****
REMARK  1 active torsions:
REMARK  status: ('A' for Active; 'I' for Inactive)
REMARK    1  A    between atoms: C_7  and  C_11
REMARK                            x       y       z     vdW  Elec       q    Type
REMARK                         _______ _______ _______ _____ _____    ______ ____
ROOT
ATOM      1  C   UNL     1     103.198 125.069  81.653  0.00  0.00    +0.000 A 
ATOM      2  C   UNL     1     102.602 126.273  82.048  0.00  0.00    +0.000 A 
ATOM      3  C   UNL     1     103.034 127.495  81.541  0.00  0.00    +0.000 A 
ATOM      4  C   UNL     1     104.080 127.539  80.620  0.00  0.00    +0.000 A 
ATOM      5  C   UNL     1     104.675 126.334  80.225  0.00  0.00    +0.000 A 
ATOM      6  C   UNL     1     104.259 125.093  80.721  0.00  0.00    +0.000 A 
ATOM      7  C   UNL     1     105.076 124.084  80.110  0.00  0.00    +0.000 A 
ATOM      8  C   UNL     1     105.941 124.754  79.282  0.00  0.00    +0.000 A 
ATOM      9  N   UNL     1     105.708 126.092  79.346  0.00  0.00    +0.000 N 
ATOM     10 CL   UNL     1     107.185 124.233  78.247  0.00  0.00    +0.000 Cl
ATOM     11 CL   UNL     1     104.623 129.040  79.985  0.00  0.00    +0.000 Cl
ATOM     12 CL   UNL     1     101.309 126.240  83.185  0.00  0.00    +0.000 Cl
ATOM     13  H   UNL     1     106.199 126.779  78.842  0.00  0.00    +0.000 HD
ENDROOT
BRANCH   7  14
ATOM     14  C   UNL     1     105.031 122.648  80.301  0.00  0.00    +0.000 C 
ATOM     15  O   UNL     1     106.008 121.973  80.611  0.00  0.00    +0.000 OA
ENDBRANCH   7  14
TORSDOF 1
ENDMDL
