MODEL 1
REMARK VINA RESULT:      -3.7      0.000      0.000
REMARK  Name = *****
REMARK  1 active torsions:
REMARK  status: ('A' for Active; 'I' for Inactive)
REMARK    1  A    between atoms: C_1  and  C_2
REMARK                            x       y       z     vdW  Elec       q    Type
REMARK                         _______ _______ _______ _____ _____    ______ ____
ROOT
ATOM      1  C   UNL     1     102.353 128.595  83.449  0.00  0.00    +0.000 C 
ATOM      2  C   UNL     1     102.733 127.694  82.330  0.00  0.00    +0.000 C 
ATOM      3  C   UNL     1     103.642 127.931  81.377  0.00  0.00    +0.000 C 
ATOM      4  C   UNL     1     103.731 126.806  80.392  0.00  0.00    +0.000 C 
ATOM      5  C   UNL     1     105.177 126.400  80.090  0.00  0.00    +0.000 C 
ATOM      6  C   UNL     1     105.237 124.972  79.564  0.00  0.00    +0.000 C 
ATOM      7  C   UNL     1     104.700 123.960  80.578  0.00  0.00    +0.000 C 
ATOM      8  C   UNL     1     103.788 124.578  81.639  0.00  0.00    +0.000 C 
ATOM      9  C   UNL     1     102.900 125.684  81.055  0.00  0.00    +0.000 C 
ATOM     10  C   UNL     1     102.054 126.374  82.140  0.00  0.00    +0.000 C 
ENDROOT
TORSDOF 0
ENDMDL
