REMARK  Name = *****
REMARK  2 active torsions:
REMARK  status: ('A' for Active; 'I' for Inactive)
REMARK    1  A    between atoms: C_1  and  O_2
REMARK    2  A    between atoms: O_2  and  C_3
REMARK                            x       y       z     vdW  Elec       q    Type
REMARK                         _______ _______ _______ _____ _____    ______ ____
ROOT
ATOM      1  C   UNL     1       3.101   0.377   1.174  0.00  0.00    +0.000 A 
ATOM      2  C   UNL     1       2.734  -0.103   2.433  0.00  0.00    +0.000 A 
ATOM      3  C   UNL     1       3.466   0.251   3.582  0.00  0.00    +0.000 A 
ATOM      4  C   UNL     1       4.587   1.105   3.457  0.00  0.00    +0.000 A 
ATOM      5  C   UNL     1       4.945   1.581   2.189  0.00  0.00    +0.000 A 
ATOM      6  C   UNL     1       4.207   1.219   1.061  0.00  0.00    +0.000 A 
ATOM      7  C   UNL     1       5.319   1.458   4.603  0.00  0.00    +0.000 A 
ATOM      8  C   UNL     1       4.950   0.976   5.860  0.00  0.00    +0.000 A 
ATOM      9  C   UNL     1       3.847   0.138   5.979  0.00  0.00    +0.000 A 
ATOM     10  C   UNL     1       3.107  -0.226   4.853  0.00  0.00    +0.000 A 
ATOM     11 BR   UNL     1       3.346  -0.516   7.681  0.00  0.00    +0.000 Br
ENDROOT
BRANCH   1  13
ATOM     12  C   UNL     1       1.344  -0.763   0.045  0.00  0.00    +0.000 C 
ATOM     13  O   UNL     1       2.470   0.104  -0.009  0.00  0.00    +0.000 OA
ENDBRANCH   1  13
TORSDOF 1
