MODEL 1
REMARK VINA RESULT:      -3.7      0.000      0.000
REMARK  Name = *****
REMARK  0 active torsions:
REMARK  status: ('A' for Active; 'I' for Inactive)
REMARK                            x       y       z     vdW  Elec       q    Type
REMARK                         _______ _______ _______ _____ _____    ______ ____
ROOT
ATOM      1  C   UNL     1      88.529  64.240  89.548  0.00  0.00    +0.000 A 
ATOM      2  C   UNL     1      88.430  63.771  88.261  0.00  0.00    +0.000 A 
ATOM      3  C   UNL     1      87.444  62.864  87.870  0.00  0.00    +0.000 A 
ATOM      4  C   UNL     1      86.504  62.377  88.745  0.00  0.00    +0.000 A 
ATOM      5  C   UNL     1      86.579  62.838  90.068  0.00  0.00    +0.000 A 
ATOM      6  C   UNL     1      87.583  63.761  90.466  0.00  0.00    +0.000 A 
ATOM      7 CL   UNL     1      87.695  64.342  92.092  0.00  0.00    +0.000 Cl
ATOM      8 CL   UNL     1      85.402  62.232  91.183  0.00  0.00    +0.000 Cl
ATOM      9  N   UNL     1      87.621  62.594  86.515  0.00  0.00    +0.000 N 
ATOM     10  C   UNL     1      88.719  63.333  86.058  0.00  0.00    +0.000 A 
ATOM     11  S   UNL     1      89.317  63.344  84.524  0.00  0.00    +0.000 S 
ATOM     12  N   UNL     1      89.215  64.060  87.147  0.00  0.00    +0.000 N 
ATOM     13  H   UNL     1      87.068  61.987  85.972  0.00  0.00    +0.000 HD
ATOM     14  H   UNL     1      89.986  64.671  87.129  0.00  0.00    +0.000 HD
ENDROOT
TORSDOF 0
ENDMDL
