REMARK  Name = *****
REMARK  3 active torsions:
REMARK  status: ('A' for Active; 'I' for Inactive)
REMARK    1  A    between atoms: C_1  and  O_2
REMARK    2  A    between atoms: O_2  and  C_3
REMARK    3  A    between atoms: C_4  and  S_13
REMARK                            x       y       z     vdW  Elec       q    Type
REMARK                         _______ _______ _______ _____ _____    ______ ____
ROOT
ATOM      1  C   UNL     1       3.079   1.243  -0.013  0.00  0.00    +0.000 A 
ATOM      2  C   UNL     1       4.199   1.457  -0.853  0.00  0.00    +0.000 A 
ATOM      3  C   UNL     1       5.007   2.633  -0.707  0.00  0.00    +0.000 A 
ATOM      4  C   UNL     1       6.151   2.958  -1.483  0.00  0.00    +0.000 A 
ATOM      5  C   UNL     1       6.890   4.128  -1.279  0.00  0.00    +0.000 A 
ATOM      6  C   UNL     1       6.513   5.018  -0.287  0.00  0.00    +0.000 A 
ATOM      7  C   UNL     1       5.399   4.736   0.498  0.00  0.00    +0.000 A 
ATOM      8  C   UNL     1       4.649   3.564   0.302  0.00  0.00    +0.000 A 
ATOM      9  C   UNL     1       3.539   3.325   1.120  0.00  0.00    +0.000 A 
ATOM     10  C   UNL     1       2.762   2.179   0.969  0.00  0.00    +0.000 A 
ENDROOT
BRANCH   2  11
ATOM     11  S   UNL     1       4.523   0.155  -2.095  0.00  0.00    +0.000 S 
ATOM     12  O   UNL     1       5.031   0.834  -3.332  0.00  0.00    +0.000 OA
ATOM     13 CL   UNL     1       6.217  -0.606  -1.404  0.00  0.00    +0.000 Cl
ENDBRANCH   2  11
BRANCH   1  15
ATOM     14  C   UNL     1       1.145  -0.076   0.497  0.00  0.00    +0.000 C 
ATOM     15  O   UNL     1       2.364   0.087  -0.219  0.00  0.00    +0.000 OA
ENDBRANCH   1  15
TORSDOF 2
