MODEL 1
REMARK VINA RESULT:      -4.3      0.000      0.000
REMARK  Name = *****
REMARK  2 active torsions:
REMARK  status: ('A' for Active; 'I' for Inactive)
REMARK    1  A    between atoms: C_6  and  O_11
REMARK    2  A    between atoms: O_11  and  C_12
REMARK                            x       y       z     vdW  Elec       q    Type
REMARK                         _______ _______ _______ _____ _____    ______ ____
ROOT
ATOM      1  C   UNL     1      84.415  72.348  87.812  0.00  0.00    +0.000 A 
ATOM      2  C   UNL     1      84.483  72.347  86.423  0.00  0.00    +0.000 A 
ATOM      3  C   UNL     1      85.607  71.826  85.780  0.00  0.00    +0.000 A 
ATOM      4  C   UNL     1      86.678  71.299  86.522  0.00  0.00    +0.000 A 
ATOM      5  C   UNL     1      87.818  70.773  85.892  0.00  0.00    +0.000 A 
ATOM      6  C   UNL     1      88.887  70.266  86.636  0.00  0.00    +0.000 A 
ATOM      7  C   UNL     1      88.806  70.249  88.028  0.00  0.00    +0.000 A 
ATOM      8  C   UNL     1      87.676  70.767  88.669  0.00  0.00    +0.000 A 
ATOM      9  C   UNL     1      86.608  71.300  87.932  0.00  0.00    +0.000 A 
ATOM     10  C   UNL     1      85.469  71.827  88.564  0.00  0.00    +0.000 A 
ENDROOT
BRANCH   6  11
ATOM     11  O   UNL     1      89.933  69.789  85.895  0.00  0.00    +0.000 OA
BRANCH  11  12
ATOM     12  C   UNL     1      90.044  70.308  84.581  0.00  0.00    +0.000 C 
ATOM     13  F   UNL     1      91.036  71.232  84.549  0.00  0.00    +0.000 F 
ATOM     14  F   UNL     1      90.439  69.289  83.776  0.00  0.00    +0.000 F 
ENDBRANCH  11  12
ENDBRANCH   6  11
TORSDOF 2
ENDMDL
