REMARK  Name = *****
REMARK  1 active torsions:
REMARK  status: ('A' for Active; 'I' for Inactive)
REMARK    1  A    between atoms: C_1  and  C_2
REMARK                            x       y       z     vdW  Elec       q    Type
REMARK                         _______ _______ _______ _____ _____    ______ ____
ROOT
ATOM      1  C   UNL     1       0.895   0.348  -0.127  0.00  0.00    +0.000 C 
ATOM      2  C   UNL     1       2.405   0.172  -0.088  0.00  0.00    +0.000 C 
ATOM      3  C   UNL     1       2.848  -1.151   0.488  0.00  0.00    +0.000 A 
ATOM      4  C   UNL     1       3.657  -0.923   1.604  0.00  0.00    +0.000 A 
ATOM      5  C   UNL     1       4.213  -1.961   2.332  0.00  0.00    +0.000 A 
ATOM      6  C   UNL     1       3.946  -3.268   1.926  0.00  0.00    +0.000 A 
ATOM      7  C   UNL     1       3.133  -3.502   0.804  0.00  0.00    +0.000 A 
ATOM      8  C   UNL     1       2.576  -2.446   0.074  0.00  0.00    +0.000 A 
ATOM      9 CL   UNL     1       2.814  -5.122   0.317  0.00  0.00    +0.000 Cl
ATOM     10 CL   UNL     1       5.200  -1.665   3.706  0.00  0.00    +0.000 Cl
ATOM     11  N   UNL     1       3.778   0.444   1.825  0.00  0.00    +0.000 N 
ATOM     12  C   UNL     1       3.062   1.182   0.886  0.00  0.00    +0.000 C 
ATOM     13  O   UNL     1       2.978   2.399   0.872  0.00  0.00    +0.000 OA
ATOM     14 CL   UNL     1       3.119   0.403  -1.704  0.00  0.00    +0.000 Cl
ATOM     15  H   UNL     1       4.304   0.841   2.556  0.00  0.00    +0.000 HD
ENDROOT
TORSDOF 0
