REMARK  Name = *****
REMARK  3 active torsions:
REMARK  status: ('A' for Active; 'I' for Inactive)
REMARK    1  A    between atoms: C_1  and  O_2
REMARK    2  A    between atoms: O_2  and  C_3
REMARK    3  A    between atoms: C_4  and  C_13
REMARK                            x       y       z     vdW  Elec       q    Type
REMARK                         _______ _______ _______ _____ _____    ______ ____
ROOT
ATOM      1  C   UNL     1       2.903  -0.909   0.891  0.00  0.00    +0.000 A 
ATOM      2  C   UNL     1       3.981  -0.553   1.723  0.00  0.00    +0.000 A 
ATOM      3  C   UNL     1       4.659  -1.505   2.532  0.00  0.00    +0.000 A 
ATOM      4  C   UNL     1       5.747  -1.203   3.389  0.00  0.00    +0.000 A 
ATOM      5  C   UNL     1       6.374  -2.191   4.151  0.00  0.00    +0.000 A 
ATOM      6  C   UNL     1       5.935  -3.505   4.078  0.00  0.00    +0.000 A 
ATOM      7  C   UNL     1       4.867  -3.832   3.244  0.00  0.00    +0.000 A 
ATOM      8  C   UNL     1       4.225  -2.850   2.471  0.00  0.00    +0.000 A 
ATOM      9  C   UNL     1       3.155  -3.199   1.635  0.00  0.00    +0.000 A 
ATOM     10  C   UNL     1       2.499  -2.242   0.855  0.00  0.00    +0.000 A 
ENDROOT
BRANCH   2  11
ATOM     11  C   UNL     1       4.416   0.864   1.736  0.00  0.00    +0.000 C 
ATOM     12  O   UNL     1       4.245   1.499   2.775  0.00  0.00    +0.000 OA
ATOM     13 CL   UNL     1       5.203   1.487   0.304  0.00  0.00    +0.000 Cl
ENDBRANCH   2  11
BRANCH   1  15
ATOM     14  C   UNL     1       1.196  -0.230  -0.640  0.00  0.00    +0.000 C 
ATOM     15  O   UNL     1       2.314   0.099   0.176  0.00  0.00    +0.000 OA
ENDBRANCH   1  15
TORSDOF 2
