REMARK  Name = *****
REMARK  1 active torsions:
REMARK  status: ('A' for Active; 'I' for Inactive)
REMARK    1  A    between atoms: C_9  and  C_11
REMARK                            x       y       z     vdW  Elec       q    Type
REMARK                         _______ _______ _______ _____ _____    ______ ____
ROOT
ATOM      1  C   UNL     1       2.080  -0.713  -0.032  0.00  0.00    +0.000 A 
ATOM      2  C   UNL     1       0.871  -1.417  -0.066  0.00  0.00    +0.000 A 
ATOM      3  C   UNL     1      -0.310  -0.667  -0.088  0.00  0.00    +0.000 A 
ATOM      4  C   UNL     1      -0.320   0.729  -0.077  0.00  0.00    +0.000 A 
ATOM      5  C   UNL     1       0.908   1.418  -0.042  0.00  0.00    +0.000 A 
ATOM      6  C   UNL     1       2.095   0.680  -0.020  0.00  0.00    +0.000 A 
ATOM      7 CL   UNL     1       3.604   1.510   0.021  0.00  0.00    +0.000 Cl
ATOM      8  C   UNL     1      -1.682   1.140  -0.106  0.00  0.00    +0.000 A 
ATOM      9  C   UNL     1      -2.462   0.004  -0.135  0.00  0.00    +0.000 A 
ATOM     10  N   UNL     1      -1.624  -1.080  -0.123  0.00  0.00    +0.000 N 
ATOM     11  H   UNL     1      -1.918  -2.019  -0.137  0.00  0.00    +0.000 HD
ENDROOT
BRANCH   9  12
ATOM     12  C   UNL     1      -3.879  -0.093  -0.171  0.00  0.00    +0.000 C 
ATOM     13  N   UNL     1      -5.033  -0.201  -0.201  0.00  0.00    +0.000 NA
ENDBRANCH   9  12
TORSDOF 1
