MODEL 1
REMARK VINA RESULT:      -4.3      0.000      0.000
REMARK  Name = *****
REMARK  4 active torsions:
REMARK  status: ('A' for Active; 'I' for Inactive)
REMARK    1  A    between atoms: C_1  and  C_2
REMARK    2  A    between atoms: C_4  and  C_13
REMARK    3  A    between atoms: C_6  and  C_12
REMARK    4  A    between atoms: C_7  and  C_11
REMARK                            x       y       z     vdW  Elec       q    Type
REMARK                         _______ _______ _______ _____ _____    ______ ____
ROOT
ATOM      1  C   UNL     1     105.265 125.388  80.968  0.00  0.00    +0.000 C 
ATOM      2  C   UNL     1     104.124 126.150  81.576  0.00  0.00    +0.000 A 
ATOM      3  C   UNL     1     104.343 127.352  82.250  0.00  0.00    +0.000 A 
ATOM      4  C   UNL     1     103.291 128.097  82.833  0.00  0.00    +0.000 A 
ATOM      5  C   UNL     1     101.966 127.590  82.720  0.00  0.00    +0.000 A 
ATOM      6  C   UNL     1     100.659 128.024  83.154  0.00  0.00    +0.000 A 
ATOM      7  C   UNL     1      99.744 127.073  82.725  0.00  0.00    +0.000 A 
ATOM      8  N   UNL     1     100.437 126.099  82.060  0.00  0.00    +0.000 N 
ATOM      9  C   UNL     1     101.780 126.384  82.040  0.00  0.00    +0.000 A 
ATOM     10  C   UNL     1     102.823 125.650  81.465  0.00  0.00    +0.000 A 
ATOM     11  C   UNL     1      98.269 126.987  82.877  0.00  0.00    +0.000 C 
ATOM     12  C   UNL     1     100.294 129.250  83.920  0.00  0.00    +0.000 C 
ATOM     13  C   UNL     1     103.642 129.379  83.537  0.00  0.00    +0.000 C 
ATOM     14  H   UNL     1     100.028 125.302  81.652  0.00  0.00    +0.000 HD
ENDROOT
TORSDOF 0
ENDMDL
