MODEL 1
REMARK VINA RESULT:      -4.8      0.000      0.000
REMARK  Name = *****
REMARK  0 active torsions:
REMARK  status: ('A' for Active; 'I' for Inactive)
REMARK                            x       y       z     vdW  Elec       q    Type
REMARK                         _______ _______ _______ _____ _____    ______ ____
ROOT
ATOM      1  C   UNL     1     100.019 129.944  84.446  0.00  0.00    +0.000 A 
ATOM      2  C   UNL     1     101.401 129.740  84.241  0.00  0.00    +0.000 A 
ATOM      3  C   UNL     1     101.873 128.621  83.509  0.00  0.00    +0.000 A 
ATOM      4  C   UNL     1     103.194 128.208  83.176  0.00  0.00    +0.000 A 
ATOM      5  C   UNL     1     103.423 127.030  82.421  0.00  0.00    +0.000 A 
ATOM      6  C   UNL     1     102.363 126.219  81.969  0.00  0.00    +0.000 A 
ATOM      7  C   UNL     1     101.096 126.650  82.310  0.00  0.00    +0.000 A 
ATOM      8  C   UNL     1     100.891 127.796  83.045  0.00  0.00    +0.000 A 
ATOM      9  C   UNL     1      99.526 127.962  83.224  0.00  0.00    +0.000 A 
ATOM     10  C   UNL     1      99.053 129.057  83.940  0.00  0.00    +0.000 A 
ATOM     11  C   UNL     1      98.814 126.877  82.580  0.00  0.00    +0.000 C 
ATOM     12  O   UNL     1      97.624 126.610  82.478  0.00  0.00    +0.000 OA
ATOM     13  N   UNL     1      99.853 126.108  82.038  0.00  0.00    +0.000 N 
ATOM     14  I   UNL     1     104.876 129.306  83.776  0.00  0.00    +0.000 I 
ATOM     15  H   UNL     1      99.715 125.280  81.525  0.00  0.00    +0.000 HD
ENDROOT
TORSDOF 0
ENDMDL
