MODEL 1
REMARK VINA RESULT:      -4.1      0.000      0.000
REMARK  Name = *****
REMARK  0 active torsions:
REMARK  status: ('A' for Active; 'I' for Inactive)
REMARK                            x       y       z     vdW  Elec       q    Type
REMARK                         _______ _______ _______ _____ _____    ______ ____
ROOT
ATOM      1  C   UNL     1     101.880 128.640  83.486  0.00  0.00    +0.000 A 
ATOM      2  C   UNL     1     100.818 127.859  83.078  0.00  0.00    +0.000 A 
ATOM      3  C   UNL     1     100.985 126.685  82.349  0.00  0.00    +0.000 A 
ATOM      4  C   UNL     1     102.240 126.238  81.993  0.00  0.00    +0.000 A 
ATOM      5  C   UNL     1     103.343 127.011  82.394  0.00  0.00    +0.000 A 
ATOM      6  C   UNL     1     103.164 128.205  83.136  0.00  0.00    +0.000 A 
ATOM      7 BR   UNL     1     104.617 129.290  83.703  0.00  0.00    +0.000 Br
ATOM      8 BR   UNL     1     105.060 126.367  81.888  0.00  0.00    +0.000 Br
ATOM      9  N   UNL     1      99.763 126.085  82.061  0.00  0.00    +0.000 N 
ATOM     10  C   UNL     1      98.715 126.822  82.579  0.00  0.00    +0.000 C 
ATOM     11  O   UNL     1      97.529 126.586  82.510  0.00  0.00    +0.000 OA
ATOM     12  C   UNL     1      99.379 128.039  83.281  0.00  0.00    +0.000 C 
ATOM     13  O   UNL     1      98.835 128.944  83.870  0.00  0.00    +0.000 OA
ATOM     14  H   UNL     1      99.660 125.247  81.555  0.00  0.00    +0.000 HD
ENDROOT
TORSDOF 0
ENDMDL
