MODEL 1
REMARK VINA RESULT:      -3.9      0.000      0.000
REMARK  Name = *****
REMARK  0 active torsions:
REMARK  status: ('A' for Active; 'I' for Inactive)
REMARK                            x       y       z     vdW  Elec       q    Type
REMARK                         _______ _______ _______ _____ _____    ______ ____
ROOT
ATOM      1  C   UNL     1     101.904 128.968  83.758  0.00  0.00    +0.000 A 
ATOM      2  C   UNL     1     103.224 128.729  83.369  0.00  0.00    +0.000 A 
ATOM      3  C   UNL     1     103.552 127.658  82.524  0.00  0.00    +0.000 A 
ATOM      4  C   UNL     1     102.549 126.807  82.057  0.00  0.00    +0.000 A 
ATOM      5  C   UNL     1     101.238 127.046  82.446  0.00  0.00    +0.000 A 
ATOM      6  C   UNL     1     100.923 128.113  83.286  0.00  0.00    +0.000 A 
ATOM      7  S   UNL     1      99.179 128.158  83.601  0.00  0.00    +0.000 S 
ATOM      8  C   UNL     1      98.913 126.729  82.587  0.00  0.00    +0.000 A 
ATOM      9  O   UNL     1      97.825 126.219  82.387  0.00  0.00    +0.000 OA
ATOM     10  N   UNL     1     100.115 126.300  82.076  0.00  0.00    +0.000 N 
ATOM     11 CL   UNL     1     102.950 125.494  81.022  0.00  0.00    +0.000 Cl
ATOM     12 CL   UNL     1     104.473 129.769  83.936  0.00  0.00    +0.000 Cl
ATOM     13  H   UNL     1     100.182 125.515  81.486  0.00  0.00    +0.000 HD
ENDROOT
TORSDOF 0
ENDMDL
