MODEL 1
REMARK VINA RESULT:      -4.5      0.000      0.000
REMARK  Name = *****
REMARK  1 active torsions:
REMARK  status: ('A' for Active; 'I' for Inactive)
REMARK    1  A    between atoms: C_1  and  N_2
REMARK                            x       y       z     vdW  Elec       q    Type
REMARK                         _______ _______ _______ _____ _____    ______ ____
ROOT
ATOM      1  C   UNL     1      85.945  65.305  88.710  0.00  0.00    +0.000 C 
ATOM      2  N   UNL     1      87.137  64.943  87.943  0.00  0.00    +0.000 N 
ATOM      3  C   UNL     1      88.000  65.964  87.397  0.00  0.00    +0.000 A 
ATOM      4  C   UNL     1      87.771  67.339  87.558  0.00  0.00    +0.000 A 
ATOM      5  C   UNL     1      88.637  68.289  87.004  0.00  0.00    +0.000 A 
ATOM      6  C   UNL     1      89.752  67.885  86.277  0.00  0.00    +0.000 A 
ATOM      7  C   UNL     1      90.016  66.524  86.097  0.00  0.00    +0.000 A 
ATOM      8  C   UNL     1      89.134  65.570  86.662  0.00  0.00    +0.000 A 
ATOM      9  C   UNL     1      89.412  64.217  86.476  0.00  0.00    +0.000 A 
ATOM     10  C   UNL     1      90.527  63.789  85.753  0.00  0.00    +0.000 A 
ATOM     11  C   UNL     1      91.391  64.730  85.199  0.00  0.00    +0.000 A 
ATOM     12  C   UNL     1      91.137  66.091  85.370  0.00  0.00    +0.000 A 
ATOM     13  N   UNL     1      88.552  63.273  87.029  0.00  0.00    +0.000 N 
ATOM     14  C   UNL     1      87.434  63.585  87.752  0.00  0.00    +0.000 C 
ATOM     15  S   UNL     1      86.548  62.276  88.330  0.00  0.00    +0.000 S 
ATOM     16  H   UNL     1      88.760  62.321  86.891  0.00  0.00    +0.000 HD
ENDROOT
TORSDOF 0
ENDMDL
