MODEL 1
REMARK VINA RESULT:      -4.3      0.000      0.000
REMARK  Name = *****
REMARK  1 active torsions:
REMARK  status: ('A' for Active; 'I' for Inactive)
REMARK    1  A    between atoms: C_11  and  C_13
REMARK                            x       y       z     vdW  Elec       q    Type
REMARK                         _______ _______ _______ _____ _____    ______ ____
ROOT
ATOM      1  C   UNL     1      93.193  94.202  84.427  0.00  0.00    +0.000 A 
ATOM      2  C   UNL     1      94.071  95.141  84.973  0.00  0.00    +0.000 A 
ATOM      3  C   UNL     1      94.749  94.943  86.172  0.00  0.00    +0.000 A 
ATOM      4  C   UNL     1      94.539  93.737  86.869  0.00  0.00    +0.000 A 
ATOM      5  C   UNL     1      93.667  92.765  86.357  0.00  0.00    +0.000 A 
ATOM      6  C   UNL     1      93.005  93.008  85.144  0.00  0.00    +0.000 A 
ATOM      7 CL   UNL     1      91.912  91.858  84.445  0.00  0.00    +0.000 Cl
ATOM      8 CL   UNL     1      93.417  91.283  87.224  0.00  0.00    +0.000 Cl
ATOM      9 CL   UNL     1      95.420  93.593  88.332  0.00  0.00    +0.000 Cl
ATOM     10  N   UNL     1      95.539  96.038  86.452  0.00  0.00    +0.000 NA
ATOM     11  C   UNL     1      95.362  96.895  85.459  0.00  0.00    +0.000 A 
ATOM     12  N   UNL     1      94.474  96.381  84.542  0.00  0.00    +0.000 N 
ATOM     13  H   UNL     1      94.177  96.827  83.717  0.00  0.00    +0.000 HD
ENDROOT
BRANCH  11  14
ATOM     14  C   UNL     1      95.971  98.241  85.246  0.00  0.00    +0.000 C 
ATOM     15  F   UNL     1      96.690  98.690  86.301  0.00  0.00    +0.000 F 
ATOM     16  F   UNL     1      96.799  98.235  84.167  0.00  0.00    +0.000 F 
ATOM     17  F   UNL     1      95.016  99.171  84.983  0.00  0.00    +0.000 F 
ENDBRANCH  11  14
TORSDOF 1
ENDMDL
