REMARK  Name = *****
REMARK  2 active torsions:
REMARK  status: ('A' for Active; 'I' for Inactive)
REMARK    1  A    between atoms: C_1  and  O_2
REMARK    2  A    between atoms: O_2  and  C_3
REMARK                            x       y       z     vdW  Elec       q    Type
REMARK                         _______ _______ _______ _____ _____    ______ ____
ROOT
ATOM      1  C   UNL     1       2.820  -1.190  -0.180  0.00  0.00    +0.000 A 
ATOM      2  C   UNL     1       3.894  -1.585   0.622  0.00  0.00    +0.000 A 
ATOM      3  C   UNL     1       4.644  -2.734   0.324  0.00  0.00    +0.000 A 
ATOM      4  C   UNL     1       4.304  -3.504  -0.811  0.00  0.00    +0.000 A 
ATOM      5  C   UNL     1       3.225  -3.099  -1.611  0.00  0.00    +0.000 A 
ATOM      6  C   UNL     1       2.488  -1.951  -1.299  0.00  0.00    +0.000 A 
ATOM      7  C   UNL     1       5.051  -4.655  -1.113  0.00  0.00    +0.000 A 
ATOM      8  C   UNL     1       6.119  -5.036  -0.300  0.00  0.00    +0.000 A 
ATOM      9  C   UNL     1       6.459  -4.280   0.819  0.00  0.00    +0.000 A 
ATOM     10  C   UNL     1       5.723  -3.134   1.129  0.00  0.00    +0.000 A 
ATOM     11  I   UNL     1       7.212  -6.743  -0.763  0.00  0.00    +0.000 I 
ENDROOT
BRANCH   1  13
ATOM     12  C   UNL     1       1.073   0.384  -0.537  0.00  0.00    +0.000 C 
ATOM     13  O   UNL     1       2.184  -0.052   0.236  0.00  0.00    +0.000 OA
ENDBRANCH   1  13
TORSDOF 1
