MODEL 1
REMARK VINA RESULT:      -4.0      0.000      0.000
REMARK  Name = *****
REMARK  1 active torsions:
REMARK  status: ('A' for Active; 'I' for Inactive)
REMARK    1  A    between atoms: C_1  and  C_2
REMARK                            x       y       z     vdW  Elec       q    Type
REMARK                         _______ _______ _______ _____ _____    ______ ____
ROOT
ATOM      1  C   UNL     1     102.966 129.988  84.486  0.00  0.00    +0.000 C 
ATOM      2  C   UNL     1     102.965 128.814  83.544  0.00  0.00    +0.000 A 
ATOM      3  C   UNL     1     101.781 128.149  83.177  0.00  0.00    +0.000 A 
ATOM      4  C   UNL     1     101.824 127.063  82.288  0.00  0.00    +0.000 A 
ATOM      5  C   UNL     1     103.049 126.643  81.758  0.00  0.00    +0.000 A 
ATOM      6  C   UNL     1     104.226 127.302  82.110  0.00  0.00    +0.000 A 
ATOM      7  C   UNL     1     104.183 128.381  82.995  0.00  0.00    +0.000 A 
ATOM      8 CL   UNL     1     103.143 125.312  80.661  0.00  0.00    +0.000 Cl
ATOM      9  N   UNL     1     100.634 126.407  81.937  0.00  0.00    +0.000 N 
ATOM     10  C   UNL     1      99.394 126.761  82.412  0.00  0.00    +0.000 A 
ATOM     11  O   UNL     1      98.380 126.161  82.084  0.00  0.00    +0.000 OA
ATOM     12  C   UNL     1      99.345 127.961  83.384  0.00  0.00    +0.000 A 
ATOM     13  O   UNL     1      98.289 128.359  83.858  0.00  0.00    +0.000 OA
ATOM     14  N   UNL     1     100.545 128.562  83.691  0.00  0.00    +0.000 N 
ATOM     15  H   UNL     1     100.691 125.647  81.313  0.00  0.00    +0.000 HD
ATOM     16  H   UNL     1     100.533 129.328  84.309  0.00  0.00    +0.000 HD
ENDROOT
TORSDOF 0
ENDMDL
