MODEL 1
REMARK VINA RESULT:      -4.1      0.000      0.000
REMARK  Name = *****
REMARK  1 active torsions:
REMARK  status: ('A' for Active; 'I' for Inactive)
REMARK    1  A    between atoms: N_7  and  O_13
REMARK                            x       y       z     vdW  Elec       q    Type
REMARK                         _______ _______ _______ _____ _____    ______ ____
ROOT
ATOM      1  C   UNL     1      85.843  62.571  87.743  0.00  0.00    +0.000 A 
ATOM      2  C   UNL     1      85.680  62.481  89.125  0.00  0.00    +0.000 A 
ATOM      3  C   UNL     1      86.699  62.877  89.990  0.00  0.00    +0.000 A 
ATOM      4  C   UNL     1      87.893  63.368  89.462  0.00  0.00    +0.000 A 
ATOM      5  C   UNL     1      88.069  63.464  88.075  0.00  0.00    +0.000 A 
ATOM      6  C   UNL     1      87.041  63.063  87.213  0.00  0.00    +0.000 A 
ATOM      7  N   UNL     1      87.247  63.172  85.832  0.00  0.00    +0.000 N 
ATOM      8  C   UNL     1      88.391  63.646  85.227  0.00  0.00    +0.000 A 
ATOM      9  O   UNL     1      88.517  63.722  84.009  0.00  0.00    +0.000 OA
ATOM     10  C   UNL     1      89.515  64.080  86.187  0.00  0.00    +0.000 A 
ATOM     11  O   UNL     1      90.577  64.515  85.765  0.00  0.00    +0.000 OA
ATOM     12  N   UNL     1      89.267  63.957  87.535  0.00  0.00    +0.000 N 
ATOM     13 CL   UNL     1      89.141  63.853  90.554  0.00  0.00    +0.000 Cl
ATOM     14 CL   UNL     1      84.207  61.874  89.771  0.00  0.00    +0.000 Cl
ATOM     15  H   UNL     1      89.976  64.232  88.161  0.00  0.00    +0.000 HD
ENDROOT
BRANCH   7  16
ATOM     16  O   UNL     1      86.193  62.765  84.981  0.00  0.00    +0.000 OA
ATOM     17  H   UNL     1      85.971  61.857  84.913  0.00  0.00    +0.000 HD
ENDBRANCH   7  16
TORSDOF 1
ENDMDL
