MODEL 1
REMARK VINA RESULT:      -3.8      0.000      0.000
REMARK  Name = *****
REMARK  0 active torsions:
REMARK  status: ('A' for Active; 'I' for Inactive)
REMARK                            x       y       z     vdW  Elec       q    Type
REMARK                         _______ _______ _______ _____ _____    ______ ____
ROOT
ATOM      1  C   UNL     1     103.574 127.841  82.732  0.00  0.00    +0.000 A 
ATOM      2  C   UNL     1     103.188 128.922  83.540  0.00  0.00    +0.000 A 
ATOM      3  C   UNL     1     101.839 129.128  83.857  0.00  0.00    +0.000 A 
ATOM      4  C   UNL     1     100.889 128.248  83.359  0.00  0.00    +0.000 A 
ATOM      5  C   UNL     1     101.279 127.174  82.555  0.00  0.00    +0.000 A 
ATOM      6  C   UNL     1     102.614 126.959  82.234  0.00  0.00    +0.000 A 
ATOM      7 BR   UNL     1     103.151 125.509  81.147  0.00  0.00    +0.000 Br
ATOM      8  N   UNL     1     100.203 126.386  82.137  0.00  0.00    +0.000 N 
ATOM      9  C   UNL     1      98.963 126.779  82.571  0.00  0.00    +0.000 A 
ATOM     10  O   UNL     1      97.905 126.228  82.316  0.00  0.00    +0.000 OA
ATOM     11  S   UNL     1      99.122 128.228  83.569  0.00  0.00    +0.000 S 
ATOM     12 BR   UNL     1     101.378 130.600  84.952  0.00  0.00    +0.000 Br
ATOM     13  H   UNL     1     100.328 125.595  81.565  0.00  0.00    +0.000 HD
ENDROOT
TORSDOF 0
ENDMDL
