REMARK  Name = *****
REMARK  0 active torsions:
REMARK  status: ('A' for Active; 'I' for Inactive)
REMARK                            x       y       z     vdW  Elec       q    Type
REMARK                         _______ _______ _______ _____ _____    ______ ____
ROOT
ATOM      1  C   UNL     1       0.933   1.408  -0.026  0.00  0.00    +0.000 A 
ATOM      2  C   UNL     1      -0.230   0.680   0.014  0.00  0.00    +0.000 A 
ATOM      3  C   UNL     1      -0.239  -0.712   0.013  0.00  0.00    +0.000 A 
ATOM      4  C   UNL     1       0.926  -1.452  -0.030  0.00  0.00    +0.000 A 
ATOM      5  C   UNL     1       2.140  -0.741  -0.073  0.00  0.00    +0.000 A 
ATOM      6  C   UNL     1       2.132   0.681  -0.071  0.00  0.00    +0.000 A 
ATOM      7 CL   UNL     1       3.596   1.607  -0.123  0.00  0.00    +0.000 Cl
ATOM      8 CL   UNL     1       3.648  -1.603  -0.130  0.00  0.00    +0.000 Cl
ATOM      9 CL   UNL     1       0.833  -3.174  -0.029  0.00  0.00    +0.000 Cl
ATOM     10  N   UNL     1      -1.573  -1.123   0.059  0.00  0.00    +0.000 N 
ATOM     11  C   UNL     1      -2.398   0.008   0.090  0.00  0.00    +0.000 A 
ATOM     12  O   UNL     1      -3.614   0.025   0.132  0.00  0.00    +0.000 OA
ATOM     13  N   UNL     1      -1.547   1.123   0.062  0.00  0.00    +0.000 N 
ATOM     14  H   UNL     1      -1.883  -2.057   0.069  0.00  0.00    +0.000 HD
ATOM     15  H   UNL     1      -1.835   2.064   0.073  0.00  0.00    +0.000 HD
ENDROOT
TORSDOF 0
