MODEL 1
REMARK VINA RESULT:      -4.1      0.000      0.000
REMARK  Name = *****
REMARK  2 active torsions:
REMARK  status: ('A' for Active; 'I' for Inactive)
REMARK    1  A    between atoms: C_6  and  O_11
REMARK    2  A    between atoms: O_11  and  C_12
REMARK                            x       y       z     vdW  Elec       q    Type
REMARK                         _______ _______ _______ _____ _____    ______ ____
ROOT
ATOM      1  C   UNL     1      84.030  72.575  87.165  0.00  0.00    +0.000 A 
ATOM      2  C   UNL     1      84.501  72.350  85.874  0.00  0.00    +0.000 A 
ATOM      3  C   UNL     1      85.731  71.720  85.680  0.00  0.00    +0.000 A 
ATOM      4  C   UNL     1      86.505  71.305  86.776  0.00  0.00    +0.000 A 
ATOM      5  C   UNL     1      87.743  70.665  86.601  0.00  0.00    +0.000 A 
ATOM      6  C   UNL     1      88.507  70.248  87.694  0.00  0.00    +0.000 A 
ATOM      7  C   UNL     1      88.036  70.481  88.985  0.00  0.00    +0.000 A 
ATOM      8  C   UNL     1      86.805  71.119  89.177  0.00  0.00    +0.000 A 
ATOM      9  C   UNL     1      86.028  71.534  88.086  0.00  0.00    +0.000 A 
ATOM     10  C   UNL     1      84.789  72.170  88.265  0.00  0.00    +0.000 A 
ENDROOT
BRANCH   6  11
ATOM     11  O   UNL     1      89.685  69.636  87.364  0.00  0.00    +0.000 OA
BRANCH  11  12
ATOM     12  C   UNL     1      89.736  68.985  86.103  0.00  0.00    +0.000 C 
ATOM     13 CL   UNL     1      90.053  67.257  86.375  0.00  0.00    +0.000 Cl
ENDBRANCH  11  12
ENDBRANCH   6  11
TORSDOF 2
ENDMDL
