REMARK  Name = *****
REMARK  0 active torsions:
REMARK  status: ('A' for Active; 'I' for Inactive)
REMARK                            x       y       z     vdW  Elec       q    Type
REMARK                         _______ _______ _______ _____ _____    ______ ____
ROOT
ATOM      1  C   UNL     1      -2.594   0.511  -0.014  0.00  0.00    +0.000 C 
ATOM      2  C   UNL     1      -1.420   1.531   0.009  0.00  0.00    +0.000 C 
ATOM      3  C   UNL     1      -0.163   1.015   0.774  0.00  0.00    +0.000 C 
ATOM      4  C   UNL     1       1.227   1.264   0.004  0.00  0.00    +0.000 C 
ATOM      5  C   UNL     1       1.812  -0.022  -0.804  0.00  0.00    +0.000 C 
ATOM      6  C   UNL     1       1.480  -1.470  -0.185  0.00  0.00    +0.000 C 
ATOM      7  C   UNL     1       0.129  -2.178  -0.728  0.00  0.00    +0.000 C 
ATOM      8  C   UNL     1      -1.070  -1.556   0.147  0.00  0.00    +0.000 C 
ATOM      9  C   UNL     1      -2.226  -0.872  -0.620  0.00  0.00    +0.000 C 
ATOM     10  C   UNL     1      -0.259  -0.491   0.853  0.00  0.00    +0.000 C 
ATOM     11  C   UNL     1       1.049  -1.186   1.240  0.00  0.00    +0.000 C 
ENDROOT
TORSDOF 0
