MODEL 1
REMARK VINA RESULT:      -3.4      0.000      0.000
REMARK  Name = *****
REMARK  1 active torsions:
REMARK  status: ('A' for Active; 'I' for Inactive)
REMARK    1  A    between atoms: C_1  and  S_2
REMARK                            x       y       z     vdW  Elec       q    Type
REMARK                         _______ _______ _______ _____ _____    ______ ____
ROOT
ATOM      1  C   UNL     1      90.281  70.804  85.049  0.00  0.00    +0.000 C 
ATOM      2  S   UNL     1      89.161  69.801  85.966  0.00  0.00    +0.000 S 
ATOM      3  C   UNL     1      89.049  70.425  87.625  0.00  0.00    +0.000 C 
ATOM      4  C   UNL     1      87.543  70.578  87.847  0.00  0.00    +0.000 C 
ATOM      5  C   UNL     1      87.163  71.512  88.990  0.00  0.00    +0.000 C 
ATOM      6  C   UNL     1      85.640  71.656  89.073  0.00  0.00    +0.000 C 
ATOM      7  C   UNL     1      85.018  72.080  87.740  0.00  0.00    +0.000 C 
ATOM      8  C   UNL     1      85.447  71.181  86.577  0.00  0.00    +0.000 C 
ATOM      9  C   UNL     1      86.968  71.092  86.510  0.00  0.00    +0.000 C 
ATOM     10  C   UNL     1      87.502  70.146  85.431  0.00  0.00    +0.000 C 
ATOM     11  I   UNL     1      89.671  67.554  85.883  0.00  0.00    +0.000 I 
ENDROOT
TORSDOF 0
ENDMDL
