REMARK  Name = *****
REMARK  3 active torsions:
REMARK  status: ('A' for Active; 'I' for Inactive)
REMARK    1  A    between atoms: C_1  and  C_2
REMARK    2  A    between atoms: C_11  and  O_12
REMARK    3  A    between atoms: O_12  and  C_13
REMARK                            x       y       z     vdW  Elec       q    Type
REMARK                         _______ _______ _______ _____ _____    ______ ____
ROOT
ATOM      1  C   UNL     1      -3.534  -1.033   0.000  0.00  0.00    +0.000 C 
ATOM      2  C   UNL     1      -2.207  -0.328   0.006  0.00  0.00    +0.000 A 
ATOM      3  C   UNL     1      -1.061  -1.159   0.008  0.00  0.00    +0.000 A 
ATOM      4  C   UNL     1       0.246  -0.644   0.006  0.00  0.00    +0.000 A 
ATOM      5  C   UNL     1       1.374  -1.482   0.004  0.00  0.00    +0.000 A 
ATOM      6  C   UNL     1       2.663  -0.945   0.000  0.00  0.00    +0.000 A 
ATOM      7  C   UNL     1       2.839   0.435  -0.001  0.00  0.00    +0.000 A 
ATOM      8  C   UNL     1       1.727   1.278   0.001  0.00  0.00    +0.000 A 
ATOM      9  C   UNL     1       0.425   0.749   0.004  0.00  0.00    +0.000 A 
ATOM     10  C   UNL     1      -0.709   1.575   0.004  0.00  0.00    +0.000 A 
ATOM     11  C   UNL     1      -2.020   1.061   0.005  0.00  0.00    +0.000 A 
ENDROOT
BRANCH  11  12
ATOM     12  O   UNL     1      -2.935   2.076  -0.004  0.00  0.00    +0.000 OA
ATOM     13  C   UNL     1      -4.323   1.819   0.054  0.00  0.00    +0.000 C 
ENDBRANCH  11  12
TORSDOF 1
