MODEL 1
REMARK VINA RESULT:      -4.2      0.000      0.000
REMARK  Name = *****
REMARK  0 active torsions:
REMARK  status: ('A' for Active; 'I' for Inactive)
REMARK                            x       y       z     vdW  Elec       q    Type
REMARK                         _______ _______ _______ _____ _____    ______ ____
ROOT
ATOM      1  C   UNL     1     102.813 125.654  82.444  0.00  0.00    +0.000 A 
ATOM      2  C   UNL     1     102.490 126.971  82.768  0.00  0.00    +0.000 A 
ATOM      3  C   UNL     1     103.059 128.036  82.071  0.00  0.00    +0.000 A 
ATOM      4  C   UNL     1     103.963 127.773  81.042  0.00  0.00    +0.000 A 
ATOM      5  C   UNL     1     104.292 126.453  80.712  0.00  0.00    +0.000 A 
ATOM      6  C   UNL     1     103.716 125.382  81.415  0.00  0.00    +0.000 A 
ATOM      7  N   UNL     1     104.005 124.037  81.124  0.00  0.00    +0.000 NA
ATOM      8  C   UNL     1     104.836 123.771  80.157  0.00  0.00    +0.000 A 
ATOM      9  C   UNL     1     105.546 124.886  79.356  0.00  0.00    +0.000 A 
ATOM     10  O   UNL     1     106.374 124.589  78.507  0.00  0.00    +0.000 OA
ATOM     11  N   UNL     1     105.203 126.169  79.684  0.00  0.00    +0.000 N 
ATOM     12  N   UNL     1     105.123 122.467  79.838  0.00  0.00    +0.000 N 
ATOM     13 CL   UNL     1     104.660 129.106  80.193  0.00  0.00    +0.000 Cl
ATOM     14 CL   UNL     1     101.377 127.289  84.040  0.00  0.00    +0.000 Cl
ATOM     15  H   UNL     1     105.607 126.915  79.184  0.00  0.00    +0.000 HD
ATOM     16  H   UNL     1     104.688 121.733  80.330  0.00  0.00    +0.000 HD
ATOM     17  H   UNL     1     105.763 122.265  79.119  0.00  0.00    +0.000 HD
ENDROOT
TORSDOF 0
ENDMDL
