MODEL 1
REMARK VINA RESULT:      -4.2      0.000      0.000
REMARK  Name = *****
REMARK  0 active torsions:
REMARK  status: ('A' for Active; 'I' for Inactive)
REMARK                            x       y       z     vdW  Elec       q    Type
REMARK                         _______ _______ _______ _____ _____    ______ ____
ROOT
ATOM      1  C   UNL     1     103.185 128.832  83.485  0.00  0.00    +0.000 A 
ATOM      2  C   UNL     1     103.605 127.772  82.658  0.00  0.00    +0.000 A 
ATOM      3  C   UNL     1     102.675 126.872  82.133  0.00  0.00    +0.000 A 
ATOM      4  C   UNL     1     101.339 127.052  82.450  0.00  0.00    +0.000 A 
ATOM      5  C   UNL     1     100.927 128.104  83.270  0.00  0.00    +0.000 A 
ATOM      6  C   UNL     1     101.831 129.006  83.799  0.00  0.00    +0.000 A 
ATOM      7 BR   UNL     1     101.327 130.443  84.910  0.00  0.00    +0.000 Br
ATOM      8  C   UNL     1      99.465 127.993  83.393  0.00  0.00    +0.000 C 
ATOM      9  O   UNL     1      98.707 128.701  84.011  0.00  0.00    +0.000 OA
ATOM     10  C   UNL     1      99.073 126.752  82.548  0.00  0.00    +0.000 C 
ATOM     11  O   UNL     1      97.956 126.314  82.385  0.00  0.00    +0.000 OA
ATOM     12  N   UNL     1     100.257 126.274  82.035  0.00  0.00    +0.000 N 
ATOM     13 BR   UNL     1     103.250 125.457  81.026  0.00  0.00    +0.000 Br
ATOM     14  H   UNL     1     100.332 125.485  81.452  0.00  0.00    +0.000 HD
ENDROOT
TORSDOF 0
ENDMDL
