MODEL 1
REMARK VINA RESULT:      -4.3      0.000      0.000
REMARK  Name = *****
REMARK  4 active torsions:
REMARK  status: ('A' for Active; 'I' for Inactive)
REMARK    1  A    between atoms: C_1  and  C_2
REMARK    2  A    between atoms: C_2  and  C_4
REMARK    3  A    between atoms: C_12  and  O_14
REMARK    4  A    between atoms: O_14  and  C_15
REMARK                            x       y       z     vdW  Elec       q    Type
REMARK                         _______ _______ _______ _____ _____    ______ ____
ROOT
ATOM      1  C   UNL     1      86.640  71.362  88.778  0.00  0.00    +0.000 A 
ATOM      2  C   UNL     1      85.388  71.908  88.452  0.00  0.00    +0.000 A 
ATOM      3  C   UNL     1      85.008  72.059  87.122  0.00  0.00    +0.000 A 
ATOM      4  C   UNL     1      85.874  71.664  86.106  0.00  0.00    +0.000 A 
ATOM      5  C   UNL     1      87.129  71.110  86.400  0.00  0.00    +0.000 A 
ATOM      6  C   UNL     1      87.530  70.949  87.748  0.00  0.00    +0.000 A 
ATOM      7  C   UNL     1      88.803  70.381  87.989  0.00  0.00    +0.000 A 
ATOM      8  C   UNL     1      89.649  69.993  86.944  0.00  0.00    +0.000 A 
ATOM      9  C   UNL     1      89.246  70.160  85.624  0.00  0.00    +0.000 A 
ATOM     10  C   UNL     1      87.991  70.715  85.362  0.00  0.00    +0.000 A 
ENDROOT
BRANCH   1  12
ATOM     11  C   UNL     1      87.674  72.398  90.842  0.00  0.00    +0.000 C 
ATOM     12  C   UNL     1      86.968  71.235  90.213  0.00  0.00    +0.000 C 
ATOM     13  C   UNL     1      86.620  70.122  90.876  0.00  0.00    +0.000 C 
ENDBRANCH   1  12
BRANCH   9  14
ATOM     14  O   UNL     1      89.968  69.826  84.512  0.00  0.00    +0.000 OA
ATOM     15  C   UNL     1      90.719  70.864  83.897  0.00  0.00    +0.000 C 
ENDBRANCH   9  14
TORSDOF 2
ENDMDL
