REMARK  Name = *****
REMARK  1 active torsions:
REMARK  status: ('A' for Active; 'I' for Inactive)
REMARK    1  A    between atoms: C_1  and  C_2
REMARK                            x       y       z     vdW  Elec       q    Type
REMARK                         _______ _______ _______ _____ _____    ______ ____
ROOT
ATOM      1  C   UNL     1       0.782  -1.458   0.728  0.00  0.00    +0.000 C 
ATOM      2  C   UNL     1       0.417  -0.404  -0.344  0.00  0.00    +0.000 C 
ATOM      3  C   UNL     1      -0.713  -0.938  -1.237  0.00  0.00    +0.000 C 
ATOM      4  C   UNL     1      -2.040  -1.032  -0.462  0.00  0.00    +0.000 C 
ATOM      5  C   UNL     1      -2.409   0.261   0.280  0.00  0.00    +0.000 C 
ATOM      6  C   UNL     1      -1.256   0.858   1.099  0.00  0.00    +0.000 C 
ATOM      7  C   UNL     1      -0.024   0.960   0.216  0.00  0.00    +0.000 C 
ATOM      8  C   UNL     1       1.250   1.536   0.813  0.00  0.00    +0.000 C 
ATOM      9  C   UNL     1       2.345   1.068  -0.162  0.00  0.00    +0.000 C 
ATOM     10  C   UNL     1       1.697   0.014  -1.083  0.00  0.00    +0.000 C 
ENDROOT
TORSDOF 0
