REMARK  Name = *****
REMARK  0 active torsions:
REMARK  status: ('A' for Active; 'I' for Inactive)
REMARK                            x       y       z     vdW  Elec       q    Type
REMARK                         _______ _______ _______ _____ _____    ______ ____
ROOT
ATOM      1  C   UNL     1      -1.256   1.405  -0.031  0.00  0.00    +0.000 A 
ATOM      2  C   UNL     1      -2.401   0.710  -0.043  0.00  0.00    +0.000 A 
ATOM      3  C   UNL     1      -2.403  -0.773  -0.045  0.00  0.00    +0.000 A 
ATOM      4  O   UNL     1      -3.457  -1.399  -0.057  0.00  0.00    +0.000 OA
ATOM      5  N   UNL     1      -1.182  -1.388  -0.032  0.00  0.00    +0.000 N 
ATOM      6  C   UNL     1       0.044  -0.700  -0.019  0.00  0.00    +0.000 A 
ATOM      7  C   UNL     1       1.264  -1.388  -0.007  0.00  0.00    +0.000 A 
ATOM      8  C   UNL     1       2.467  -0.681   0.005  0.00  0.00    +0.000 A 
ATOM      9  C   UNL     1       2.444   0.713   0.005  0.00  0.00    +0.000 A 
ATOM     10  C   UNL     1       1.235   1.410  -0.007  0.00  0.00    +0.000 A 
ATOM     11  C   UNL     1       0.029   0.704  -0.019  0.00  0.00    +0.000 A 
ATOM     12 BR   UNL     1       4.074   1.673   0.020  0.00  0.00    +0.000 Br
ATOM     13 BR   UNL     1       1.332  -3.285  -0.006  0.00  0.00    +0.000 Br
ATOM     14  H   UNL     1      -1.160  -2.372  -0.032  0.00  0.00    +0.000 HD
ENDROOT
TORSDOF 0
