MODEL 1
REMARK VINA RESULT:      -4.4      0.000      0.000
REMARK  Name = *****
REMARK  2 active torsions:
REMARK  status: ('A' for Active; 'I' for Inactive)
REMARK    1  A    between atoms: C_1  and  O_2
REMARK    2  A    between atoms: O_2  and  C_3
REMARK                            x       y       z     vdW  Elec       q    Type
REMARK                         _______ _______ _______ _____ _____    ______ ____
ROOT
ATOM      1  C   UNL     1     102.697 126.089  81.714  0.00  0.00    +0.000 A 
ATOM      2  C   UNL     1     101.333 126.124  81.989  0.00  0.00    +0.000 A 
ATOM      3  C   UNL     1     100.770 127.184  82.732  0.00  0.00    +0.000 A 
ATOM      4  C   UNL     1     101.587 128.237  83.200  0.00  0.00    +0.000 A 
ATOM      5  C   UNL     1     102.956 128.190  82.897  0.00  0.00    +0.000 A 
ATOM      6  C   UNL     1     103.503 127.127  82.170  0.00  0.00    +0.000 A 
ATOM      7  C   UNL     1     100.985 129.360  83.969  0.00  0.00    +0.000 C 
ATOM      8  C   UNL     1     101.709 130.202  84.731  0.00  0.00    +0.000 C 
ATOM      9  C   UNL     1      99.476 129.455  83.915  0.00  0.00    +0.000 C 
ATOM     10  C   UNL     1      98.824 128.095  84.065  0.00  0.00    +0.000 C 
ATOM     11  C   UNL     1      99.274 127.179  82.940  0.00  0.00    +0.000 C 
ATOM     12  F   UNL     1      99.067 130.017  82.743  0.00  0.00    +0.000 F 
ATOM     13  F   UNL     1      98.986 130.264  84.899  0.00  0.00    +0.000 F 
ENDROOT
BRANCH   1  15
ATOM     14  C   UNL     1     104.353 125.553  80.093  0.00  0.00    +0.000 C 
ATOM     15  O   UNL     1     103.356 125.119  81.011  0.00  0.00    +0.000 OA
ENDBRANCH   1  15
TORSDOF 1
ENDMDL
