MODEL 1
REMARK VINA RESULT:      -3.7      0.000      0.000
REMARK  Name = *****
REMARK  0 active torsions:
REMARK  status: ('A' for Active; 'I' for Inactive)
REMARK                            x       y       z     vdW  Elec       q    Type
REMARK                         _______ _______ _______ _____ _____    ______ ____
ROOT
ATOM      1  C   UNL     1      84.095  72.522  87.368  0.00  0.00    +0.000 C 
ATOM      2  C   UNL     1      85.284  71.941  87.175  0.00  0.00    +0.000 C 
ATOM      3  C   UNL     1      86.225  71.515  88.283  0.00  0.00    +0.000 C 
ATOM      4  C   UNL     1      87.199  70.618  87.530  0.00  0.00    +0.000 C 
ATOM      5  C   UNL     1      88.571  70.412  88.153  0.00  0.00    +0.000 C 
ATOM      6  C   UNL     1      89.449  69.588  87.202  0.00  0.00    +0.000 C 
ATOM      7  C   UNL     1      89.506  70.173  85.784  0.00  0.00    +0.000 C 
ATOM      8  C   UNL     1      88.117  70.464  85.201  0.00  0.00    +0.000 C 
ATOM      9  C   UNL     1      87.326  71.322  86.177  0.00  0.00    +0.000 C 
ATOM     10  C   UNL     1      85.873  71.617  85.818  0.00  0.00    +0.000 C 
ENDROOT
TORSDOF 0
ENDMDL
