MODEL 1
REMARK VINA RESULT:      -4.2      0.000      0.000
REMARK  Name = *****
REMARK  4 active torsions:
REMARK  status: ('A' for Active; 'I' for Inactive)
REMARK    1  A    between atoms: C_1  and  C_2
REMARK    2  A    between atoms: C_9  and  C_11
REMARK    3  A    between atoms: C_11  and  O_13
REMARK    4  A    between atoms: O_13  and  C_14
REMARK                            x       y       z     vdW  Elec       q    Type
REMARK                         _______ _______ _______ _____ _____    ______ ____
ROOT
ATOM      1  C   UNL     1     104.173 129.346  83.061  0.00  0.00    +0.000 C 
ATOM      2  C   UNL     1     103.792 128.053  82.392  0.00  0.00    +0.000 A 
ATOM      3  C   UNL     1     104.790 127.334  81.700  0.00  0.00    +0.000 A 
ATOM      4  C   UNL     1     104.504 126.134  81.055  0.00  0.00    +0.000 A 
ATOM      5  C   UNL     1     103.219 125.593  81.066  0.00  0.00    +0.000 A 
ATOM      6  C   UNL     1     102.229 126.309  81.750  0.00  0.00    +0.000 A 
ATOM      7  C   UNL     1     102.481 127.514  82.406  0.00  0.00    +0.000 A 
ATOM      8  C   UNL     1     101.243 127.932  82.973  0.00  0.00    +0.000 A 
ATOM      9  C   UNL     1     100.272 126.997  82.662  0.00  0.00    +0.000 A 
ATOM     10  N   UNL     1     100.896 126.021  81.921  0.00  0.00    +0.000 N 
ATOM     11 CL   UNL     1     105.761 125.297  80.226  0.00  0.00    +0.000 Cl
ATOM     12  H   UNL     1     100.448 125.222  81.560  0.00  0.00    +0.000 HD
ENDROOT
BRANCH   9  13
ATOM     13  C   UNL     1      98.869 126.935  82.985  0.00  0.00    +0.000 C 
ATOM     14  O   UNL     1      97.967 127.063  82.167  0.00  0.00    +0.000 OA
BRANCH  13  15
ATOM     15  O   UNL     1      98.700 126.718  84.317  0.00  0.00    +0.000 OA
ATOM     16  C   UNL     1      97.798 127.631  84.941  0.00  0.00    +0.000 C 
ENDBRANCH  13  15
ENDBRANCH   9  13
TORSDOF 2
ENDMDL
