MODEL 1
REMARK VINA RESULT:      -3.8      0.000      0.000
REMARK  Name = *****
REMARK  1 active torsions:
REMARK  status: ('A' for Active; 'I' for Inactive)
REMARK    1  A    between atoms: C_1  and  C_2
REMARK                            x       y       z     vdW  Elec       q    Type
REMARK                         _______ _______ _______ _____ _____    ______ ____
ROOT
ATOM      1  C   UNL     1      89.014  63.880  90.595  0.00  0.00    +0.000 C 
ATOM      2  C   UNL     1      87.988  63.439  89.598  0.00  0.00    +0.000 A 
ATOM      3  C   UNL     1      86.756  62.913  90.019  0.00  0.00    +0.000 A 
ATOM      4  C   UNL     1      85.791  62.496  89.085  0.00  0.00    +0.000 A 
ATOM      5  C   UNL     1      86.024  62.592  87.714  0.00  0.00    +0.000 A 
ATOM      6  C   UNL     1      87.239  63.110  87.303  0.00  0.00    +0.000 A 
ATOM      7  C   UNL     1      88.202  63.525  88.226  0.00  0.00    +0.000 A 
ATOM      8  N   UNL     1      89.357  64.017  87.612  0.00  0.00    +0.000 N 
ATOM      9  C   UNL     1      89.351  64.009  86.234  0.00  0.00    +0.000 A 
ATOM     10  S   UNL     1      90.614  64.545  85.307  0.00  0.00    +0.000 S 
ATOM     11  S   UNL     1      87.820  63.353  85.646  0.00  0.00    +0.000 S 
ATOM     12 CL   UNL     1      84.293  61.858  89.646  0.00  0.00    +0.000 Cl
ATOM     13  H   UNL     1      90.126  64.347  88.130  0.00  0.00    +0.000 HD
ENDROOT
TORSDOF 0
ENDMDL
