MODEL 1
REMARK VINA RESULT:      -4.0      0.000      0.000
REMARK  Name = *****
REMARK  0 active torsions:
REMARK  status: ('A' for Active; 'I' for Inactive)
REMARK                            x       y       z     vdW  Elec       q    Type
REMARK                         _______ _______ _______ _____ _____    ______ ____
ROOT
ATOM      1  C   UNL     1     103.507 127.780  82.674  0.00  0.00    +0.000 A 
ATOM      2  C   UNL     1     103.020 128.818  83.501  0.00  0.00    +0.000 A 
ATOM      3  C   UNL     1     101.652 128.929  83.776  0.00  0.00    +0.000 A 
ATOM      4  C   UNL     1     100.809 127.996  83.211  0.00  0.00    +0.000 A 
ATOM      5  C   UNL     1     101.291 126.972  82.396  0.00  0.00    +0.000 A 
ATOM      6  C   UNL     1     102.633 126.843  82.113  0.00  0.00    +0.000 A 
ATOM      7 BR   UNL     1     103.290 125.462  81.012  0.00  0.00    +0.000 Br
ATOM      8  N   UNL     1     100.199 126.205  81.988  0.00  0.00    +0.000 N 
ATOM      9  C   UNL     1      99.032 126.742  82.543  0.00  0.00    +0.000 A 
ATOM     10  O   UNL     1      97.898 126.325  82.397  0.00  0.00    +0.000 OA
ATOM     11  N   UNL     1      99.424 127.853  83.301  0.00  0.00    +0.000 N 
ATOM     12 BR   UNL     1     101.008 130.315  84.878  0.00  0.00    +0.000 Br
ATOM     13  H   UNL     1     100.243 125.414  81.403  0.00  0.00    +0.000 HD
ATOM     14  H   UNL     1      98.821 128.438  83.813  0.00  0.00    +0.000 HD
ENDROOT
TORSDOF 0
ENDMDL
