MODEL 1
REMARK VINA RESULT:      -3.7      0.000      0.000
REMARK  Name = *****
REMARK  1 active torsions:
REMARK  status: ('A' for Active; 'I' for Inactive)
REMARK    1  A    between atoms: C_1  and  N_2
REMARK                            x       y       z     vdW  Elec       q    Type
REMARK                         _______ _______ _______ _____ _____    ______ ____
ROOT
ATOM      1  C   UNL     1     107.446 126.493  79.141  0.00  0.00    +0.000 C 
ATOM      2  N   UNL     1     106.340 125.744  79.662  0.00  0.00    +0.000 N 
ATOM      3  C   UNL     1     105.145 126.204  80.277  0.00  0.00    +0.000 A 
ATOM      4  C   UNL     1     104.354 125.095  80.626  0.00  0.00    +0.000 A 
ATOM      5  C   UNL     1     103.118 125.166  81.245  0.00  0.00    +0.000 A 
ATOM      6  C   UNL     1     102.640 126.432  81.537  0.00  0.00    +0.000 A 
ATOM      7  C   UNL     1     103.390 127.571  81.211  0.00  0.00    +0.000 A 
ATOM      8  C   UNL     1     104.647 127.468  80.579  0.00  0.00    +0.000 A 
ATOM      9 BR   UNL     1     105.504 129.117  80.223  0.00  0.00    +0.000 Br
ATOM     10 CL   UNL     1     101.113 126.612  82.307  0.00  0.00    +0.000 Cl
ATOM     11  C   UNL     1     105.054 123.880  80.225  0.00  0.00    +0.000 C 
ATOM     12  O   UNL     1     104.672 122.742  80.367  0.00  0.00    +0.000 OA
ATOM     13  C   UNL     1     106.368 124.353  79.589  0.00  0.00    +0.000 C 
ATOM     14  O   UNL     1     107.222 123.624  79.131  0.00  0.00    +0.000 OA
ENDROOT
TORSDOF 0
ENDMDL
