REMARK  Name = *****
REMARK  0 active torsions:
REMARK  status: ('A' for Active; 'I' for Inactive)
REMARK                            x       y       z     vdW  Elec       q    Type
REMARK                         _______ _______ _______ _____ _____    ______ ____
ROOT
ATOM      1  C   UNL     1      -2.001   0.833  -0.370  0.00  0.00    +0.000 C 
ATOM      2  C   UNL     1      -2.115  -0.672  -0.148  0.00  0.00    +0.000 C 
ATOM      3  C   UNL     1      -0.761  -1.355  -0.298  0.00  0.00    +0.000 C 
ATOM      4  C   UNL     1       0.279  -0.764   0.663  0.00  0.00    +0.000 C 
ATOM      5  C   UNL     1       1.700  -1.197   0.301  0.00  0.00    +0.000 C 
ATOM      6  C   UNL     1       2.199  -0.166  -0.715  0.00  0.00    +0.000 C 
ATOM      7  C   UNL     1       1.224   1.011  -0.657  0.00  0.00    +0.000 C 
ATOM      8  C   UNL     1       0.369   0.764   0.588  0.00  0.00    +0.000 C 
ATOM      9  C   UNL     1      -0.987   1.466   0.579  0.00  0.00    +0.000 C 
ENDROOT
TORSDOF 0
