MODEL 1
REMARK VINA RESULT:      -3.3      0.000      0.000
REMARK  Name = *****
REMARK  2 active torsions:
REMARK  status: ('A' for Active; 'I' for Inactive)
REMARK    1  A    between atoms: C_1  and  O_2
REMARK    2  A    between atoms: O_2  and  C_3
REMARK                            x       y       z     vdW  Elec       q    Type
REMARK                         _______ _______ _______ _____ _____    ______ ____
ROOT
ATOM      1  C   UNL     1     104.525 123.693  81.600  0.00  0.00    +0.000 A 
ATOM      2  C   UNL     1     103.969 124.053  82.844  0.00  0.00    +0.000 A 
ATOM      3  C   UNL     1     103.103 125.172  82.929  0.00  0.00    +0.000 A 
ATOM      4  C   UNL     1     102.790 125.927  81.793  0.00  0.00    +0.000 A 
ATOM      5  C   UNL     1     103.358 125.545  80.555  0.00  0.00    +0.000 A 
ATOM      6  C   UNL     1     104.213 124.442  80.468  0.00  0.00    +0.000 A 
ATOM      7  C   UNL     1     101.900 127.012  82.102  0.00  0.00    +0.000 A 
ATOM      8  C   UNL     1     101.561 127.062  83.432  0.00  0.00    +0.000 A 
ATOM      9  S   UNL     1     102.302 125.815  84.323  0.00  0.00    +0.000 S 
ATOM     10 CL   UNL     1     104.342 123.134  84.269  0.00  0.00    +0.000 Cl
ENDROOT
BRANCH   1  12
ATOM     11  C   UNL     1     104.826 121.364  81.129  0.00  0.00    +0.000 C 
ATOM     12  O   UNL     1     105.354 122.599  81.594  0.00  0.00    +0.000 OA
ENDBRANCH   1  12
TORSDOF 1
ENDMDL
