MODEL 1
REMARK VINA RESULT:      -3.4      0.000      0.000
REMARK  Name = *****
REMARK  0 active torsions:
REMARK  status: ('A' for Active; 'I' for Inactive)
REMARK                            x       y       z     vdW  Elec       q    Type
REMARK                         _______ _______ _______ _____ _____    ______ ____
ROOT
ATOM      1  C   UNL     1     105.131 124.804  82.026  0.00  0.00    +0.000 C 
ATOM      2  C   UNL     1     105.935 126.017  81.538  0.00  0.00    +0.000 C 
ATOM      3  C   UNL     1     105.348 126.281  80.141  0.00  0.00    +0.000 C 
ATOM      4  C   UNL     1     105.115 124.844  79.653  0.00  0.00    +0.000 C 
ATOM      5  C   UNL     1     104.201 124.496  80.838  0.00  0.00    +0.000 C 
ATOM      6  C   UNL     1     103.094 125.562  80.659  0.00  0.00    +0.000 C 
ATOM      7  C   UNL     1     103.896 126.810  80.213  0.00  0.00    +0.000 C 
ATOM      8  C   UNL     1     103.569 127.835  81.246  0.00  0.00    +0.000 C 
ATOM      9  C   UNL     1     102.690 127.378  82.145  0.00  0.00    +0.000 C 
ATOM     10  C   UNL     1     102.265 125.969  81.878  0.00  0.00    +0.000 C 
ENDROOT
TORSDOF 0
ENDMDL
