MODEL 1
REMARK VINA RESULT:      -3.7      0.000      0.000
REMARK  Name = *****
REMARK  0 active torsions:
REMARK  status: ('A' for Active; 'I' for Inactive)
REMARK                            x       y       z     vdW  Elec       q    Type
REMARK                         _______ _______ _______ _____ _____    ______ ____
ROOT
ATOM      1  C   UNL     1     102.793 126.063  81.375  0.00  0.00    +0.000 A 
ATOM      2  C   UNL     1     101.726 126.637  82.062  0.00  0.00    +0.000 A 
ATOM      3  C   UNL     1     101.935 127.792  82.830  0.00  0.00    +0.000 A 
ATOM      4  C   UNL     1     103.186 128.393  82.903  0.00  0.00    +0.000 A 
ATOM      5  C   UNL     1     104.255 127.822  82.205  0.00  0.00    +0.000 A 
ATOM      6  C   UNL     1     104.059 126.658  81.444  0.00  0.00    +0.000 A 
ATOM      7 CL   UNL     1     105.343 125.901  80.568  0.00  0.00    +0.000 Cl
ATOM      8 CL   UNL     1     105.794 128.598  82.324  0.00  0.00    +0.000 Cl
ATOM      9  S   UNL     1     100.472 128.411  83.612  0.00  0.00    +0.000 S 
ATOM     10  S   UNL     1      99.290 126.899  82.972  0.00  0.00    +0.000 S 
ATOM     11  O   UNL     1      98.381 127.628  82.034  0.00  0.00    +0.000 OA
ATOM     12  N   UNL     1     100.440 126.056  82.075  0.00  0.00    +0.000 N 
ATOM     13  H   UNL     1     100.230 125.221  81.598  0.00  0.00    +0.000 HD
ENDROOT
TORSDOF 0
ENDMDL
