MODEL 1
REMARK VINA RESULT:      -4.1      0.000      0.000
REMARK  Name = *****
REMARK  4 active torsions:
REMARK  status: ('A' for Active; 'I' for Inactive)
REMARK    1  A    between atoms: C_1  and  O_2
REMARK    2  A    between atoms: O_2  and  C_3
REMARK    3  A    between atoms: C_10  and  C_11
REMARK    4  A    between atoms: C_11  and  C_12
REMARK                            x       y       z     vdW  Elec       q    Type
REMARK                         _______ _______ _______ _____ _____    ______ ____
ROOT
ATOM      1  C   UNL     1      88.473  70.284  87.642  0.00  0.00    +0.000 A 
ATOM      2  C   UNL     1      87.828  70.647  86.454  0.00  0.00    +0.000 A 
ATOM      3  C   UNL     1      86.572  71.301  86.443  0.00  0.00    +0.000 A 
ATOM      4  C   UNL     1      85.977  71.585  87.698  0.00  0.00    +0.000 A 
ATOM      5  C   UNL     1      84.734  72.232  87.754  0.00  0.00    +0.000 A 
ATOM      6  C   UNL     1      84.069  72.605  86.590  0.00  0.00    +0.000 A 
ATOM      7  C   UNL     1      84.639  72.335  85.352  0.00  0.00    +0.000 A 
ATOM      8  C   UNL     1      85.882  71.683  85.257  0.00  0.00    +0.000 A 
ATOM      9  C   UNL     1      86.633  71.222  88.884  0.00  0.00    +0.000 A 
ATOM     10  C   UNL     1      87.871  70.577  88.859  0.00  0.00    +0.000 A 
ENDROOT
BRANCH   1  12
ATOM     11  C   UNL     1      89.747  68.668  86.452  0.00  0.00    +0.000 C 
ATOM     12  O   UNL     1      89.677  69.660  87.468  0.00  0.00    +0.000 OA
ENDBRANCH   1  12
BRANCH   8  13
ATOM     13  C   UNL     1      86.447  71.447  83.870  0.00  0.00    +0.000 C 
BRANCH  13  14
ATOM     14  C   UNL     1      87.013  72.730  83.271  0.00  0.00    +0.000 C 
ATOM     15 CL   UNL     1      88.708  72.953  83.766  0.00  0.00    +0.000 Cl
ENDBRANCH  13  14
ENDBRANCH   8  13
TORSDOF 3
ENDMDL
