MODEL 1
REMARK VINA RESULT:      -2.5      0.000      0.000
REMARK  Name = *****
REMARK  0 active torsions:
REMARK  status: ('A' for Active; 'I' for Inactive)
REMARK                            x       y       z     vdW  Elec       q    Type
REMARK                         _______ _______ _______ _____ _____    ______ ____
ROOT
ATOM      1  C   UNL     1      88.712  65.977  86.718  0.00  0.00    +0.000 A 
ATOM      2  C   UNL     1      89.734  66.635  86.164  0.00  0.00    +0.000 A 
ATOM      3  S   UNL     1      89.741  68.358  86.328  0.00  0.00    +0.000 S 
ATOM      4  C   UNL     1      88.239  68.464  87.250  0.00  0.00    +0.000 A 
ATOM      5  S   UNL     1      87.587  69.898  87.789  0.00  0.00    +0.000 S 
ATOM      6  S   UNL     1      87.501  66.887  87.537  0.00  0.00    +0.000 S 
ATOM      7  S   UNL     1      90.965  65.767  85.337  0.00  0.00    +0.000 S 
ATOM      8  S   UNL     1      90.111  63.941  85.678  0.00  0.00    +0.000 S 
ATOM      9  C   UNL     1      88.696  64.501  86.584  0.00  0.00    +0.000 A 
ATOM     10  S   UNL     1      87.562  63.413  87.163  0.00  0.00    +0.000 S 
ENDROOT
TORSDOF 0
ENDMDL
