MODEL 1
REMARK VINA RESULT:      -4.5      0.000      0.000
REMARK  Name = *****
REMARK  5 active torsions:
REMARK  status: ('A' for Active; 'I' for Inactive)
REMARK    1  A    between atoms: C_1  and  C_2
REMARK    2  A    between atoms: C_3  and  C_14
REMARK    3  A    between atoms: C_6  and  C_7
REMARK    4  A    between atoms: C_9  and  O_12
REMARK    5  A    between atoms: O_12  and  C_13
REMARK                            x       y       z     vdW  Elec       q    Type
REMARK                         _______ _______ _______ _____ _____    ______ ____
ROOT
ATOM      1  C   UNL     1      83.636  72.696  87.766  0.00  0.00    +0.000 C 
ATOM      2  C   UNL     1      84.986  72.085  87.616  0.00  0.00    +0.000 C 
ATOM      3  C   UNL     1      85.834  71.672  88.587  0.00  0.00    +0.000 C 
ATOM      4  C   UNL     1      87.045  71.141  87.934  0.00  0.00    +0.000 C 
ATOM      5  C   UNL     1      86.916  71.240  86.541  0.00  0.00    +0.000 C 
ATOM      6  C   UNL     1      85.602  71.842  86.309  0.00  0.00    +0.000 C 
ATOM      7  C   UNL     1      85.078  72.113  85.107  0.00  0.00    +0.000 C 
ATOM      8  C   UNL     1      87.920  70.810  85.689  0.00  0.00    +0.000 C 
ATOM      9  C   UNL     1      89.084  70.266  86.244  0.00  0.00    +0.000 C 
ATOM     10  C   UNL     1      89.217  70.167  87.640  0.00  0.00    +0.000 C 
ATOM     11  C   UNL     1      88.195  70.605  88.493  0.00  0.00    +0.000 C 
ATOM     12  C   UNL     1      85.687  71.695  90.065  0.00  0.00    +0.000 C 
ENDROOT
BRANCH   9  13
ATOM     13  O   UNL     1      90.016  69.871  85.322  0.00  0.00    +0.000 OA
ATOM     14  C   UNL     1      90.471  70.856  84.402  0.00  0.00    +0.000 C 
ENDBRANCH   9  13
TORSDOF 1
ENDMDL
