MODEL 1
REMARK VINA RESULT:      -4.5      0.000      0.000
REMARK  Name = *****
REMARK  0 active torsions:
REMARK  status: ('A' for Active; 'I' for Inactive)
REMARK                            x       y       z     vdW  Elec       q    Type
REMARK                         _______ _______ _______ _____ _____    ______ ____
ROOT
ATOM      1  C   UNL     1     103.010 129.468  84.035  0.00  0.00    +0.000 A 
ATOM      2  C   UNL     1     102.893 128.338  83.313  0.00  0.00    +0.000 A 
ATOM      3  C   UNL     1     101.568 127.783  83.030  0.00  0.00    +0.000 A 
ATOM      4  C   UNL     1     101.349 126.661  82.319  0.00  0.00    +0.000 C 
ATOM      5  N   UNL     1     100.087 126.193  82.086  0.00  0.00    +0.000 N 
ATOM      6  C   UNL     1      98.951 126.801  82.537  0.00  0.00    +0.000 C 
ATOM      7  O   UNL     1      97.828 126.362  82.315  0.00  0.00    +0.000 OA
ATOM      8  C   UNL     1      99.144 128.041  83.325  0.00  0.00    +0.000 C 
ATOM      9  C   UNL     1     100.384 128.504  83.558  0.00  0.00    +0.000 A 
ATOM     10  C   UNL     1     100.594 129.726  84.334  0.00  0.00    +0.000 A 
ATOM     11  C   UNL     1     101.845 130.171  84.553  0.00  0.00    +0.000 A 
ATOM     12 CL   UNL     1     102.115 131.609  85.466  0.00  0.00    +0.000 Cl
ATOM     13 CL   UNL     1     102.548 125.661  81.611  0.00  0.00    +0.000 Cl
ATOM     14  H   UNL     1      99.992 125.366  81.561  0.00  0.00    +0.000 HD
ENDROOT
TORSDOF 0
ENDMDL
