MODEL 1
REMARK VINA RESULT:      -4.5      0.000      0.000
REMARK  Name = *****
REMARK  3 active torsions:
REMARK  status: ('A' for Active; 'I' for Inactive)
REMARK    1  A    between atoms: C_1  and  O_2
REMARK    2  A    between atoms: O_2  and  C_3
REMARK    3  A    between atoms: C_3  and  C_5
REMARK                            x       y       z     vdW  Elec       q    Type
REMARK                         _______ _______ _______ _____ _____    ______ ____
ROOT
ATOM      1  C   UNL     1     102.368 126.050  81.909  0.00  0.00    +0.000 A 
ATOM      2  C   UNL     1     102.626 127.226  82.594  0.00  0.00    +0.000 A 
ATOM      3  C   UNL     1     101.387 127.807  82.976  0.00  0.00    +0.000 A 
ATOM      4  C   UNL     1     101.017 128.974  83.675  0.00  0.00    +0.000 A 
ATOM      5  C   UNL     1      99.655 129.240  83.877  0.00  0.00    +0.000 A 
ATOM      6  C   UNL     1      98.669 128.381  83.404  0.00  0.00    +0.000 A 
ATOM      7  C   UNL     1      99.031 127.228  82.714  0.00  0.00    +0.000 A 
ATOM      8  C   UNL     1     100.385 126.959  82.511  0.00  0.00    +0.000 A 
ATOM      9  N   UNL     1     100.998 125.910  81.873  0.00  0.00    +0.000 N 
ATOM     10  F   UNL     1      98.089 126.394  82.255  0.00  0.00    +0.000 F 
ATOM     11 CL   UNL     1      99.196 130.666  84.729  0.00  0.00    +0.000 Cl
ATOM     12  H   UNL     1     100.523 125.160  81.447  0.00  0.00    +0.000 HD
ENDROOT
BRANCH   1  13
ATOM     13  C   UNL     1     103.307 125.122  81.329  0.00  0.00    +0.000 C 
ATOM     14  O   UNL     1     103.583 125.038  80.140  0.00  0.00    +0.000 OA
BRANCH  13  16
ATOM     15  C   UNL     1     104.625 123.256  81.824  0.00  0.00    +0.000 C 
ATOM     16  O   UNL     1     103.845 124.347  82.314  0.00  0.00    +0.000 OA
ENDBRANCH  13  16
ENDBRANCH   1  13
TORSDOF 2
ENDMDL
