REMARK  Name = *****
REMARK  0 active torsions:
REMARK  status: ('A' for Active; 'I' for Inactive)
REMARK                            x       y       z     vdW  Elec       q    Type
REMARK                         _______ _______ _______ _____ _____    ______ ____
ROOT
ATOM      1  C   UNL     1      -2.075  -2.272   0.002  0.00  0.00    +0.000 C 
ATOM      2  C   UNL     1      -1.755  -0.974   0.005  0.00  0.00    +0.000 C 
ATOM      3  C   UNL     1      -0.431  -0.360  -0.006  0.00  0.00    +0.000 A 
ATOM      4  C   UNL     1      -0.654   1.023   0.005  0.00  0.00    +0.000 A 
ATOM      5  C   UNL     1       0.378   1.939   0.001  0.00  0.00    +0.000 A 
ATOM      6  C   UNL     1       1.681   1.432  -0.016  0.00  0.00    +0.000 A 
ATOM      7  C   UNL     1       1.911   0.043  -0.028  0.00  0.00    +0.000 A 
ATOM      8  C   UNL     1       0.853  -0.871  -0.023  0.00  0.00    +0.000 A 
ATOM      9 CL   UNL     1       3.531  -0.542  -0.048  0.00  0.00    +0.000 Cl
ATOM     10  N   UNL     1      -2.020   1.299   0.022  0.00  0.00    +0.000 N 
ATOM     11  C   UNL     1      -2.772   0.134   0.023  0.00  0.00    +0.000 C 
ATOM     12  O   UNL     1      -3.983   0.029   0.036  0.00  0.00    +0.000 OA
ATOM     13  H   UNL     1      -2.402   2.207   0.031  0.00  0.00    +0.000 HD
ENDROOT
TORSDOF 0
