MODEL 1
REMARK VINA RESULT:      -2.7      0.000      0.000
REMARK  Name = *****
REMARK  2 active torsions:
REMARK  status: ('A' for Active; 'I' for Inactive)
REMARK    1  A    between atoms: C_1  and  O_2
REMARK    2  A    between atoms: O_2  and  C_3
REMARK                            x       y       z     vdW  Elec       q    Type
REMARK                         _______ _______ _______ _____ _____    ______ ____
ROOT
ATOM      1  C   UNL     1     103.295 129.625  84.665  0.00  0.00    +0.000 C 
ATOM      2  S   UNL     1     103.254 127.888  84.077  0.00  0.00    +0.000 S 
ATOM      3  C   UNL     1     101.604 127.923  83.576  0.00  0.00    +0.000 A 
ATOM      4  C   UNL     1     100.848 128.962  83.944  0.00  0.00    +0.000 A 
ATOM      5  S   UNL     1     101.570 130.204  84.897  0.00  0.00    +0.000 S 
ATOM      6  S   UNL     1      99.191 128.961  83.461  0.00  0.00    +0.000 S 
ATOM      7  C   UNL     1      99.265 127.425  82.605  0.00  0.00    +0.000 A 
ATOM      8  O   UNL     1      98.304 126.926  82.040  0.00  0.00    +0.000 OA
ATOM      9  S   UNL     1     100.856 126.674  82.650  0.00  0.00    +0.000 S 
ENDROOT
BRANCH   1  11
ATOM     10  C   UNL     1     104.870 129.752  82.903  0.00  0.00    +0.000 C 
ATOM     11  O   UNL     1     103.950 130.465  83.718  0.00  0.00    +0.000 OA
ENDBRANCH   1  11
TORSDOF 1
ENDMDL
