MODEL 1
REMARK VINA RESULT:      -4.2      0.000      0.000
REMARK  Name = *****
REMARK  1 active torsions:
REMARK  status: ('A' for Active; 'I' for Inactive)
REMARK    1  A    between atoms: C_9  and  C_11
REMARK                            x       y       z     vdW  Elec       q    Type
REMARK                         _______ _______ _______ _____ _____    ______ ____
ROOT
ATOM      1  C   UNL     1     104.988 123.879  81.887  0.00  0.00    +0.000 A 
ATOM      2  C   UNL     1     104.161 124.200  82.972  0.00  0.00    +0.000 A 
ATOM      3  C   UNL     1     103.075 125.060  82.758  0.00  0.00    +0.000 A 
ATOM      4  C   UNL     1     102.846 125.568  81.486  0.00  0.00    +0.000 A 
ATOM      5  C   UNL     1     103.652 125.266  80.384  0.00  0.00    +0.000 A 
ATOM      6  C   UNL     1     104.731 124.406  80.619  0.00  0.00    +0.000 A 
ATOM      7 CL   UNL     1     105.768 123.991  79.308  0.00  0.00    +0.000 Cl
ATOM      8  N   UNL     1     101.733 126.353  81.629  0.00  0.00    +0.000 N 
ATOM      9  C   UNL     1     101.322 126.308  82.947  0.00  0.00    +0.000 A 
ATOM     10  N   UNL     1     102.132 125.522  83.641  0.00  0.00    +0.000 NA
ATOM     11  H   UNL     1     101.297 126.865  80.911  0.00  0.00    +0.000 HD
ENDROOT
BRANCH   9  12
ATOM     12  C   UNL     1     100.121 127.064  83.459  0.00  0.00    +0.000 C 
ATOM     13 CL   UNL     1     100.471 128.823  83.622  0.00  0.00    +0.000 Cl
ATOM     14 CL   UNL     1      98.755 126.879  82.322  0.00  0.00    +0.000 Cl
ATOM     15 CL   UNL     1      99.655 126.445  85.069  0.00  0.00    +0.000 Cl
ENDBRANCH   9  12
TORSDOF 1
ENDMDL
