MODEL 1
REMARK VINA RESULT:      -4.2      0.000      0.000
REMARK  Name = *****
REMARK  4 active torsions:
REMARK  status: ('A' for Active; 'I' for Inactive)
REMARK    1  A    between atoms: C_1  and  C_2
REMARK    2  A    between atoms: C_9  and  O_13
REMARK    3  A    between atoms: C_10  and  C_12
REMARK    4  A    between atoms: O_13  and  C_14
REMARK                            x       y       z     vdW  Elec       q    Type
REMARK                         _______ _______ _______ _____ _____    ______ ____
ROOT
ATOM      1  C   UNL     1      89.456  71.121  85.152  0.00  0.00    +0.000 C 
ATOM      2  C   UNL     1      88.494  70.486  86.165  0.00  0.00    +0.000 C 
ATOM      3  C   UNL     1      89.184  70.467  87.542  0.00  0.00    +0.000 C 
ATOM      4  C   UNL     1      88.217  70.022  88.628  0.00  0.00    +0.000 C 
ATOM      5  C   UNL     1      87.076  71.025  88.750  0.00  0.00    +0.000 C 
ATOM      6  C   UNL     1      86.460  71.374  87.417  0.00  0.00    +0.000 A 
ATOM      7  C   UNL     1      87.125  71.151  86.209  0.00  0.00    +0.000 A 
ATOM      8  C   UNL     1      86.452  71.488  85.023  0.00  0.00    +0.000 A 
ATOM      9  C   UNL     1      85.174  72.089  84.996  0.00  0.00    +0.000 A 
ATOM     10  C   UNL     1      84.529  72.355  86.208  0.00  0.00    +0.000 A 
ATOM     11  C   UNL     1      85.195  71.983  87.401  0.00  0.00    +0.000 A 
ATOM     12  C   UNL     1      83.189  72.993  86.437  0.00  0.00    +0.000 C 
ENDROOT
BRANCH   9  13
ATOM     13  O   UNL     1      84.792  72.307  83.704  0.00  0.00    +0.000 OA
ATOM     14  C   UNL     1      85.085  73.510  83.029  0.00  0.00    +0.000 C 
ENDBRANCH   9  13
TORSDOF 1
ENDMDL
