MODEL 1
REMARK VINA RESULT:      -4.8      0.000      0.000
REMARK  Name = *****
REMARK  0 active torsions:
REMARK  status: ('A' for Active; 'I' for Inactive)
REMARK                            x       y       z     vdW  Elec       q    Type
REMARK                         _______ _______ _______ _____ _____    ______ ____
ROOT
ATOM      1  C   UNL     1     100.003 129.939  84.445  0.00  0.00    +0.000 A 
ATOM      2  C   UNL     1     101.385 129.739  84.240  0.00  0.00    +0.000 A 
ATOM      3  C   UNL     1     101.855 128.621  83.508  0.00  0.00    +0.000 A 
ATOM      4  C   UNL     1     103.176 128.217  83.179  0.00  0.00    +0.000 A 
ATOM      5  C   UNL     1     103.414 127.043  82.424  0.00  0.00    +0.000 A 
ATOM      6  C   UNL     1     102.359 126.225  81.969  0.00  0.00    +0.000 A 
ATOM      7  C   UNL     1     101.090 126.648  82.307  0.00  0.00    +0.000 A 
ATOM      8  C   UNL     1     100.877 127.793  83.042  0.00  0.00    +0.000 A 
ATOM      9  C   UNL     1      99.513 127.954  83.222  0.00  0.00    +0.000 A 
ATOM     10  C   UNL     1      99.038 129.049  83.939  0.00  0.00    +0.000 A 
ATOM     11  C   UNL     1      98.805 126.866  82.576  0.00  0.00    +0.000 C 
ATOM     12  O   UNL     1      97.617 126.595  82.473  0.00  0.00    +0.000 OA
ATOM     13  N   UNL     1      99.849 126.102  82.034  0.00  0.00    +0.000 N 
ATOM     14 BR   UNL     1     104.681 129.232  83.734  0.00  0.00    +0.000 Br
ATOM     15  H   UNL     1      99.714 125.273  81.519  0.00  0.00    +0.000 HD
ENDROOT
TORSDOF 0
ENDMDL
