MODEL 1
REMARK VINA RESULT:      -4.4      0.000      0.000
REMARK  Name = *****
REMARK  2 active torsions:
REMARK  status: ('A' for Active; 'I' for Inactive)
REMARK    1  A    between atoms: C_6  and  O_11
REMARK    2  A    between atoms: O_11  and  C_12
REMARK                            x       y       z     vdW  Elec       q    Type
REMARK                         _______ _______ _______ _____ _____    ______ ____
ROOT
ATOM      1  C   UNL     1      98.993 129.100  83.458  0.00  0.00    +0.000 A 
ATOM      2  C   UNL     1      98.459 127.966  82.851  0.00  0.00    +0.000 A 
ATOM      3  C   UNL     1      99.303 126.935  82.438  0.00  0.00    +0.000 A 
ATOM      4  C   UNL     1     100.692 127.023  82.627  0.00  0.00    +0.000 A 
ATOM      5  C   UNL     1     101.558 125.995  82.218  0.00  0.00    +0.000 A 
ATOM      6  C   UNL     1     102.941 126.087  82.409  0.00  0.00    +0.000 A 
ATOM      7  C   UNL     1     103.468 127.225  83.016  0.00  0.00    +0.000 A 
ATOM      8  C   UNL     1     102.620 128.259  83.429  0.00  0.00    +0.000 A 
ATOM      9  C   UNL     1     101.233 128.173  83.242  0.00  0.00    +0.000 A 
ATOM     10  C   UNL     1     100.371 129.203  83.652  0.00  0.00    +0.000 A 
ENDROOT
BRANCH   6  11
ATOM     11  O   UNL     1     103.645 125.007  81.959  0.00  0.00    +0.000 OA
BRANCH  11  12
ATOM     12  C   UNL     1     104.257 125.099  80.685  0.00  0.00    +0.000 C 
ATOM     13  F   UNL     1     103.624 126.001  79.903  0.00  0.00    +0.000 F 
ATOM     14  F   UNL     1     105.535 125.510  80.846  0.00  0.00    +0.000 F 
ATOM     15  F   UNL     1     104.279 123.899  80.065  0.00  0.00    +0.000 F 
ENDBRANCH  11  12
ENDBRANCH   6  11
TORSDOF 2
ENDMDL
