MODEL 1
REMARK VINA RESULT:      -3.4      0.000      0.000
REMARK  Name = *****
REMARK  0 active torsions:
REMARK  status: ('A' for Active; 'I' for Inactive)
REMARK                            x       y       z     vdW  Elec       q    Type
REMARK                         _______ _______ _______ _____ _____    ______ ____
ROOT
ATOM      1  C   UNL     1      98.449 119.170  80.992  0.00  0.00    +0.000 C 
ATOM      2  C   UNL     1      97.262 118.583  80.801  0.00  0.00    +0.000 C 
ATOM      3  C   UNL     1      96.985 117.303  80.047  0.00  0.00    +0.000 C 
ATOM      4  C   UNL     1      98.016 116.810  79.028  0.00  0.00    +0.000 C 
ATOM      5  C   UNL     1      97.515 115.533  78.346  0.00  0.00    +0.000 C 
ATOM      6  C   UNL     1      96.121 115.698  77.738  0.00  0.00    +0.000 C 
ATOM      7  C   UNL     1      95.107 116.265  78.737  0.00  0.00    +0.000 C 
ATOM      8  C   UNL     1      95.638 117.562  79.351  0.00  0.00    +0.000 C 
ATOM      9  C   UNL     1      94.811 118.262  80.403  0.00  0.00    +0.000 C 
ATOM     10  C   UNL     1      93.498 118.126  80.623  0.00  0.00    +0.000 C 
ATOM     11  S   UNL     1      95.788 119.313  81.413  0.00  0.00    +0.000 S 
ENDROOT
TORSDOF 0
ENDMDL
