MODEL 1
REMARK VINA RESULT:      -4.1      0.000      0.000
REMARK  Name = *****
REMARK  4 active torsions:
REMARK  status: ('A' for Active; 'I' for Inactive)
REMARK    1  A    between atoms: C_1  and  C_2
REMARK    2  A    between atoms: C_9  and  O_13
REMARK    3  A    between atoms: C_10  and  C_12
REMARK    4  A    between atoms: O_13  and  C_14
REMARK                            x       y       z     vdW  Elec       q    Type
REMARK                         _______ _______ _______ _____ _____    ______ ____
ROOT
ATOM      1  C   UNL     1     101.278 126.398  82.535  0.00  0.00    +0.000 C 
ATOM      2  C   UNL     1     102.795 126.603  82.643  0.00  0.00    +0.000 C 
ATOM      3  C   UNL     1     103.254 127.805  81.789  0.00  0.00    +0.000 C 
ATOM      4  C   UNL     1     103.471 127.465  80.341  0.00  0.00    +0.000 C 
ATOM      5  C   UNL     1     103.793 126.227  79.944  0.00  0.00    +0.000 C 
ATOM      6  C   UNL     1     103.967 125.154  80.930  0.00  0.00    +0.000 A 
ATOM      7  C   UNL     1     103.516 125.326  82.249  0.00  0.00    +0.000 A 
ATOM      8  C   UNL     1     103.688 124.290  83.184  0.00  0.00    +0.000 A 
ATOM      9  C   UNL     1     104.305 123.090  82.817  0.00  0.00    +0.000 A 
ATOM     10  C   UNL     1     104.754 122.918  81.497  0.00  0.00    +0.000 A 
ATOM     11  C   UNL     1     104.577 123.952  80.562  0.00  0.00    +0.000 A 
ATOM     12  C   UNL     1     105.419 121.637  81.072  0.00  0.00    +0.000 C 
ENDROOT
BRANCH   9  13
ATOM     13  O   UNL     1     104.515 122.028  83.658  0.00  0.00    +0.000 OA
ATOM     14  C   UNL     1     105.092 122.303  84.927  0.00  0.00    +0.000 C 
ENDBRANCH   9  13
TORSDOF 1
ENDMDL
