MODEL 1
REMARK VINA RESULT:      -3.9      0.000      0.000
REMARK  Name = *****
REMARK  0 active torsions:
REMARK  status: ('A' for Active; 'I' for Inactive)
REMARK                            x       y       z     vdW  Elec       q    Type
REMARK                         _______ _______ _______ _____ _____    ______ ____
ROOT
ATOM      1  C   UNL     1     103.791 127.395  81.837  0.00  0.00    +0.000 A 
ATOM      2  C   UNL     1     103.333 128.430  82.660  0.00  0.00    +0.000 A 
ATOM      3  C   UNL     1     102.051 128.330  83.173  0.00  0.00    +0.000 A 
ATOM      4  C   UNL     1     101.228 127.239  82.888  0.00  0.00    +0.000 A 
ATOM      5  C   UNL     1     101.675 126.206  82.072  0.00  0.00    +0.000 A 
ATOM      6  C   UNL     1     102.966 126.295  81.549  0.00  0.00    +0.000 A 
ATOM      7 CL   UNL     1     103.558 125.037  80.535  0.00  0.00    +0.000 Cl
ATOM      8  C   UNL     1      99.908 127.421  83.586  0.00  0.00    +0.000 C 
ATOM      9  C   UNL     1     100.077 128.772  84.319  0.00  0.00    +0.000 C 
ATOM     10  O   UNL     1      99.251 129.334  85.026  0.00  0.00    +0.000 OA
ATOM     11  N   UNL     1     101.372 129.217  84.007  0.00  0.00    +0.000 N 
ATOM     12 CL   UNL     1     102.000 130.659  84.591  0.00  0.00    +0.000 Cl
ATOM     13 CL   UNL     1      98.583 127.551  82.420  0.00  0.00    +0.000 Cl
ATOM     14 CL   UNL     1      99.630 126.140  84.773  0.00  0.00    +0.000 Cl
ENDROOT
TORSDOF 0
ENDMDL
