REMARK  Name = *****
REMARK  1 active torsions:
REMARK  status: ('A' for Active; 'I' for Inactive)
REMARK    1  A    between atoms: C_1  and  N_2
REMARK                            x       y       z     vdW  Elec       q    Type
REMARK                         _______ _______ _______ _____ _____    ______ ____
ROOT
ATOM      1  C   UNL     1       1.087   0.038  -0.085  0.00  0.00    +0.000 C 
ATOM      2  N   UNL     1       2.525   0.016  -0.086  0.00  0.00    +0.000 N 
ATOM      3  C   UNL     1       3.376   1.122  -0.085  0.00  0.00    +0.000 A 
ATOM      4  C   UNL     1       4.667   0.638  -0.084  0.00  0.00    +0.000 A 
ATOM      5  C   UNL     1       5.797   1.403  -0.083  0.00  0.00    +0.000 A 
ATOM      6  C   UNL     1       5.570   2.801  -0.083  0.00  0.00    +0.000 A 
ATOM      7  C   UNL     1       4.257   3.322  -0.084  0.00  0.00    +0.000 A 
ATOM      8  C   UNL     1       3.124   2.485  -0.085  0.00  0.00    +0.000 A 
ATOM      9 CL   UNL     1       6.888   3.918  -0.082  0.00  0.00    +0.000 Cl
ATOM     10  C   UNL     1       7.013   0.678  -0.082  0.00  0.00    +0.000 A 
ATOM     11  C   UNL     1       7.009  -0.732  -0.083  0.00  0.00    +0.000 A 
ATOM     12  C   UNL     1       5.814  -1.473  -0.084  0.00  0.00    +0.000 A 
ATOM     13  C   UNL     1       4.626  -0.746  -0.085  0.00  0.00    +0.000 A 
ATOM     14  C   UNL     1       3.249  -1.199  -0.086  0.00  0.00    +0.000 C 
ATOM     15  O   UNL     1       2.763  -2.323  -0.086  0.00  0.00    +0.000 OA
ENDROOT
TORSDOF 0
