MODEL 1
REMARK VINA RESULT:      -4.0      0.000      0.000
REMARK  Name = *****
REMARK  4 active torsions:
REMARK  status: ('A' for Active; 'I' for Inactive)
REMARK    1  A    between atoms: C_1  and  C_2
REMARK    2  A    between atoms: C_3  and  C_13
REMARK    3  A    between atoms: C_8  and  O_11
REMARK    4  A    between atoms: O_11  and  C_12
REMARK                            x       y       z     vdW  Elec       q    Type
REMARK                         _______ _______ _______ _____ _____    ______ ____
ROOT
ATOM      1  C   UNL     1      86.427  72.166  84.385  0.00  0.00    +0.000 C 
ATOM      2  C   UNL     1      85.836  71.306  85.496  0.00  0.00    +0.000 C 
ATOM      3  C   UNL     1      84.832  72.053  86.367  0.00  0.00    +0.000 C 
ATOM      4  C   UNL     1      85.202  72.092  87.660  0.00  0.00    +0.000 C 
ATOM      5  C   UNL     1      86.465  71.388  87.785  0.00  0.00    +0.000 A 
ATOM      6  C   UNL     1      86.860  70.916  86.529  0.00  0.00    +0.000 A 
ATOM      7  C   UNL     1      88.035  70.195  86.376  0.00  0.00    +0.000 A 
ATOM      8  C   UNL     1      88.830  69.953  87.502  0.00  0.00    +0.000 A 
ATOM      9  C   UNL     1      88.429  70.435  88.762  0.00  0.00    +0.000 A 
ATOM     10  C   UNL     1      87.237  71.157  88.908  0.00  0.00    +0.000 A 
ATOM     11  C   UNL     1      83.582  72.620  85.794  0.00  0.00    +0.000 C 
ENDROOT
BRANCH   8  12
ATOM     12  O   UNL     1      89.969  69.238  87.246  0.00  0.00    +0.000 OA
ATOM     13  C   UNL     1      89.879  68.217  86.261  0.00  0.00    +0.000 C 
ENDBRANCH   8  12
TORSDOF 1
ENDMDL
