MODEL 1
REMARK VINA RESULT:      -4.2      0.000      0.000
REMARK  Name = *****
REMARK  0 active torsions:
REMARK  status: ('A' for Active; 'I' for Inactive)
REMARK                            x       y       z     vdW  Elec       q    Type
REMARK                         _______ _______ _______ _____ _____    ______ ____
ROOT
ATOM      1  C   UNL     1     101.796 128.882  83.738  0.00  0.00    +0.000 A 
ATOM      2  C   UNL     1     103.130 128.685  83.374  0.00  0.00    +0.000 A 
ATOM      3  C   UNL     1     103.511 127.631  82.521  0.00  0.00    +0.000 A 
ATOM      4  C   UNL     1     102.551 126.750  82.015  0.00  0.00    +0.000 A 
ATOM      5  C   UNL     1     101.230 126.944  82.374  0.00  0.00    +0.000 A 
ATOM      6  C   UNL     1     100.876 127.992  83.219  0.00  0.00    +0.000 A 
ATOM      7  C   UNL     1      99.425 127.928  83.406  0.00  0.00    +0.000 C 
ATOM      8  O   UNL     1      98.747 128.670  84.074  0.00  0.00    +0.000 OA
ATOM      9  C   UNL     1      98.959 126.706  82.565  0.00  0.00    +0.000 C 
ATOM     10  O   UNL     1      97.823 126.305  82.447  0.00  0.00    +0.000 OA
ATOM     11  N   UNL     1     100.110 126.199  81.998  0.00  0.00    +0.000 N 
ATOM     12 CL   UNL     1     103.016 125.465  80.974  0.00  0.00    +0.000 Cl
ATOM     13 BR   UNL     1     104.453 129.860  84.041  0.00  0.00    +0.000 Br
ATOM     14  H   UNL     1     100.138 125.414  81.404  0.00  0.00    +0.000 HD
ENDROOT
TORSDOF 0
ENDMDL
