MODEL 1
REMARK VINA RESULT:      -4.1      0.000      0.000
REMARK  Name = *****
REMARK  1 active torsions:
REMARK  status: ('A' for Active; 'I' for Inactive)
REMARK    1  A    between atoms: CA_9  and  C_11
REMARK                            x       y       z     vdW  Elec       q    Type
REMARK                         _______ _______ _______ _____ _____    ______ ____
ROOT
ATOM      1  C   UNL     1      98.530 128.290  83.547  0.00  0.00    +0.000 A 
ATOM      2  C   UNL     1      98.924 127.140  82.857  0.00  0.00    +0.000 A 
ATOM      3  C   UNL     1     100.291 126.974  82.604  0.00  0.00    +0.000 A 
ATOM      4  C   UNL     1     101.255 127.900  83.007  0.00  0.00    +0.000 A 
ATOM      5  C   UNL     1     100.833 129.054  83.702  0.00  0.00    +0.000 A 
ATOM      6  C   UNL     1      99.470 129.231  83.961  0.00  0.00    +0.000 A 
ATOM      7 CL   UNL     1      98.948 130.636  84.809  0.00  0.00    +0.000 Cl
ATOM      8  C   UNL     1     102.517 127.397  82.578  0.00  0.00    +0.000 A 
ATOM      9  CA  UNL     1     102.307 126.197  81.932  0.00  0.00    +0.000 A 
ATOM     10  N   UNL     1     100.953 125.957  81.957  0.00  0.00    +0.000 N 
ATOM     11 CL   UNL     1     104.010 128.176  82.838  0.00  0.00    +0.000 Cl
ATOM     12  H   UNL     1     100.517 125.166  81.566  0.00  0.00    +0.000 HD
ENDROOT
BRANCH   9  13
ATOM     13  C   UNL     1     103.242 125.294  81.317  0.00  0.00    +0.000 C 
ATOM     14  O   UNL     1     103.383 125.199  80.101  0.00  0.00    +0.000 OA
ENDBRANCH   9  13
TORSDOF 1
ENDMDL
