MODEL 1
REMARK VINA RESULT:      -4.0      0.000      0.000
REMARK  Name = *****
REMARK  0 active torsions:
REMARK  status: ('A' for Active; 'I' for Inactive)
REMARK                            x       y       z     vdW  Elec       q    Type
REMARK                         _______ _______ _______ _____ _____    ______ ____
ROOT
ATOM      1  C   UNL     1      99.786 128.801  83.977  0.00  0.00    +0.000 C 
ATOM      2  C   UNL     1      98.765 128.417  82.926  0.00  0.00    +0.000 C 
ATOM      3  C   UNL     1      98.932 126.979  82.517  0.00  0.00    +0.000 C 
ATOM      4  O   UNL     1      97.980 126.233  82.312  0.00  0.00    +0.000 OA
ATOM      5  O   UNL     1     100.241 126.574  82.288  0.00  0.00    +0.000 OA
ATOM      6  C   UNL     1     101.342 127.387  82.635  0.00  0.00    +0.000 A 
ATOM      7  C   UNL     1     101.159 128.491  83.470  0.00  0.00    +0.000 A 
ATOM      8  C   UNL     1     102.273 129.247  83.849  0.00  0.00    +0.000 A 
ATOM      9  C   UNL     1     103.542 128.905  83.372  0.00  0.00    +0.000 A 
ATOM     10  C   UNL     1     103.717 127.808  82.530  0.00  0.00    +0.000 A 
ATOM     11  C   UNL     1     102.612 127.041  82.163  0.00  0.00    +0.000 A 
ATOM     12 CL   UNL     1     102.849 125.680  81.132  0.00  0.00    +0.000 Cl
ATOM     13 CL   UNL     1     104.904 129.848  83.837  0.00  0.00    +0.000 Cl
ENDROOT
TORSDOF 0
ENDMDL
