REMARK  Name = *****
REMARK  1 active torsions:
REMARK  status: ('A' for Active; 'I' for Inactive)
REMARK    1  A    between atoms: C_1  and  C_2
REMARK                            x       y       z     vdW  Elec       q    Type
REMARK                         _______ _______ _______ _____ _____    ______ ____
ROOT
ATOM      1  C   UNL     1       1.073   0.058   0.072  0.00  0.00    +0.000 C 
ATOM      2  C   UNL     1       2.581   0.027   0.068  0.00  0.00    +0.000 A 
ATOM      3  C   UNL     1       3.313  -1.193   0.067  0.00  0.00    +0.000 A 
ATOM      4  C   UNL     1       4.714  -1.212   0.062  0.00  0.00    +0.000 A 
ATOM      5  C   UNL     1       5.353   0.002   0.058  0.00  0.00    +0.000 A 
ATOM      6  C   UNL     1       4.682   1.203   0.060  0.00  0.00    +0.000 A 
ATOM      7  C   UNL     1       3.300   1.246   0.065  0.00  0.00    +0.000 A 
ATOM      8 CL   UNL     1       2.506   2.778   0.067  0.00  0.00    +0.000 Cl
ATOM      9  O   UNL     1       5.553   2.286   0.055  0.00  0.00    +0.000 OA
ATOM     10  C   UNL     1       6.809   1.669   0.050  0.00  0.00    +0.000 A 
ATOM     11  O   UNL     1       7.870   2.273   0.044  0.00  0.00    +0.000 OA
ATOM     12  N   UNL     1       6.685   0.300   0.052  0.00  0.00    +0.000 N 
ATOM     13 CL   UNL     1       2.528  -2.735   0.073  0.00  0.00    +0.000 Cl
ATOM     14  H   UNL     1       7.424  -0.349   0.049  0.00  0.00    +0.000 HD
ENDROOT
TORSDOF 0
