MODEL 1
REMARK VINA RESULT:      -4.3      0.000      0.000
REMARK  Name = *****
REMARK  3 active torsions:
REMARK  status: ('A' for Active; 'I' for Inactive)
REMARK    1  A    between atoms: C_1  and  C_2
REMARK    2  A    between atoms: C_5  and  O_12
REMARK    3  A    between atoms: O_12  and  C_13
REMARK                            x       y       z     vdW  Elec       q    Type
REMARK                         _______ _______ _______ _____ _____    ______ ____
ROOT
ATOM      1  C   UNL     1      85.104  72.048  85.086  0.00  0.00    +0.000 C 
ATOM      2  C   UNL     1      85.516  71.848  86.521  0.00  0.00    +0.000 A 
ATOM      3  C   UNL     1      86.773  71.279  86.869  0.00  0.00    +0.000 A 
ATOM      4  C   UNL     1      87.735  70.863  85.915  0.00  0.00    +0.000 A 
ATOM      5  C   UNL     1      88.963  70.315  86.298  0.00  0.00    +0.000 A 
ATOM      6  C   UNL     1      89.248  70.169  87.651  0.00  0.00    +0.000 A 
ATOM      7  C   UNL     1      88.322  70.564  88.616  0.00  0.00    +0.000 A 
ATOM      8  C   UNL     1      87.089  71.117  88.242  0.00  0.00    +0.000 A 
ATOM      9  C   UNL     1      86.168  71.507  89.225  0.00  0.00    +0.000 A 
ATOM     10  C   UNL     1      84.937  72.054  88.872  0.00  0.00    +0.000 A 
ATOM     11  C   UNL     1      84.614  72.222  87.531  0.00  0.00    +0.000 A 
ENDROOT
BRANCH   5  12
ATOM     12  O   UNL     1      89.954  69.889  85.457  0.00  0.00    +0.000 OA
ATOM     13  C   UNL     1      90.425  70.818  84.489  0.00  0.00    +0.000 C 
ENDBRANCH   5  12
TORSDOF 1
ENDMDL
