MODEL 1
REMARK VINA RESULT:      -3.6      0.000      0.000
REMARK  Name = *****
REMARK  0 active torsions:
REMARK  status: ('A' for Active; 'I' for Inactive)
REMARK                            x       y       z     vdW  Elec       q    Type
REMARK                         _______ _______ _______ _____ _____    ______ ____
ROOT
ATOM      1  C   UNL     1      84.799  72.339  86.902  0.00  0.00    +0.000 C 
ATOM      2  C   UNL     1      86.033  71.576  86.310  0.00  0.00    +0.000 C 
ATOM      3  C   UNL     1      86.316  70.631  87.444  0.00  0.00    +0.000 C 
ATOM      4  C   UNL     1      87.509  69.759  87.833  0.00  0.00    +0.000 C 
ATOM      5  C   UNL     1      86.952  69.360  89.234  0.00  0.00    +0.000 C 
ATOM      6  C   UNL     1      86.905  70.806  89.755  0.00  0.00    +0.000 C 
ATOM      7  C   UNL     1      86.213  71.608  88.641  0.00  0.00    +0.000 C 
ATOM      8  C   UNL     1      84.791  72.067  88.446  0.00  0.00    +0.000 C 
ATOM      9  C   UNL     1      88.384  71.100  89.500  0.00  0.00    +0.000 C 
ATOM     10  C   UNL     1      88.711  70.535  88.321  0.00  0.00    +0.000 C 
ENDROOT
TORSDOF 0
ENDMDL
