MODEL 1
REMARK VINA RESULT:      -3.9      0.000      0.000
REMARK  Name = *****
REMARK  0 active torsions:
REMARK  status: ('A' for Active; 'I' for Inactive)
REMARK                            x       y       z     vdW  Elec       q    Type
REMARK                         _______ _______ _______ _____ _____    ______ ____
ROOT
ATOM      1  C   UNL     1      98.605 128.310  83.238  0.00  0.00    +0.000 A 
ATOM      2  C   UNL     1      99.016 127.163  82.551  0.00  0.00    +0.000 A 
ATOM      3  C   UNL     1     100.393 126.924  82.462  0.00  0.00    +0.000 A 
ATOM      4  C   UNL     1     101.350 127.777  83.025  0.00  0.00    +0.000 A 
ATOM      5  C   UNL     1     100.911 128.927  83.711  0.00  0.00    +0.000 A 
ATOM      6  C   UNL     1      99.539 129.176  83.807  0.00  0.00    +0.000 A 
ATOM      7 CL   UNL     1      98.992 130.578  84.645  0.00  0.00    +0.000 Cl
ATOM      8  C   UNL     1     102.633 127.226  82.741  0.00  0.00    +0.000 A 
ATOM      9  C   UNL     1     102.414 126.080  82.030  0.00  0.00    +0.000 A 
ATOM     10  N   UNL     1     101.079 125.892  81.858  0.00  0.00    +0.000 N 
ATOM     11 CL   UNL     1     103.475 124.931  81.372  0.00  0.00    +0.000 Cl
ATOM     12  H   UNL     1     100.667 125.137  81.378  0.00  0.00    +0.000 HD
ENDROOT
TORSDOF 0
ENDMDL
