REMARK  Name = *****
REMARK  1 active torsions:
REMARK  status: ('A' for Active; 'I' for Inactive)
REMARK    1  A    between atoms: C_1  and  S_2
REMARK                            x       y       z     vdW  Elec       q    Type
REMARK                         _______ _______ _______ _____ _____    ______ ____
ROOT
ATOM      1  C   UNL     1       0.833   0.078   0.007  0.00  0.00    +0.000 C 
ATOM      2  S   UNL     1       2.587  -0.014   0.140  0.00  0.00    +0.000 S 
ATOM      3  C   UNL     1       3.177  -1.345  -0.877  0.00  0.00    +0.000 C 
ATOM      4  C   UNL     1       4.267  -0.687  -1.726  0.00  0.00    +0.000 C 
ATOM      5  C   UNL     1       4.630  -1.452  -2.994  0.00  0.00    +0.000 C 
ATOM      6  C   UNL     1       5.666  -0.670  -3.806  0.00  0.00    +0.000 C 
ATOM      7  C   UNL     1       5.221   0.766  -4.097  0.00  0.00    +0.000 C 
ATOM      8  C   UNL     1       4.796   1.518  -2.833  0.00  0.00    +0.000 C 
ATOM      9  C   UNL     1       3.741   0.722  -2.073  0.00  0.00    +0.000 C 
ATOM     10  C   UNL     1       3.308   1.348  -0.744  0.00  0.00    +0.000 C 
ATOM     11  I   UNL     1       3.329  -0.150   2.319  0.00  0.00    +0.000 I 
ENDROOT
TORSDOF 0
