MODEL 1
REMARK VINA RESULT:      -6.6      0.000      0.000
REMARK  Name = *****
REMARK  2 active torsions:
REMARK  status: ('A' for Active; 'I' for Inactive)
REMARK    1  A    between atoms: C_7  and  C_8
REMARK    2  A    between atoms: C_8  and  N_9
REMARK                            x       y       z     vdW  Elec       q    Type
REMARK                         _______ _______ _______ _____ _____    ______ ____
ROOT
ATOM      1  N   UNL     1      88.469  62.241  85.296  0.00  0.00    +0.000 N 
ATOM      2  C   UNL     1      88.866  63.528  85.588  0.00  0.00    +0.000 C 
ATOM      3  N   UNL     1      87.938  64.371  86.024  0.00  0.00    +0.000 NA
ATOM      4  C   UNL     1      88.314  65.616  86.298  0.00  0.00    +0.000 C 
ATOM      5  C   UNL     1      89.625  66.077  86.130  0.00  0.00    +0.000 C 
ATOM      6  N   UNL     1      90.004  67.360  86.421  0.00  0.00    +0.000 NA
ATOM      7  C   UNL     1      89.045  68.183  86.903  0.00  0.00    +0.000 C 
ATOM      8  C   UNL     1      87.750  67.721  87.060  0.00  0.00    +0.000 C 
ATOM      9  N   UNL     1      87.377  66.454  86.754  0.00  0.00    +0.000 NA
ATOM     10  C   UNL     1      90.499  65.102  85.662  0.00  0.00    +0.000 C 
ATOM     11  N   UNL     1      91.843  65.419  85.392  0.00  0.00    +0.000 N 
ATOM     12  N   UNL     1      90.139  63.842  85.375  0.00  0.00    +0.000 NA
ATOM     13  H   UNL     1      87.534  61.969  85.439  0.00  0.00    +0.000 HD
ATOM     14  H   UNL     1      89.122  61.593  84.942  0.00  0.00    +0.000 HD
ATOM     15  H   UNL     1      92.182  66.325  85.577  0.00  0.00    +0.000 HD
ATOM     16  H   UNL     1      92.445  64.735  85.019  0.00  0.00    +0.000 HD
ENDROOT
BRANCH   7  17
ATOM     17  C   UNL     1      89.416  69.609  87.266  0.00  0.00    +0.000 C 
BRANCH  17  18
ATOM     18  N   UNL     1      88.659  70.631  86.482  0.00  0.00    +0.000 N 
ATOM     19  C   UNL     1      89.053  70.607  85.094  0.00  0.00    +0.000 A 
ATOM     20  C   UNL     1      90.402  70.815  84.750  0.00  0.00    +0.000 A 
ATOM     21  C   UNL     1      90.835  70.749  83.422  0.00  0.00    +0.000 A 
ATOM     22  C   UNL     1      89.926  70.485  82.399  0.00  0.00    +0.000 A 
ATOM     23  C   UNL     1      88.578  70.308  82.699  0.00  0.00    +0.000 A 
ATOM     24  C   UNL     1      88.144  70.382  84.028  0.00  0.00    +0.000 A 
ATOM     25  C   UNL     1      86.716  70.258  84.336  0.00  0.00    +0.000 C 
ATOM     26  C   UNL     1      86.272  71.414  84.854  0.00  0.00    +0.000 C 
ATOM     27  C   UNL     1      86.258  71.426  86.324  0.00  0.00    +0.000 A 
ATOM     28  C   UNL     1      85.073  71.854  86.944  0.00  0.00    +0.000 A 
ATOM     29  C   UNL     1      84.997  71.939  88.329  0.00  0.00    +0.000 A 
ATOM     30  C   UNL     1      86.108  71.615  89.094  0.00  0.00    +0.000 A 
ATOM     31  C   UNL     1      87.293  71.191  88.478  0.00  0.00    +0.000 A 
ATOM     32  C   UNL     1      87.412  71.056  87.076  0.00  0.00    +0.000 A 
ENDBRANCH  17  18
ENDBRANCH   7  17
TORSDOF 2
ENDMDL
