MODEL 1
REMARK VINA RESULT:      -6.1      0.000      0.000
REMARK  Name = *****
REMARK  1 active torsions:
REMARK  status: ('A' for Active; 'I' for Inactive)
REMARK    1  A    between atoms: C_6  and  N_7
REMARK                            x       y       z     vdW  Elec       q    Type
REMARK                         _______ _______ _______ _____ _____    ______ ____
ROOT
ATOM      1  O   UNL     1      86.574  67.511  84.181  0.00  0.00    +0.000 OA
ATOM      2  C   UNL     1      87.267  67.259  85.153  0.00  0.00    +0.000 C 
ATOM      3  O   UNL     1      87.307  66.041  85.752  0.00  0.00    +0.000 OA
ATOM      4  C   UNL     1      88.369  65.996  86.695  0.00  0.00    +0.000 C 
ATOM      5  C   UNL     1      89.003  67.371  86.799  0.00  0.00    +0.000 C 
ATOM      6  C   UNL     1      88.144  68.235  85.901  0.00  0.00    +0.000 C 
ATOM      7  C   UNL     1      89.423  64.945  86.245  0.00  0.00    +0.000 C 
ATOM      8  O   UNL     1      90.101  64.988  85.231  0.00  0.00    +0.000 OA
ATOM      9  N   UNL     1      89.465  63.952  87.215  0.00  0.00    +0.000 N 
ATOM     10  C   UNL     1      88.570  64.215  88.240  0.00  0.00    +0.000 A 
ATOM     11  C   UNL     1      88.339  63.446  89.361  0.00  0.00    +0.000 A 
ATOM     12  C   UNL     1      87.380  63.905  90.266  0.00  0.00    +0.000 A 
ATOM     13  C   UNL     1      86.681  65.104  90.029  0.00  0.00    +0.000 A 
ATOM     14  C   UNL     1      86.931  65.866  88.884  0.00  0.00    +0.000 A 
ATOM     15  C   UNL     1      87.889  65.409  87.995  0.00  0.00    +0.000 A 
ATOM     16  H   UNL     1      90.053  63.165  87.179  0.00  0.00    +0.000 HD
ENDROOT
BRANCH   6  17
ATOM     17  N   UNL     1      88.867  69.129  85.001  0.00  0.00    +0.000 N 
ATOM     18  C   UNL     1      89.802  68.641  84.115  0.00  0.00    +0.000 A 
ATOM     19  N   UNL     1      90.483  69.357  83.286  0.00  0.00    +0.000 NA
ATOM     20  C   UNL     1      90.238  70.735  83.258  0.00  0.00    +0.000 A 
ATOM     21  C   UNL     1      90.957  71.532  82.364  0.00  0.00    +0.000 A 
ATOM     22  C   UNL     1      90.737  72.911  82.303  0.00  0.00    +0.000 A 
ATOM     23  C   UNL     1      89.791  73.506  83.137  0.00  0.00    +0.000 A 
ATOM     24  C   UNL     1      89.066  72.722  84.034  0.00  0.00    +0.000 A 
ATOM     25  C   UNL     1      89.296  71.342  84.088  0.00  0.00    +0.000 A 
ATOM     26  C   UNL     1      88.557  70.483  85.031  0.00  0.00    +0.000 A 
ATOM     27  O   UNL     1      87.743  70.981  85.805  0.00  0.00    +0.000 OA
ENDBRANCH   6  17
TORSDOF 1
ENDMDL
