REMARK  Name = *****
REMARK  3 active torsions:
REMARK  status: ('A' for Active; 'I' for Inactive)
REMARK    1  A    between atoms: C_1  and  O_2
REMARK    2  A    between atoms: O_2  and  C_3
REMARK    3  A    between atoms: C_10  and  C_13
REMARK                            x       y       z     vdW  Elec       q    Type
REMARK                         _______ _______ _______ _____ _____    ______ ____
ROOT
ATOM      1  C   UNL     1       2.980  -0.490   1.243  0.00  0.00    +0.000 A 
ATOM      2  C   UNL     1       4.058   0.272   1.705  0.00  0.00    +0.000 A 
ATOM      3  C   UNL     1       4.761  -0.087   2.866  0.00  0.00    +0.000 A 
ATOM      4  C   UNL     1       4.371  -1.240   3.579  0.00  0.00    +0.000 A 
ATOM      5  C   UNL     1       3.290  -2.001   3.107  0.00  0.00    +0.000 A 
ATOM      6  C   UNL     1       2.599  -1.629   1.949  0.00  0.00    +0.000 A 
ATOM      7  C   UNL     1       5.073  -1.602   4.742  0.00  0.00    +0.000 A 
ATOM      8  C   UNL     1       6.150  -0.833   5.211  0.00  0.00    +0.000 A 
ATOM      9  C   UNL     1       6.535   0.301   4.488  0.00  0.00    +0.000 A 
ATOM     10  C   UNL     1       5.846   0.672   3.331  0.00  0.00    +0.000 A 
ENDROOT
BRANCH   1  12
ATOM     11  C   UNL     1       1.290  -0.754  -0.408  0.00  0.00    +0.000 C 
ATOM     12  O   UNL     1       2.393  -0.016   0.102  0.00  0.00    +0.000 OA
ENDBRANCH   1  12
BRANCH   8  13
ATOM     13  C   UNL     1       6.895  -1.240   6.451  0.00  0.00    +0.000 C 
ATOM     14 CL   UNL     1       8.211  -2.360   6.049  0.00  0.00    +0.000 Cl
ENDBRANCH   8  13
TORSDOF 2
