REMARK  Name = *****
REMARK  0 active torsions:
REMARK  status: ('A' for Active; 'I' for Inactive)
REMARK                            x       y       z     vdW  Elec       q    Type
REMARK                         _______ _______ _______ _____ _____    ______ ____
ROOT
ATOM      1  C   UNL     1       1.061  -1.433  -0.003  0.00  0.00    +0.000 A 
ATOM      2  C   UNL     1       2.215  -0.647  -0.003  0.00  0.00    +0.000 A 
ATOM      3  C   UNL     1       2.142   0.754  -0.003  0.00  0.00    +0.000 A 
ATOM      4  C   UNL     1       0.898   1.386  -0.003  0.00  0.00    +0.000 A 
ATOM      5  C   UNL     1      -0.247   0.603  -0.002  0.00  0.00    +0.000 A 
ATOM      6  C   UNL     1      -0.164  -0.789  -0.002  0.00  0.00    +0.000 A 
ATOM      7  S   UNL     1      -1.785  -1.506  -0.001  0.00  0.00    +0.000 S 
ATOM      8  C   UNL     1      -2.542   0.092  -0.001  0.00  0.00    +0.000 A 
ATOM      9  S   UNL     1      -4.166   0.412   0.001  0.00  0.00    +0.000 S 
ATOM     10  N   UNL     1      -1.569   1.066  -0.001  0.00  0.00    +0.000 N 
ATOM     11 CL   UNL     1       0.807   3.103  -0.002  0.00  0.00    +0.000 Cl
ATOM     12 CL   UNL     1       3.758  -1.411  -0.004  0.00  0.00    +0.000 Cl
ATOM     13  H   UNL     1      -1.788   2.026  -0.001  0.00  0.00    +0.000 HD
ENDROOT
TORSDOF 0
