REMARK  Name = *****
REMARK  4 active torsions:
REMARK  status: ('A' for Active; 'I' for Inactive)
REMARK    1  A    between atoms: C_1  and  C_2
REMARK    2  A    between atoms: C_9  and  C_11
REMARK    3  A    between atoms: C_11  and  C_12
REMARK    4  A    between atoms: C_12  and  C_13
REMARK                            x       y       z     vdW  Elec       q    Type
REMARK                         _______ _______ _______ _____ _____    ______ ____
ROOT
ATOM      1  C   UNL     1       3.422  -0.541  -0.104  0.00  0.00    +0.000 C 
ATOM      2  C   UNL     1       1.974  -0.160   0.004  0.00  0.00    +0.000 A 
ATOM      3  C   UNL     1       0.975  -1.137  -0.148  0.00  0.00    +0.000 A 
ATOM      4  C   UNL     1      -0.382  -0.767  -0.076  0.00  0.00    +0.000 A 
ATOM      5  C   UNL     1      -0.703   0.573   0.131  0.00  0.00    +0.000 A 
ATOM      6  C   UNL     1       0.270   1.568   0.270  0.00  0.00    +0.000 A 
ATOM      7  C   UNL     1       1.611   1.177   0.198  0.00  0.00    +0.000 A 
ATOM      8  N   UNL     1      -2.076   0.663   0.154  0.00  0.00    +0.000 N 
ATOM      9  C   UNL     1      -2.641  -0.579  -0.016  0.00  0.00    +0.000 A 
ATOM     10  C   UNL     1      -1.608  -1.481  -0.173  0.00  0.00    +0.000 A 
ATOM     11  H   UNL     1      -2.581   1.498   0.276  0.00  0.00    +0.000 HD
ENDROOT
BRANCH   9  12
ATOM     12  C   UNL     1      -4.120  -0.776  -0.015  0.00  0.00    +0.000 C 
BRANCH  12  13
ATOM     13  C   UNL     1      -4.639  -1.348   1.308  0.00  0.00    +0.000 C 
BRANCH  13  14
ATOM     14  C   UNL     1      -4.364  -0.492   2.542  0.00  0.00    +0.000 C 
ATOM     15 CL   UNL     1      -5.099   1.125   2.417  0.00  0.00    +0.000 Cl
ENDBRANCH  13  14
ENDBRANCH  12  13
ENDBRANCH   9  12
TORSDOF 3
