REMARK  Name = *****
REMARK  4 active torsions:
REMARK  status: ('A' for Active; 'I' for Inactive)
REMARK    1  A    between atoms: C_1  and  C_2
REMARK    2  A    between atoms: C_8  and  C_14
REMARK    3  A    between atoms: C_9  and  O_12
REMARK    4  A    between atoms: O_12  and  C_13
REMARK                            x       y       z     vdW  Elec       q    Type
REMARK                         _______ _______ _______ _____ _____    ______ ____
ROOT
ATOM      1  C   UNL     1       3.867   0.326   0.058  0.00  0.00    +0.000 C 
ATOM      2  C   UNL     1       2.395   0.043   0.010  0.00  0.00    +0.000 A 
ATOM      3  C   UNL     1       1.467   1.090   0.018  0.00  0.00    +0.000 A 
ATOM      4  C   UNL     1       0.082   0.842   0.006  0.00  0.00    +0.000 A 
ATOM      5  C   UNL     1      -0.406  -0.486  -0.002  0.00  0.00    +0.000 A 
ATOM      6  C   UNL     1       0.551  -1.526   0.006  0.00  0.00    +0.000 A 
ATOM      7  C   UNL     1       1.925  -1.268   0.017  0.00  0.00    +0.000 A 
ATOM      8  C   UNL     1      -1.817  -0.706  -0.015  0.00  0.00    +0.000 A 
ATOM      9  C   UNL     1      -2.706   0.392  -0.017  0.00  0.00    +0.000 A 
ATOM     10  C   UNL     1      -2.197   1.690  -0.007  0.00  0.00    +0.000 A 
ATOM     11  C   UNL     1      -0.820   1.911   0.004  0.00  0.00    +0.000 A 
ATOM     12  C   UNL     1      -2.358  -2.119  -0.024  0.00  0.00    +0.000 C 
ENDROOT
BRANCH   9  13
ATOM     13  O   UNL     1      -4.044   0.092  -0.027  0.00  0.00    +0.000 OA
ATOM     14  C   UNL     1      -4.966   1.174  -0.033  0.00  0.00    +0.000 C 
ENDBRANCH   9  13
TORSDOF 1
