REMARK  Name = *****
REMARK  0 active torsions:
REMARK  status: ('A' for Active; 'I' for Inactive)
REMARK                            x       y       z     vdW  Elec       q    Type
REMARK                         _______ _______ _______ _____ _____    ______ ____
ROOT
ATOM      1  C   UNL     1       0.884   1.384   0.003  0.00  0.00    +0.000 A 
ATOM      2  C   UNL     1       2.118   0.733   0.005  0.00  0.00    +0.000 A 
ATOM      3  C   UNL     1       2.199  -0.667   0.006  0.00  0.00    +0.000 A 
ATOM      4  C   UNL     1       1.032  -1.437   0.003  0.00  0.00    +0.000 A 
ATOM      5  C   UNL     1      -0.198  -0.795   0.001  0.00  0.00    +0.000 A 
ATOM      6  C   UNL     1      -0.256   0.600   0.001  0.00  0.00    +0.000 A 
ATOM      7  N   UNL     1      -1.557   1.099  -0.000  0.00  0.00    +0.000 N 
ATOM      8  C   UNL     1      -2.559   0.157  -0.001  0.00  0.00    +0.000 A 
ATOM      9  O   UNL     1      -3.756   0.387  -0.001  0.00  0.00    +0.000 OA
ATOM     10  S   UNL     1      -1.847  -1.461  -0.001  0.00  0.00    +0.000 S 
ATOM     11 CL   UNL     1       1.165  -3.153   0.003  0.00  0.00    +0.000 Cl
ATOM     12 CL   UNL     1       3.565   1.664   0.009  0.00  0.00    +0.000 Cl
ATOM     13  H   UNL     1      -1.747   2.065  -0.001  0.00  0.00    +0.000 HD
ENDROOT
TORSDOF 0
