REMARK  Name = *****
REMARK  3 active torsions:
REMARK  status: ('A' for Active; 'I' for Inactive)
REMARK    1  A    between atoms: C_1  and  O_2
REMARK    2  A    between atoms: O_2  and  C_3
REMARK    3  A    between atoms: C_3  and  C_5
REMARK                            x       y       z     vdW  Elec       q    Type
REMARK                         _______ _______ _______ _____ _____    ______ ____
ROOT
ATOM      1  C   UNL     1       4.683   0.638  -0.951  0.00  0.00    +0.000 A 
ATOM      2  N   UNL     1       5.432  -0.398  -0.614  0.00  0.00    +0.000 NA
ATOM      3  C   UNL     1       6.731   0.010  -0.772  0.00  0.00    +0.000 A 
ATOM      4  C   UNL     1       7.922  -0.695  -0.554  0.00  0.00    +0.000 A 
ATOM      5  C   UNL     1       9.141  -0.044  -0.792  0.00  0.00    +0.000 A 
ATOM      6  C   UNL     1       9.170   1.285  -1.241  0.00  0.00    +0.000 A 
ATOM      7  C   UNL     1       7.984   2.001  -1.464  0.00  0.00    +0.000 A 
ATOM      8  C   UNL     1       6.787   1.325  -1.217  0.00  0.00    +0.000 A 
ATOM      9  N   UNL     1       5.473   1.701  -1.323  0.00  0.00    +0.000 N 
ATOM     10 CL   UNL     1      10.656   2.120  -1.546  0.00  0.00    +0.000 Cl
ATOM     11 CL   UNL     1      10.589  -0.950  -0.510  0.00  0.00    +0.000 Cl
ATOM     12  H   UNL     1       5.149   2.583  -1.617  0.00  0.00    +0.000 HD
ENDROOT
BRANCH   1  13
ATOM     13  C   UNL     1       3.237   0.695  -0.947  0.00  0.00    +0.000 C 
ATOM     14  O   UNL     1       2.587   1.682  -1.273  0.00  0.00    +0.000 OA
BRANCH  13  16
ATOM     15  C   UNL     1       1.281  -0.513  -0.499  0.00  0.00    +0.000 C 
ATOM     16  O   UNL     1       2.706  -0.489  -0.532  0.00  0.00    +0.000 OA
ENDBRANCH  13  16
ENDBRANCH   1  13
TORSDOF 2
