REMARK  Name = *****
REMARK  3 active torsions:
REMARK  status: ('A' for Active; 'I' for Inactive)
REMARK    1  A    between atoms: C_1  and  C_2
REMARK    2  A    between atoms: C_3  and  O_14
REMARK    3  A    between atoms: O_14  and  C_15
REMARK                            x       y       z     vdW  Elec       q    Type
REMARK                         _______ _______ _______ _____ _____    ______ ____
ROOT
ATOM      1  C   UNL     1       0.936  -0.065  -0.095  0.00  0.00    +0.000 C 
ATOM      2  C   UNL     1       2.439  -0.037   0.074  0.00  0.00    +0.000 A 
ATOM      3  C   UNL     1       3.118   1.200   0.074  0.00  0.00    +0.000 A 
ATOM      4  C   UNL     1       4.502   1.221   0.208  0.00  0.00    +0.000 A 
ATOM      5  C   UNL     1       5.208   0.025   0.323  0.00  0.00    +0.000 A 
ATOM      6  C   UNL     1       4.546  -1.223   0.297  0.00  0.00    +0.000 A 
ATOM      7  C   UNL     1       3.141  -1.251   0.164  0.00  0.00    +0.000 A 
ATOM      8  N   UNL     1       2.467  -2.417   0.120  0.00  0.00    +0.000 NA
ATOM      9  C   UNL     1       3.148  -3.573   0.214  0.00  0.00    +0.000 A 
ATOM     10  C   UNL     1       4.508  -3.663   0.352  0.00  0.00    +0.000 A 
ATOM     11  C   UNL     1       5.210  -2.469   0.393  0.00  0.00    +0.000 A 
ATOM     12 CL   UNL     1       6.932  -2.583   0.563  0.00  0.00    +0.000 Cl
ATOM     13 CL   UNL     1       2.173  -4.981   0.148  0.00  0.00    +0.000 Cl
ENDROOT
BRANCH   3  14
ATOM     14  O   UNL     1       2.338   2.317  -0.066  0.00  0.00    +0.000 OA
ATOM     15  C   UNL     1       2.986   3.583  -0.068  0.00  0.00    +0.000 C 
ENDBRANCH   3  14
TORSDOF 1
