REMARK  Name = *****
REMARK  2 active torsions:
REMARK  status: ('A' for Active; 'I' for Inactive)
REMARK    1  A    between atoms: C_1  and  O_2
REMARK    2  A    between atoms: O_2  and  C_3
REMARK                            x       y       z     vdW  Elec       q    Type
REMARK                         _______ _______ _______ _____ _____    ______ ____
ROOT
ATOM      1  C   UNL     1       3.069   0.018   1.282  0.00  0.00    +0.000 A 
ATOM      2  C   UNL     1       4.147   0.884   1.555  0.00  0.00    +0.000 A 
ATOM      3  C   UNL     1       4.946   0.760   2.708  0.00  0.00    +0.000 A 
ATOM      4  C   UNL     1       4.645  -0.281   3.613  0.00  0.00    +0.000 A 
ATOM      5  C   UNL     1       3.565  -1.151   3.330  0.00  0.00    +0.000 A 
ATOM      6  C   UNL     1       2.789  -1.004   2.180  0.00  0.00    +0.000 A 
ATOM      7  C   UNL     1       5.458  -0.389   4.767  0.00  0.00    +0.000 A 
ATOM      8  C   UNL     1       6.504   0.490   4.999  0.00  0.00    +0.000 A 
ATOM      9  C   UNL     1       6.711   1.463   4.058  0.00  0.00    +0.000 A 
ATOM     10  N   UNL     1       5.971   1.611   2.946  0.00  0.00    +0.000 NA
ATOM     11 CL   UNL     1       7.973   2.609   4.234  0.00  0.00    +0.000 Cl
ATOM     12 CL   UNL     1       5.199  -1.620   5.960  0.00  0.00    +0.000 Cl
ATOM     13 CL   UNL     1       4.504   2.166   0.423  0.00  0.00    +0.000 Cl
ENDROOT
BRANCH   1  15
ATOM     14  C   UNL     1       1.214  -0.553  -0.119  0.00  0.00    +0.000 C 
ATOM     15  O   UNL     1       2.366   0.242   0.127  0.00  0.00    +0.000 OA
ENDBRANCH   1  15
TORSDOF 1
