REMARK  Name = *****
REMARK  2 active torsions:
REMARK  status: ('A' for Active; 'I' for Inactive)
REMARK    1  A    between atoms: C_1  and  O_2
REMARK    2  A    between atoms: O_2  and  C_3
REMARK                            x       y       z     vdW  Elec       q    Type
REMARK                         _______ _______ _______ _____ _____    ______ ____
ROOT
ATOM      1  C   UNL     1       3.260  -0.656   0.930  0.00  0.00    +0.000 A 
ATOM      2  C   UNL     1       2.873  -1.962   1.231  0.00  0.00    +0.000 A 
ATOM      3  C   UNL     1       3.622  -2.735   2.132  0.00  0.00    +0.000 A 
ATOM      4  C   UNL     1       4.774  -2.217   2.742  0.00  0.00    +0.000 A 
ATOM      5  C   UNL     1       5.160  -0.909   2.439  0.00  0.00    +0.000 A 
ATOM      6  C   UNL     1       4.412  -0.134   1.535  0.00  0.00    +0.000 A 
ATOM      7  N   UNL     1       4.808   1.212   1.335  0.00  0.00    +0.000 N 
ATOM      8  S   UNL     1       6.253   1.655   2.044  0.00  0.00    +0.000 S 
ATOM      9  O   UNL     1       7.340   1.614   1.017  0.00  0.00    +0.000 OA
ATOM     10  S   UNL     1       6.613  -0.066   3.036  0.00  0.00    +0.000 S 
ATOM     11 CL   UNL     1       5.704  -3.173   3.849  0.00  0.00    +0.000 Cl
ATOM     12 CL   UNL     1       3.057  -4.343   2.442  0.00  0.00    +0.000 Cl
ATOM     13  H   UNL     1       4.265   1.846   0.811  0.00  0.00    +0.000 HD
ENDROOT
BRANCH   1  15
ATOM     14  C   UNL     1       1.426  -0.296  -0.554  0.00  0.00    +0.000 C 
ATOM     15  O   UNL     1       2.611   0.189   0.068  0.00  0.00    +0.000 OA
ENDBRANCH   1  15
TORSDOF 1
