REMARK  Name = *****
REMARK  3 active torsions:
REMARK  status: ('A' for Active; 'I' for Inactive)
REMARK    1  A    between atoms: C_1  and  C_2
REMARK    2  A    between atoms: C_3  and  C_13
REMARK    3  A    between atoms: C_4  and  C_12
REMARK                            x       y       z     vdW  Elec       q    Type
REMARK                         _______ _______ _______ _____ _____    ______ ____
ROOT
ATOM      1  C   UNL     1       0.856   0.090  -0.077  0.00  0.00    +0.000 C 
ATOM      2  C   UNL     1       2.381   0.080  -0.062  0.00  0.00    +0.000 C 
ATOM      3  C   UNL     1       2.998   1.238  -0.841  0.00  0.00    +0.000 C 
ATOM      4  C   UNL     1       3.781   0.817  -1.857  0.00  0.00    +0.000 C 
ATOM      5  C   UNL     1       3.767  -0.646  -1.852  0.00  0.00    +0.000 A 
ATOM      6  C   UNL     1       2.952  -1.097  -0.805  0.00  0.00    +0.000 A 
ATOM      7  C   UNL     1       2.772  -2.452  -0.562  0.00  0.00    +0.000 A 
ATOM      8  C   UNL     1       3.422  -3.359  -1.399  0.00  0.00    +0.000 A 
ATOM      9  C   UNL     1       4.236  -2.917  -2.453  0.00  0.00    +0.000 A 
ATOM     10  C   UNL     1       4.413  -1.549  -2.683  0.00  0.00    +0.000 A 
ATOM     11 CL   UNL     1       3.224  -5.049  -1.134  0.00  0.00    +0.000 Cl
ATOM     12  C   UNL     1       4.566   1.594  -2.852  0.00  0.00    +0.000 C 
ATOM     13  C   UNL     1       2.727   2.640  -0.411  0.00  0.00    +0.000 C 
ENDROOT
TORSDOF 0
