REMARK  Name = *****
REMARK  3 active torsions:
REMARK  status: ('A' for Active; 'I' for Inactive)
REMARK    1  A    between atoms: C_1  and  C_2
REMARK    2  A    between atoms: C_6  and  O_12
REMARK    3  A    between atoms: O_12  and  C_13
REMARK                            x       y       z     vdW  Elec       q    Type
REMARK                         _______ _______ _______ _____ _____    ______ ____
ROOT
ATOM      1  C   UNL     1       1.808  -2.305  -0.004  0.00  0.00    +0.000 C 
ATOM      2  C   UNL     1       1.360  -0.866   0.013  0.00  0.00    +0.000 A 
ATOM      3  C   UNL     1      -0.016  -0.511  -0.009  0.00  0.00    +0.000 A 
ATOM      4  C   UNL     1      -1.065  -1.456  -0.047  0.00  0.00    +0.000 A 
ATOM      5  C   UNL     1      -2.410  -1.067  -0.067  0.00  0.00    +0.000 A 
ATOM      6  C   UNL     1      -2.745   0.282  -0.048  0.00  0.00    +0.000 A 
ATOM      7  C   UNL     1      -1.725   1.234  -0.011  0.00  0.00    +0.000 A 
ATOM      8  C   UNL     1      -0.370   0.860   0.009  0.00  0.00    +0.000 A 
ATOM      9  C   UNL     1       0.633   1.839   0.046  0.00  0.00    +0.000 A 
ATOM     10  C   UNL     1       1.979   1.482   0.067  0.00  0.00    +0.000 A 
ATOM     11  C   UNL     1       2.340   0.139   0.050  0.00  0.00    +0.000 A 
ENDROOT
BRANCH   6  12
ATOM     12  O   UNL     1      -4.011   0.799  -0.063  0.00  0.00    +0.000 OA
ATOM     13  C   UNL     1      -5.086  -0.133  -0.088  0.00  0.00    +0.000 C 
ENDBRANCH   6  12
TORSDOF 1
