REMARK  Name = *****
REMARK  0 active torsions:
REMARK  status: ('A' for Active; 'I' for Inactive)
REMARK                            x       y       z     vdW  Elec       q    Type
REMARK                         _______ _______ _______ _____ _____    ______ ____
ROOT
ATOM      1  C   UNL     1      -2.302   0.688   0.260  0.00  0.00    +0.000 C 
ATOM      2  C   UNL     1      -2.297  -0.764  -0.240  0.00  0.00    +0.000 C 
ATOM      3  C   UNL     1      -1.012  -1.517   0.129  0.00  0.00    +0.000 C 
ATOM      4  C   UNL     1       0.196  -0.716  -0.328  0.00  0.00    +0.000 C 
ATOM      5  C   UNL     1       1.568  -1.243   0.065  0.00  0.00    +0.000 C 
ATOM      6  C   UNL     1       2.479  -0.007  -0.026  0.00  0.00    +0.000 C 
ATOM      7  C   UNL     1       1.551   1.216  -0.110  0.00  0.00    +0.000 C 
ATOM      8  C   UNL     1       0.193   0.672   0.307  0.00  0.00    +0.000 C 
ATOM      9  C   UNL     1      -1.034   1.457  -0.131  0.00  0.00    +0.000 C 
ENDROOT
TORSDOF 0
