REMARK  Name = *****
REMARK  0 active torsions:
REMARK  status: ('A' for Active; 'I' for Inactive)
REMARK                            x       y       z     vdW  Elec       q    Type
REMARK                         _______ _______ _______ _____ _____    ______ ____
ROOT
ATOM      1  C   UNL     1       0.916  -1.413  -0.024  0.00  0.00    +0.000 A 
ATOM      2  C   UNL     1       2.114  -0.690  -0.068  0.00  0.00    +0.000 A 
ATOM      3  C   UNL     1       2.118   0.727  -0.072  0.00  0.00    +0.000 A 
ATOM      4  C   UNL     1       0.917   1.451  -0.031  0.00  0.00    +0.000 A 
ATOM      5  C   UNL     1      -0.250   0.716   0.012  0.00  0.00    +0.000 A 
ATOM      6  C   UNL     1      -0.245  -0.679   0.015  0.00  0.00    +0.000 A 
ATOM      7  N   UNL     1      -1.564  -1.116   0.062  0.00  0.00    +0.000 N 
ATOM      8  C   UNL     1      -2.411   0.001   0.088  0.00  0.00    +0.000 A 
ATOM      9  O   UNL     1      -3.627  -0.012   0.129  0.00  0.00    +0.000 OA
ATOM     10  N   UNL     1      -1.583   1.130   0.057  0.00  0.00    +0.000 N 
ATOM     11 CL   UNL     1       0.849   3.172  -0.033  0.00  0.00    +0.000 Cl
ATOM     12 CL   UNL     1       3.658   1.512  -0.129  0.00  0.00    +0.000 Cl
ATOM     13  H   UNL     1      -1.855  -2.056   0.074  0.00  0.00    +0.000 HD
ATOM     14  H   UNL     1      -1.891   2.065   0.065  0.00  0.00    +0.000 HD
ENDROOT
TORSDOF 0
