REMARK  Name = *****
REMARK  4 active torsions:
REMARK  status: ('A' for Active; 'I' for Inactive)
REMARK    1  A    between atoms: C_1  and  C_2
REMARK    2  A    between atoms: C_5  and  O_13
REMARK    3  A    between atoms: C_6  and  C_12
REMARK    4  A    between atoms: O_13  and  C_14
REMARK                            x       y       z     vdW  Elec       q    Type
REMARK                         _______ _______ _______ _____ _____    ______ ____
ROOT
ATOM      1  C   UNL     1      -2.053  -2.208   0.066  0.00  0.00    +0.000 C 
ATOM      2  C   UNL     1      -1.575  -0.779   0.056  0.00  0.00    +0.000 A 
ATOM      3  C   UNL     1      -0.200  -0.451  -0.093  0.00  0.00    +0.000 A 
ATOM      4  C   UNL     1       0.819  -1.417  -0.233  0.00  0.00    +0.000 A 
ATOM      5  C   UNL     1       2.160  -1.047  -0.366  0.00  0.00    +0.000 A 
ATOM      6  C   UNL     1       2.532   0.296  -0.421  0.00  0.00    +0.000 A 
ATOM      7  C   UNL     1       1.535   1.267  -0.268  0.00  0.00    +0.000 A 
ATOM      8  C   UNL     1       0.183   0.914  -0.104  0.00  0.00    +0.000 A 
ATOM      9  C   UNL     1      -0.793   1.911   0.041  0.00  0.00    +0.000 A 
ATOM     10  C   UNL     1      -2.137   1.580   0.192  0.00  0.00    +0.000 A 
ATOM     11  C   UNL     1      -2.525   0.245   0.198  0.00  0.00    +0.000 A 
ATOM     12  C   UNL     1       3.967   0.703  -0.589  0.00  0.00    +0.000 C 
ENDROOT
BRANCH   5  13
ATOM     13  O   UNL     1       3.114  -2.020  -0.516  0.00  0.00    +0.000 OA
ATOM     14  C   UNL     1       3.425  -2.607   0.748  0.00  0.00    +0.000 C 
ENDBRANCH   5  13
TORSDOF 1
