REMARK  Name = *****
REMARK  3 active torsions:
REMARK  status: ('A' for Active; 'I' for Inactive)
REMARK    1  A    between atoms: C_1  and  C_2
REMARK    2  A    between atoms: C_7  and  O_10
REMARK    3  A    between atoms: O_10  and  C_11
REMARK                            x       y       z     vdW  Elec       q    Type
REMARK                         _______ _______ _______ _____ _____    ______ ____
ROOT
ATOM      1  C   UNL     1       0.825   0.111   0.080  0.00  0.00    +0.000 C 
ATOM      2  C   UNL     1       2.325   0.110   0.054  0.00  0.00    +0.000 A 
ATOM      3  C   UNL     1       3.047  -1.087   0.008  0.00  0.00    +0.000 A 
ATOM      4  C   UNL     1       4.452  -1.095  -0.035  0.00  0.00    +0.000 A 
ATOM      5  C   UNL     1       5.168   0.125  -0.033  0.00  0.00    +0.000 A 
ATOM      6  C   UNL     1       6.582   0.060  -0.082  0.00  0.00    +0.000 A 
ATOM      7  C   UNL     1       7.269  -1.157  -0.136  0.00  0.00    +0.000 A 
ATOM      8  C   UNL     1       6.548  -2.344  -0.134  0.00  0.00    +0.000 A 
ATOM      9  C   UNL     1       5.151  -2.312  -0.083  0.00  0.00    +0.000 A 
ATOM     10  C   UNL     1       4.423   1.329   0.014  0.00  0.00    +0.000 A 
ATOM     11  C   UNL     1       3.024   1.318   0.055  0.00  0.00    +0.000 A 
ATOM     12 CL   UNL     1       5.191   2.884   0.020  0.00  0.00    +0.000 Cl
ENDROOT
BRANCH   7  13
ATOM     13  O   UNL     1       8.631  -1.043  -0.184  0.00  0.00    +0.000 OA
ATOM     14  C   UNL     1       9.375  -2.249  -0.306  0.00  0.00    +0.000 C 
ENDBRANCH   7  13
TORSDOF 1
