REMARK  Name = *****
REMARK  2 active torsions:
REMARK  status: ('A' for Active; 'I' for Inactive)
REMARK    1  A    between atoms: C_1  and  O_2
REMARK    2  A    between atoms: O_2  and  C_3
REMARK                            x       y       z     vdW  Elec       q    Type
REMARK                         _______ _______ _______ _____ _____    ______ ____
ROOT
ATOM      1  C   UNL     1       3.255   1.258   0.328  0.00  0.00    +0.000 A 
ATOM      2  N   UNL     1       4.338   1.614  -0.294  0.00  0.00    +0.000 NA
ATOM      3  C   UNL     1       5.031   2.732   0.201  0.00  0.00    +0.000 A 
ATOM      4  C   UNL     1       6.198   3.133  -0.451  0.00  0.00    +0.000 A 
ATOM      5  C   UNL     1       6.923   4.239   0.006  0.00  0.00    +0.000 A 
ATOM      6  C   UNL     1       6.479   4.952   1.127  0.00  0.00    +0.000 A 
ATOM      7  C   UNL     1       5.311   4.560   1.789  0.00  0.00    +0.000 A 
ATOM      8  C   UNL     1       4.596   3.457   1.325  0.00  0.00    +0.000 A 
ATOM      9  N   UNL     1       3.428   3.062   1.985  0.00  0.00    +0.000 N 
ATOM     10  C   UNL     1       2.690   1.980   1.564  0.00  0.00    +0.000 A 
ATOM     11  O   UNL     1       1.667   1.620   2.127  0.00  0.00    +0.000 OA
ATOM     12 CL   UNL     1       7.326   6.326   1.744  0.00  0.00    +0.000 Cl
ATOM     13 CL   UNL     1       8.356   4.671  -0.856  0.00  0.00    +0.000 Cl
ATOM     14  H   UNL     1       3.126   3.572   2.771  0.00  0.00    +0.000 HD
ENDROOT
BRANCH   1  16
ATOM     15  C   UNL     1       2.933  -0.532  -1.171  0.00  0.00    +0.000 C 
ATOM     16  O   UNL     1       2.490   0.210  -0.032  0.00  0.00    +0.000 OA
ENDBRANCH   1  16
TORSDOF 1
