REMARK  Name = *****
REMARK  2 active torsions:
REMARK  status: ('A' for Active; 'I' for Inactive)
REMARK    1  A    between atoms: C_1  and  S_2
REMARK    2  A    between atoms: S_2  and  P_3
REMARK                            x       y       z     vdW  Elec       q    Type
REMARK                         _______ _______ _______ _____ _____    ______ ____
ROOT
ATOM      1  P   UNL     1       3.936  -1.162  -1.295  0.00  0.00    +0.000 P 
ATOM      2  S   UNL     1       5.789  -0.891  -0.755  0.00  0.00    +0.000 S 
ATOM      3  O   UNL     1       3.779  -2.289  -2.490  0.00  0.00    +0.000 OA
ATOM      4  C   UNL     1       3.217  -1.692  -3.584  0.00  0.00    +0.000 A 
ATOM      5  C   UNL     1       2.914  -2.328  -4.767  0.00  0.00    +0.000 A 
ATOM      6  C   UNL     1       2.344  -1.559  -5.786  0.00  0.00    +0.000 A 
ATOM      7  C   UNL     1       2.095  -0.186  -5.599  0.00  0.00    +0.000 A 
ATOM      8  C   UNL     1       2.412   0.440  -4.390  0.00  0.00    +0.000 A 
ATOM      9  C   UNL     1       2.971  -0.336  -3.399  0.00  0.00    +0.000 A 
ATOM     10  O   UNL     1       3.343   0.112  -2.162  0.00  0.00    +0.000 OA
ENDROOT
BRANCH   1  12
ATOM     11  C   UNL     1       2.487  -0.166   1.229  0.00  0.00    +0.000 C 
ATOM     12  S   UNL     1       2.476  -1.614   0.158  0.00  0.00    +0.000 S 
ENDBRANCH   1  12
TORSDOF 1
