REMARK  Name = *****
REMARK  0 active torsions:
REMARK  status: ('A' for Active; 'I' for Inactive)
REMARK                            x       y       z     vdW  Elec       q    Type
REMARK                         _______ _______ _______ _____ _____    ______ ____
ROOT
ATOM      1  C   UNL     1       1.225  -1.386   0.001  0.00  0.00    +0.000 A 
ATOM      2  C   UNL     1       2.423  -0.674   0.000  0.00  0.00    +0.000 A 
ATOM      3  C   UNL     1       2.421   0.720   0.002  0.00  0.00    +0.000 A 
ATOM      4  C   UNL     1       1.205   1.404   0.003  0.00  0.00    +0.000 A 
ATOM      5  C   UNL     1      -0.001   0.694   0.003  0.00  0.00    +0.000 A 
ATOM      6  C   UNL     1       0.012  -0.688   0.002  0.00  0.00    +0.000 A 
ATOM      7  C   UNL     1      -1.273  -1.400   0.003  0.00  0.00    +0.000 A 
ATOM      8  O   UNL     1      -1.279  -2.626   0.003  0.00  0.00    +0.000 OA
ATOM      9  O   UNL     1      -2.417  -0.685   0.002  0.00  0.00    +0.000 OA
ATOM     10  C   UNL     1      -2.426   0.672   0.002  0.00  0.00    +0.000 A 
ATOM     11  O   UNL     1      -3.476   1.306   0.002  0.00  0.00    +0.000 OA
ATOM     12  N   UNL     1      -1.232   1.331   0.004  0.00  0.00    +0.000 N 
ATOM     13 CL   UNL     1       1.220   3.129   0.006  0.00  0.00    +0.000 Cl
ATOM     14 CL   UNL     1       3.919  -1.522  -0.002  0.00  0.00    +0.000 Cl
ATOM     15  H   UNL     1      -1.245   2.316   0.005  0.00  0.00    +0.000 HD
ENDROOT
TORSDOF 0
