REMARK  Name = *****
REMARK  2 active torsions:
REMARK  status: ('A' for Active; 'I' for Inactive)
REMARK    1  A    between atoms: C_1  and  O_2
REMARK    2  A    between atoms: O_2  and  C_3
REMARK                            x       y       z     vdW  Elec       q    Type
REMARK                         _______ _______ _______ _____ _____    ______ ____
ROOT
ATOM      1  C   UNL     1       3.041   0.060  -1.231  0.00  0.00    +0.000 A 
ATOM      2  C   UNL     1       2.669   0.961  -2.232  0.00  0.00    +0.000 A 
ATOM      3  C   UNL     1       3.436   1.123  -3.417  0.00  0.00    +0.000 A 
ATOM      4  C   UNL     1       4.606   0.335  -3.559  0.00  0.00    +0.000 A 
ATOM      5  C   UNL     1       5.402   0.454  -4.710  0.00  0.00    +0.000 A 
ATOM      6  C   UNL     1       5.063   1.340  -5.729  0.00  0.00    +0.000 A 
ATOM      7  C   UNL     1       3.921   2.122  -5.611  0.00  0.00    +0.000 A 
ATOM      8  C   UNL     1       3.115   2.019  -4.471  0.00  0.00    +0.000 A 
ATOM      9 BR   UNL     1       1.576   3.143  -4.424  0.00  0.00    +0.000 Br
ATOM     10  C   UNL     1       4.970  -0.565  -2.548  0.00  0.00    +0.000 A 
ATOM     11  C   UNL     1       4.194  -0.699  -1.397  0.00  0.00    +0.000 A 
ENDROOT
BRANCH   1  13
ATOM     12  C   UNL     1       1.176   0.572   0.156  0.00  0.00    +0.000 C 
ATOM     13  O   UNL     1       2.371  -0.167  -0.061  0.00  0.00    +0.000 OA
ENDBRANCH   1  13
TORSDOF 1
