REMARK  Name = *****
REMARK  0 active torsions:
REMARK  status: ('A' for Active; 'I' for Inactive)
REMARK                            x       y       z     vdW  Elec       q    Type
REMARK                         _______ _______ _______ _____ _____    ______ ____
ROOT
ATOM      1  C   UNL     1      -2.330   0.768   0.211  0.00  0.00    +0.000 C 
ATOM      2  C   UNL     1      -2.341  -0.712  -0.183  0.00  0.00    +0.000 C 
ATOM      3  C   UNL     1      -1.064  -1.443   0.246  0.00  0.00    +0.000 C 
ATOM      4  C   UNL     1       0.161  -0.700  -0.280  0.00  0.00    +0.000 C 
ATOM      5  C   UNL     1       0.174   0.735   0.235  0.00  0.00    +0.000 C 
ATOM      6  C   UNL     1      -1.059   1.488  -0.255  0.00  0.00    +0.000 C 
ATOM      7  S   UNL     1       1.738   1.459  -0.335  0.00  0.00    +0.000 S 
ATOM      8  C   UNL     1       2.702   0.008  -0.057  0.00  0.00    +0.000 C 
ATOM      9  S   UNL     1       4.367   0.003  -0.076  0.00  0.00    +0.000 S 
ATOM     10  S   UNL     1       1.735  -1.436   0.245  0.00  0.00    +0.000 S 
ENDROOT
TORSDOF 0
