REMARK  Name = *****
REMARK  1 active torsions:
REMARK  status: ('A' for Active; 'I' for Inactive)
REMARK    1  A    between atoms: C_1  and  C_2
REMARK                            x       y       z     vdW  Elec       q    Type
REMARK                         _______ _______ _______ _____ _____    ______ ____
ROOT
ATOM      1  C   UNL     1       1.048   0.148   0.137  0.00  0.00    +0.000 C 
ATOM      2  C   UNL     1       2.573   0.059   0.070  0.00  0.00    +0.000 C 
ATOM      3  C   UNL     1       3.168   0.245  -1.322  0.00  0.00    +0.000 C 
ATOM      4  S   UNL     1       2.565  -0.934  -2.552  0.00  0.00    +0.000 S 
ATOM      5  C   UNL     1       2.723  -2.459  -1.737  0.00  0.00    +0.000 A 
ATOM      6  C   UNL     1       2.942  -2.671  -0.424  0.00  0.00    +0.000 A 
ATOM      7  S   UNL     1       3.168  -1.482   0.822  0.00  0.00    +0.000 S 
ATOM      8  S   UNL     1       3.039  -4.344   0.091  0.00  0.00    +0.000 S 
ATOM      9  C   UNL     1       2.758  -5.072  -1.475  0.00  0.00    +0.000 A 
ATOM     10  S   UNL     1       2.701  -6.717  -1.731  0.00  0.00    +0.000 S 
ATOM     11  S   UNL     1       2.541  -3.885  -2.741  0.00  0.00    +0.000 S 
ENDROOT
TORSDOF 0
