REMARK  Name = *****
REMARK  1 active torsions:
REMARK  status: ('A' for Active; 'I' for Inactive)
REMARK    1  A    between atoms: C_1  and  C_2
REMARK                            x       y       z     vdW  Elec       q    Type
REMARK                         _______ _______ _______ _____ _____    ______ ____
ROOT
ATOM      1  C   UNL     1       1.122   0.012  -0.046  0.00  0.00    +0.000 C 
ATOM      2  C   UNL     1       2.605   0.196  -0.025  0.00  0.00    +0.000 C 
ATOM      3  C   UNL     1       3.286   1.289   0.358  0.00  0.00    +0.000 C 
ATOM      4  C   UNL     1       4.728   1.390   0.346  0.00  0.00    +0.000 A 
ATOM      5  C   UNL     1       5.758   0.534  -0.005  0.00  0.00    +0.000 A 
ATOM      6  C   UNL     1       7.073   0.994   0.119  0.00  0.00    +0.000 A 
ATOM      7  C   UNL     1       7.337   2.292   0.587  0.00  0.00    +0.000 A 
ATOM      8  C   UNL     1       6.290   3.145   0.937  0.00  0.00    +0.000 A 
ATOM      9  C   UNL     1       4.998   2.668   0.807  0.00  0.00    +0.000 A 
ATOM     10  O   UNL     1       3.877   3.424   1.125  0.00  0.00    +0.000 OA
ATOM     11  C   UNL     1       2.786   2.602   0.862  0.00  0.00    +0.000 C 
ATOM     12  S   UNL     1       1.280   3.234   1.152  0.00  0.00    +0.000 S 
ENDROOT
TORSDOF 0
