REMARK  Name = *****
REMARK  1 active torsions:
REMARK  status: ('A' for Active; 'I' for Inactive)
REMARK    1  A    between atoms: C_7  and  N_11
REMARK                            x       y       z     vdW  Elec       q    Type
REMARK                         _______ _______ _______ _____ _____    ______ ____
ROOT
ATOM      1  C   UNL     1       0.627   1.548   0.045  0.00  0.00    +0.000 A 
ATOM      2  C   UNL     1       1.935   1.051   0.025  0.00  0.00    +0.000 A 
ATOM      3  C   UNL     1       2.187  -0.337  -0.006  0.00  0.00    +0.000 A 
ATOM      4  C   UNL     1       1.127  -1.253  -0.018  0.00  0.00    +0.000 A 
ATOM      5  C   UNL     1      -0.160  -0.736   0.003  0.00  0.00    +0.000 A 
ATOM      6  C   UNL     1      -0.416   0.637   0.038  0.00  0.00    +0.000 A 
ATOM      7  C   UNL     1      -1.904   0.874   0.046  0.00  0.00    +0.000 C 
ATOM      8  C   UNL     1      -2.459  -0.566   0.031  0.00  0.00    +0.000 C 
ATOM      9  O   UNL     1      -3.627  -0.922   0.032  0.00  0.00    +0.000 OA
ATOM     10  N   UNL     1      -1.367  -1.431  -0.003  0.00  0.00    +0.000 N 
ATOM     11 CL   UNL     1       1.360  -2.961  -0.060  0.00  0.00    +0.000 Cl
ATOM     12 CL   UNL     1       3.839  -0.845  -0.032  0.00  0.00    +0.000 Cl
ATOM     13  H   UNL     1      -1.439  -2.413  -0.028  0.00  0.00    +0.000 HD
ENDROOT
BRANCH   7  14
ATOM     14  N   UNL     1      -2.355   1.546   1.295  0.00  0.00    +0.000 NA
ATOM     15  O   UNL     1      -2.832   2.665   1.073  0.00  0.00    +0.000 OA
ENDBRANCH   7  14
TORSDOF 1
