REMARK  Name = *****
REMARK  1 active torsions:
REMARK  status: ('A' for Active; 'I' for Inactive)
REMARK    1  A    between atoms: C_12  and  N_13
REMARK                            x       y       z     vdW  Elec       q    Type
REMARK                         _______ _______ _______ _____ _____    ______ ____
ROOT
ATOM      1  C   UNL     1      -3.104   0.260  -0.035  0.00  0.00    +0.000 A 
ATOM      2  C   UNL     1      -2.763  -1.077   0.128  0.00  0.00    +0.000 A 
ATOM      3  C   UNL     1      -1.419  -1.459   0.176  0.00  0.00    +0.000 A 
ATOM      4  C   UNL     1      -0.388  -0.510   0.050  0.00  0.00    +0.000 A 
ATOM      5  C   UNL     1      -0.748   0.847  -0.080  0.00  0.00    +0.000 A 
ATOM      6  C   UNL     1      -2.100   1.220  -0.133  0.00  0.00    +0.000 A 
ATOM      7  C   UNL     1       0.273   1.895  -0.140  0.00  0.00    +0.000 C 
ATOM      8  C   UNL     1       1.568   1.626   0.049  0.00  0.00    +0.000 C 
ATOM      9  C   UNL     1       2.061   0.250   0.283  0.00  0.00    +0.000 C 
ATOM     10  O   UNL     1       3.228   0.094   0.621  0.00  0.00    +0.000 OA
ATOM     11  C   UNL     1       1.064  -0.860   0.078  0.00  0.00    +0.000 C 
ATOM     12  C   UNL     1       1.495  -2.120  -0.149  0.00  0.00    +0.000 C 
ENDROOT
BRANCH  12  13
ATOM     13  N   UNL     1       2.769  -2.511  -0.197  0.00  0.00    +0.000 NA
ATOM     14  O   UNL     1       2.916  -3.712  -0.451  0.00  0.00    +0.000 OA
ENDBRANCH  12  13
TORSDOF 1
