REMARK  Name = *****
REMARK  0 active torsions:
REMARK  status: ('A' for Active; 'I' for Inactive)
REMARK                            x       y       z     vdW  Elec       q    Type
REMARK                         _______ _______ _______ _____ _____    ______ ____
ROOT
ATOM      1  C   UNL     1       1.156  -1.381   0.021  0.00  0.00    +0.000 A 
ATOM      2  C   UNL     1       2.369  -0.694  -0.010  0.00  0.00    +0.000 A 
ATOM      3  C   UNL     1       2.399   0.699  -0.024  0.00  0.00    +0.000 A 
ATOM      4  C   UNL     1       1.198   1.408  -0.009  0.00  0.00    +0.000 A 
ATOM      5  C   UNL     1      -0.024   0.725   0.022  0.00  0.00    +0.000 A 
ATOM      6  C   UNL     1      -0.051  -0.679   0.037  0.00  0.00    +0.000 A 
ATOM      7  N   UNL     1      -1.247  -1.417   0.073  0.00  0.00    +0.000 NA
ATOM      8  C   UNL     1      -2.379  -0.773   0.101  0.00  0.00    +0.000 A 
ATOM      9  C   UNL     1      -2.445   0.770   0.048  0.00  0.00    +0.000 A 
ATOM     10  O   UNL     1      -3.532   1.329   0.002  0.00  0.00    +0.000 OA
ATOM     11  N   UNL     1      -1.242   1.420   0.031  0.00  0.00    +0.000 N 
ATOM     12  N   UNL     1      -3.562  -1.467   0.155  0.00  0.00    +0.000 N 
ATOM     13 CL   UNL     1       1.256   3.134  -0.030  0.00  0.00    +0.000 Cl
ATOM     14 CL   UNL     1       3.847  -1.574  -0.030  0.00  0.00    +0.000 Cl
ATOM     15  H   UNL     1      -1.230   2.405   0.025  0.00  0.00    +0.000 HD
ATOM     16  H   UNL     1      -3.554  -2.451   0.189  0.00  0.00    +0.000 HD
ATOM     17  H   UNL     1      -4.418  -0.982   0.159  0.00  0.00    +0.000 HD
ENDROOT
TORSDOF 0
