REMARK  Name = *****
REMARK  1 active torsions:
REMARK  status: ('A' for Active; 'I' for Inactive)
REMARK    1  A    between atoms: C_9  and  C_11
REMARK                            x       y       z     vdW  Elec       q    Type
REMARK                         _______ _______ _______ _____ _____    ______ ____
ROOT
ATOM      1  C   UNL     1       2.111   0.727  -0.004  0.00  0.00    +0.000 A 
ATOM      2  C   UNL     1       0.897   1.428  -0.002  0.00  0.00    +0.000 A 
ATOM      3  C   UNL     1      -0.278   0.669   0.001  0.00  0.00    +0.000 A 
ATOM      4  C   UNL     1      -0.289  -0.723   0.002  0.00  0.00    +0.000 A 
ATOM      5  C   UNL     1       0.947  -1.389  -0.000  0.00  0.00    +0.000 A 
ATOM      6  C   UNL     1       2.143  -0.669  -0.003  0.00  0.00    +0.000 A 
ATOM      7 CL   UNL     1       0.905  -3.094   0.001  0.00  0.00    +0.000 Cl
ATOM      8  N   UNL     1      -1.588  -1.187   0.006  0.00  0.00    +0.000 NA
ATOM      9  C   UNL     1      -2.373  -0.121   0.007  0.00  0.00    +0.000 A 
ATOM     10  N   UNL     1      -1.602   1.025   0.004  0.00  0.00    +0.000 N 
ATOM     11  H   UNL     1      -1.947   1.947   0.003  0.00  0.00    +0.000 HD
ENDROOT
BRANCH   9  12
ATOM     12  C   UNL     1      -3.879  -0.061   0.014  0.00  0.00    +0.000 C 
ATOM     13 CL   UNL     1      -4.622  -1.681   0.001  0.00  0.00    +0.000 Cl
ATOM     14 CL   UNL     1      -4.429   0.818   1.480  0.00  0.00    +0.000 Cl
ATOM     15 CL   UNL     1      -4.444   0.848  -1.427  0.00  0.00    +0.000 Cl
ENDBRANCH   9  12
TORSDOF 1
