REMARK  Name = *****
REMARK  3 active torsions:
REMARK  status: ('A' for Active; 'I' for Inactive)
REMARK    1  A    between atoms: C_1  and  O_2
REMARK    2  A    between atoms: O_2  and  C_3
REMARK    3  A    between atoms: C_9  and  C_12
REMARK                            x       y       z     vdW  Elec       q    Type
REMARK                         _______ _______ _______ _____ _____    ______ ____
ROOT
ATOM      1  C   UNL     1       2.899   1.250  -0.215  0.00  0.00    +0.000 A 
ATOM      2  C   UNL     1       4.074   1.635  -0.832  0.00  0.00    +0.000 A 
ATOM      3  C   UNL     1       4.549   2.937  -0.442  0.00  0.00    +0.000 A 
ATOM      4  C   UNL     1       5.698   3.670  -0.849  0.00  0.00    +0.000 A 
ATOM      5  C   UNL     1       5.966   4.939  -0.331  0.00  0.00    +0.000 A 
ATOM      6  C   UNL     1       5.107   5.506   0.597  0.00  0.00    +0.000 A 
ATOM      7  C   UNL     1       3.967   4.811   1.019  0.00  0.00    +0.000 A 
ATOM      8  C   UNL     1       3.693   3.526   0.495  0.00  0.00    +0.000 A 
ATOM      9  S   UNL     1       2.370   2.481   0.851  0.00  0.00    +0.000 S 
ATOM     10 CL   UNL     1       4.915   0.658  -1.974  0.00  0.00    +0.000 Cl
ENDROOT
BRANCH   1  12
ATOM     11  C   UNL     1       1.046  -0.161   0.275  0.00  0.00    +0.000 C 
ATOM     12  O   UNL     1       2.264   0.082  -0.417  0.00  0.00    +0.000 OA
ENDBRANCH   1  12
BRANCH   7  13
ATOM     13  C   UNL     1       3.075   5.388   1.976  0.00  0.00    +0.000 C 
ATOM     14  N   UNL     1       2.362   5.873   2.754  0.00  0.00    +0.000 NA
ENDBRANCH   7  13
TORSDOF 2
