REMARK  Name = *****
REMARK  1 active torsions:
REMARK  status: ('A' for Active; 'I' for Inactive)
REMARK    1  A    between atoms: C_12  and  C_14
REMARK                            x       y       z     vdW  Elec       q    Type
REMARK                         _______ _______ _______ _____ _____    ______ ____
ROOT
ATOM      1  C   UNL     1      -0.271   0.685  -0.001  0.00  0.00    +0.000 A 
ATOM      2  C   UNL     1      -0.277  -0.706  -0.000  0.00  0.00    +0.000 A 
ATOM      3  C   UNL     1       0.949  -1.395  -0.002  0.00  0.00    +0.000 A 
ATOM      4  C   UNL     1       2.143  -0.666  -0.004  0.00  0.00    +0.000 A 
ATOM      5  C   UNL     1       2.118   0.729  -0.004  0.00  0.00    +0.000 A 
ATOM      6  C   UNL     1       0.908   1.432  -0.002  0.00  0.00    +0.000 A 
ATOM      7 CL   UNL     1       0.857   3.147  -0.003  0.00  0.00    +0.000 Cl
ATOM      8  F   UNL     1       3.273   1.414  -0.005  0.00  0.00    +0.000 F 
ATOM      9 CL   UNL     1       3.655  -1.498  -0.005  0.00  0.00    +0.000 Cl
ATOM     10  F   UNL     1       0.970  -2.736  -0.002  0.00  0.00    +0.000 F 
ATOM     11  N   UNL     1      -1.571  -1.175   0.003  0.00  0.00    +0.000 NA
ATOM     12  C   UNL     1      -2.356  -0.109   0.005  0.00  0.00    +0.000 A 
ATOM     13  N   UNL     1      -1.598   1.039   0.002  0.00  0.00    +0.000 N 
ATOM     14  H   UNL     1      -1.948   1.959   0.001  0.00  0.00    +0.000 HD
ENDROOT
BRANCH  12  15
ATOM     15  C   UNL     1      -3.848  -0.028   0.011  0.00  0.00    +0.000 C 
ATOM     16  F   UNL     1      -4.460  -1.236  -0.005  0.00  0.00    +0.000 F 
ATOM     17  F   UNL     1      -4.295   0.637   1.109  0.00  0.00    +0.000 F 
ATOM     18  F   UNL     1      -4.302   0.668  -1.065  0.00  0.00    +0.000 F 
ENDBRANCH  12  15
TORSDOF 1
