REMARK  Name = *****
REMARK  1 active torsions:
REMARK  status: ('A' for Active; 'I' for Inactive)
REMARK    1  A    between atoms: C_1  and  C_2
REMARK                            x       y       z     vdW  Elec       q    Type
REMARK                         _______ _______ _______ _____ _____    ______ ____
ROOT
ATOM      1  C   UNL     1       0.945  -0.001   0.081  0.00  0.00    +0.000 C 
ATOM      2  C   UNL     1       2.446   0.012   0.085  0.00  0.00    +0.000 A 
ATOM      3  C   UNL     1       3.175  -1.185   0.089  0.00  0.00    +0.000 A 
ATOM      4  C   UNL     1       4.567  -1.145   0.094  0.00  0.00    +0.000 A 
ATOM      5  C   UNL     1       5.241   0.076   0.095  0.00  0.00    +0.000 A 
ATOM      6  C   UNL     1       4.529   1.271   0.091  0.00  0.00    +0.000 A 
ATOM      7  C   UNL     1       3.133   1.237   0.086  0.00  0.00    +0.000 A 
ATOM      8  S   UNL     1       7.013  -0.005   0.102  0.00  0.00    +0.000 S 
ATOM      9  C   UNL     1       7.139  -1.766   0.105  0.00  0.00    +0.000 A 
ATOM     10  S   UNL     1       8.601  -2.571   0.112  0.00  0.00    +0.000 S 
ATOM     11  S   UNL     1       5.583  -2.601   0.099  0.00  0.00    +0.000 S 
ENDROOT
TORSDOF 0
