REMARK  Name = *****
REMARK  1 active torsions:
REMARK  status: ('A' for Active; 'I' for Inactive)
REMARK    1  A    between atoms: C_8  and  O_13
REMARK                            x       y       z     vdW  Elec       q    Type
REMARK                         _______ _______ _______ _____ _____    ______ ____
ROOT
ATOM      1  C   UNL     1       2.474  -0.659  -0.001  0.00  0.00    +0.000 A 
ATOM      2  C   UNL     1       2.438   0.732   0.000  0.00  0.00    +0.000 A 
ATOM      3  C   UNL     1       1.210   1.383   0.001  0.00  0.00    +0.000 A 
ATOM      4  C   UNL     1       0.014   0.642   0.001  0.00  0.00    +0.000 A 
ATOM      5  C   UNL     1       0.025  -0.774   0.000  0.00  0.00    +0.000 A 
ATOM      6  C   UNL     1       1.286  -1.407  -0.001  0.00  0.00    +0.000 A 
ATOM      7 CL   UNL     1       1.490  -3.126  -0.002  0.00  0.00    +0.000 Cl
ATOM      8  C   UNL     1      -1.301  -1.446   0.000  0.00  0.00    +0.000 A 
ATOM      9  C   UNL     1      -2.438  -0.741   0.001  0.00  0.00    +0.000 A 
ATOM     10  C   UNL     1      -2.435   0.731   0.001  0.00  0.00    +0.000 A 
ATOM     11  O   UNL     1      -3.481   1.368   0.001  0.00  0.00    +0.000 OA
ATOM     12  N   UNL     1      -1.213   1.331   0.001  0.00  0.00    +0.000 N 
ATOM     13 CL   UNL     1       1.197   3.111   0.004  0.00  0.00    +0.000 Cl
ATOM     14  H   UNL     1      -1.186   2.315   0.002  0.00  0.00    +0.000 HD
ENDROOT
BRANCH   8  15
ATOM     15  O   UNL     1      -1.396  -2.823   0.001  0.00  0.00    +0.000 OA
ATOM     16  H   UNL     1      -0.618  -3.346   0.000  0.00  0.00    +0.000 HD
ENDBRANCH   8  15
TORSDOF 1
