REMARK  Name = *****
REMARK  4 active torsions:
REMARK  status: ('A' for Active; 'I' for Inactive)
REMARK    1  A    between atoms: C_1  and  C_2
REMARK    2  A    between atoms: C_4  and  C_15
REMARK    3  A    between atoms: C_5  and  C_14
REMARK    4  A    between atoms: C_12  and  C_13
REMARK                            x       y       z     vdW  Elec       q    Type
REMARK                         _______ _______ _______ _____ _____    ______ ____
ROOT
ATOM      1  C   UNL     1       3.413  -0.214   0.851  0.00  0.00    +0.000 C 
ATOM      2  C   UNL     1       3.751  -0.658  -0.561  0.00  0.00    +0.000 C 
ATOM      3  C   UNL     1       4.674  -1.625  -0.699  0.00  0.00    +0.000 C 
ATOM      4  C   UNL     1       5.216  -2.291  -1.876  0.00  0.00    +0.000 C 
ATOM      5  C   UNL     1       4.578  -2.463  -3.058  0.00  0.00    +0.000 C 
ATOM      6  C   UNL     1       3.304  -1.814  -3.384  0.00  0.00    +0.000 C 
ATOM      7  C   UNL     1       2.559  -2.126  -4.448  0.00  0.00    +0.000 C 
ATOM      8  C   UNL     1       1.591  -1.053  -4.627  0.00  0.00    +0.000 C 
ATOM      9  O   UNL     1       0.760  -1.028  -5.520  0.00  0.00    +0.000 OA
ATOM     10  O   UNL     1       1.797  -0.073  -3.707  0.00  0.00    +0.000 OA
ATOM     11  C   UNL     1       2.758  -0.594  -2.839  0.00  0.00    +0.000 C 
ATOM     12  C   UNL     1       2.987  -0.022  -1.642  0.00  0.00    +0.000 C 
ATOM     13  C   UNL     1       2.349   1.316  -1.326  0.00  0.00    +0.000 C 
ATOM     14  C   UNL     1       5.172  -3.310  -4.172  0.00  0.00    +0.000 C 
ATOM     15  C   UNL     1       6.596  -2.861  -1.607  0.00  0.00    +0.000 C 
ENDROOT
TORSDOF 0
