REMARK  Name = *****
REMARK  0 active torsions:
REMARK  status: ('A' for Active; 'I' for Inactive)
REMARK                            x       y       z     vdW  Elec       q    Type
REMARK                         _______ _______ _______ _____ _____    ______ ____
ROOT
ATOM      1  C   UNL     1       1.962   1.078  -0.000  0.00  0.00    +0.000 A 
ATOM      2  C   UNL     1       2.197  -0.311   0.000  0.00  0.00    +0.000 A 
ATOM      3  C   UNL     1       1.128  -1.210   0.000  0.00  0.00    +0.000 A 
ATOM      4  C   UNL     1      -0.158  -0.698  -0.000  0.00  0.00    +0.000 A 
ATOM      5  C   UNL     1      -0.386   0.680  -0.001  0.00  0.00    +0.000 A 
ATOM      6  C   UNL     1       0.657   1.586  -0.001  0.00  0.00    +0.000 A 
ATOM      7 BR   UNL     1       0.403   3.454  -0.003  0.00  0.00    +0.000 Br
ATOM      8  C   UNL     1      -1.846   0.863  -0.001  0.00  0.00    +0.000 C 
ATOM      9  O   UNL     1      -2.474   1.895  -0.002  0.00  0.00    +0.000 OA
ATOM     10  C   UNL     1      -2.442  -0.569  -0.000  0.00  0.00    +0.000 C 
ATOM     11  O   UNL     1      -3.617  -0.861   0.000  0.00  0.00    +0.000 OA
ATOM     12  N   UNL     1      -1.356  -1.414   0.000  0.00  0.00    +0.000 N 
ATOM     13 BR   UNL     1       1.456  -3.068   0.000  0.00  0.00    +0.000 Br
ATOM     14  H   UNL     1      -1.416  -2.396   0.000  0.00  0.00    +0.000 HD
ENDROOT
TORSDOF 0
