REMARK  Name = *****
REMARK  3 active torsions:
REMARK  status: ('A' for Active; 'I' for Inactive)
REMARK    1  A    between atoms: C_1  and  O_2
REMARK    2  A    between atoms: O_2  and  C_3
REMARK    3  A    between atoms: C_9  and  C_13
REMARK                            x       y       z     vdW  Elec       q    Type
REMARK                         _______ _______ _______ _____ _____    ______ ____
ROOT
ATOM      1  C   UNL     1       3.005   0.816  -0.860  0.00  0.00    +0.000 A 
ATOM      2  C   UNL     1       4.207   0.375  -1.416  0.00  0.00    +0.000 A 
ATOM      3  C   UNL     1       5.039   1.236  -2.152  0.00  0.00    +0.000 A 
ATOM      4  C   UNL     1       4.667   2.589  -2.343  0.00  0.00    +0.000 A 
ATOM      5  C   UNL     1       3.438   3.009  -1.777  0.00  0.00    +0.000 A 
ATOM      6  C   UNL     1       2.621   2.137  -1.046  0.00  0.00    +0.000 A 
ATOM      7  C   UNL     1       5.541   3.418  -3.100  0.00  0.00    +0.000 A 
ATOM      8  C   UNL     1       6.734   2.911  -3.640  0.00  0.00    +0.000 A 
ATOM      9  C   UNL     1       7.080   1.580  -3.439  0.00  0.00    +0.000 A 
ATOM     10  C   UNL     1       6.238   0.752  -2.701  0.00  0.00    +0.000 A 
ENDROOT
BRANCH   7  11
ATOM     11  C   UNL     1       5.235   4.856  -3.346  0.00  0.00    +0.000 C 
ATOM     12  O   UNL     1       4.922   5.554  -2.385  0.00  0.00    +0.000 OA
ATOM     13 CL   UNL     1       5.357   5.454  -4.989  0.00  0.00    +0.000 Cl
ENDBRANCH   7  11
BRANCH   1  15
ATOM     14  C   UNL     1       1.100   0.276   0.455  0.00  0.00    +0.000 C 
ATOM     15  O   UNL     1       2.308  -0.138  -0.171  0.00  0.00    +0.000 OA
ENDBRANCH   1  15
TORSDOF 2
