REMARK  Name = *****
REMARK  3 active torsions:
REMARK  status: ('A' for Active; 'I' for Inactive)
REMARK    1  A    between atoms: C_1  and  C_2
REMARK    2  A    between atoms: C_3  and  C_15
REMARK    3  A    between atoms: C_9  and  C_11
REMARK                            x       y       z     vdW  Elec       q    Type
REMARK                         _______ _______ _______ _____ _____    ______ ____
ROOT
ATOM      1  C   UNL     1       1.097  -0.104  -0.003  0.00  0.00    +0.000 C 
ATOM      2  C   UNL     1       2.602  -0.052  -0.056  0.00  0.00    +0.000 A 
ATOM      3  C   UNL     1       3.293   1.177   0.117  0.00  0.00    +0.000 A 
ATOM      4  C   UNL     1       4.703   1.144   0.053  0.00  0.00    +0.000 A 
ATOM      5  C   UNL     1       5.364  -0.055  -0.172  0.00  0.00    +0.000 A 
ATOM      6  C   UNL     1       4.710  -1.272  -0.345  0.00  0.00    +0.000 A 
ATOM      7  C   UNL     1       3.314  -1.244  -0.282  0.00  0.00    +0.000 A 
ATOM      8  N   UNL     1       6.692   0.278  -0.173  0.00  0.00    +0.000 N 
ATOM      9  C   UNL     1       6.812   1.635   0.048  0.00  0.00    +0.000 A 
ATOM     10  N   UNL     1       5.609   2.172   0.185  0.00  0.00    +0.000 NA
ATOM     11  C   UNL     1       2.549   2.460   0.359  0.00  0.00    +0.000 C 
ATOM     12  H   UNL     1       7.440  -0.348  -0.310  0.00  0.00    +0.000 HD
ENDROOT
BRANCH   9  13
ATOM     13  C   UNL     1       8.155   2.313   0.099  0.00  0.00    +0.000 C 
ATOM     14 CL   UNL     1       9.174   1.531   1.355  0.00  0.00    +0.000 Cl
ATOM     15 CL   UNL     1       8.977   2.123  -1.485  0.00  0.00    +0.000 Cl
ATOM     16 CL   UNL     1       8.022   4.052   0.474  0.00  0.00    +0.000 Cl
ENDBRANCH   9  13
TORSDOF 1
