REMARK  Name = *****
REMARK  2 active torsions:
REMARK  status: ('A' for Active; 'I' for Inactive)
REMARK    1  A    between atoms: C_1  and  C_2
REMARK    2  A    between atoms: C_2  and  N_3
REMARK                            x       y       z     vdW  Elec       q    Type
REMARK                         _______ _______ _______ _____ _____    ______ ____
ROOT
ATOM      1  N   UNL     1       2.915   1.173  -0.961  0.00  0.00    +0.000 N 
ATOM      2  C   UNL     1       3.572   1.031  -2.191  0.00  0.00    +0.000 A 
ATOM      3  C   UNL     1       4.024  -0.092  -2.847  0.00  0.00    +0.000 A 
ATOM      4  C   UNL     1       4.653   0.101  -4.085  0.00  0.00    +0.000 A 
ATOM      5  C   UNL     1       4.811   1.401  -4.629  0.00  0.00    +0.000 A 
ATOM      6  C   UNL     1       4.341   2.529  -3.945  0.00  0.00    +0.000 A 
ATOM      7  C   UNL     1       3.729   2.307  -2.733  0.00  0.00    +0.000 A 
ATOM      8  N   UNL     1       3.165   3.226  -1.856  0.00  0.00    +0.000 N 
ATOM      9  C   UNL     1       2.637   2.540  -0.750  0.00  0.00    +0.000 A 
ATOM     10  O   UNL     1       2.052   3.050   0.190  0.00  0.00    +0.000 OA
ATOM     11 CL   UNL     1       5.583   1.666  -6.154  0.00  0.00    +0.000 Cl
ATOM     12 CL   UNL     1       5.222  -1.310  -4.910  0.00  0.00    +0.000 Cl
ATOM     13  H   UNL     1       3.140   4.201  -1.989  0.00  0.00    +0.000 HD
ENDROOT
BRANCH   1  15
ATOM     14  C   UNL     1       1.129  -0.443  -0.487  0.00  0.00    +0.000 C 
ATOM     15  C   UNL     1       2.492   0.103  -0.094  0.00  0.00    +0.000 C 
ENDBRANCH   1  15
TORSDOF 1
