REMARK  Name = *****
REMARK  0 active torsions:
REMARK  status: ('A' for Active; 'I' for Inactive)
REMARK                            x       y       z     vdW  Elec       q    Type
REMARK                         _______ _______ _______ _____ _____    ______ ____
ROOT
ATOM      1  C   UNL     1      -1.271   1.394  -0.032  0.00  0.00    +0.000 A 
ATOM      2  C   UNL     1      -2.400   0.681  -0.071  0.00  0.00    +0.000 A 
ATOM      3  C   UNL     1      -2.405  -0.792  -0.107  0.00  0.00    +0.000 A 
ATOM      4  O   UNL     1      -3.459  -1.414  -0.144  0.00  0.00    +0.000 OA
ATOM      5  O   UNL     1      -1.167  -1.418  -0.095  0.00  0.00    +0.000 OA
ATOM      6  C   UNL     1       0.040  -0.686  -0.055  0.00  0.00    +0.000 A 
ATOM      7  C   UNL     1       1.252  -1.383  -0.047  0.00  0.00    +0.000 A 
ATOM      8  C   UNL     1       2.453  -0.676  -0.008  0.00  0.00    +0.000 A 
ATOM      9  C   UNL     1       2.429   0.717   0.023  0.00  0.00    +0.000 A 
ATOM     10  C   UNL     1       1.218   1.414   0.016  0.00  0.00    +0.000 A 
ATOM     11  C   UNL     1       0.012   0.709  -0.023  0.00  0.00    +0.000 A 
ATOM     12 CL   UNL     1       3.910   1.593   0.071  0.00  0.00    +0.000 Cl
ATOM     13 CL   UNL     1       1.302  -3.105  -0.085  0.00  0.00    +0.000 Cl
ENDROOT
TORSDOF 0
