REMARK  Name = *****
REMARK  0 active torsions:
REMARK  status: ('A' for Active; 'I' for Inactive)
REMARK                            x       y       z     vdW  Elec       q    Type
REMARK                         _______ _______ _______ _____ _____    ______ ____
ROOT
ATOM      1  C   UNL     1       2.107  -0.679   0.000  0.00  0.00    +0.000 A 
ATOM      2  C   UNL     1       0.902  -1.388  -0.001  0.00  0.00    +0.000 A 
ATOM      3  C   UNL     1      -0.275  -0.668  -0.002  0.00  0.00    +0.000 A 
ATOM      4  C   UNL     1      -0.260   0.712  -0.002  0.00  0.00    +0.000 A 
ATOM      5  C   UNL     1       0.907   1.451  -0.001  0.00  0.00    +0.000 A 
ATOM      6  C   UNL     1       2.111   0.733   0.000  0.00  0.00    +0.000 A 
ATOM      7 CL   UNL     1       3.648   1.523   0.003  0.00  0.00    +0.000 Cl
ATOM      8 CL   UNL     1       0.830   3.171  -0.002  0.00  0.00    +0.000 Cl
ATOM      9  N   UNL     1      -1.574   1.102  -0.002  0.00  0.00    +0.000 N 
ATOM     10  C   UNL     1      -2.355  -0.027  -0.002  0.00  0.00    +0.000 A 
ATOM     11  O   UNL     1      -3.576  -0.034  -0.001  0.00  0.00    +0.000 OA
ATOM     12  O   UNL     1      -1.565  -1.182  -0.002  0.00  0.00    +0.000 OA
ATOM     13 CL   UNL     1       0.910  -3.103  -0.001  0.00  0.00    +0.000 Cl
ATOM     14  H   UNL     1      -1.901   2.030  -0.003  0.00  0.00    +0.000 HD
ENDROOT
TORSDOF 0
