REMARK  Name = *****
REMARK  0 active torsions:
REMARK  status: ('A' for Active; 'I' for Inactive)
REMARK                            x       y       z     vdW  Elec       q    Type
REMARK                         _______ _______ _______ _____ _____    ______ ____
ROOT
ATOM      1  C   UNL     1       2.135  -0.669  -0.000  0.00  0.00    +0.000 A 
ATOM      2  C   UNL     1       2.095   0.724  -0.000  0.00  0.00    +0.000 A 
ATOM      3  C   UNL     1       0.879   1.411  -0.000  0.00  0.00    +0.000 A 
ATOM      4  C   UNL     1      -0.296   0.650  -0.000  0.00  0.00    +0.000 A 
ATOM      5  C   UNL     1      -0.292  -0.751  -0.000  0.00  0.00    +0.000 A 
ATOM      6  C   UNL     1       0.952  -1.417  -0.000  0.00  0.00    +0.000 A 
ATOM      7  C   UNL     1      -1.654  -1.176   0.000  0.00  0.00    +0.000 A 
ATOM      8  C   UNL     1      -2.421  -0.044   0.000  0.00  0.00    +0.000 A 
ATOM      9  N   UNL     1      -1.615   1.051  -0.000  0.00  0.00    +0.000 N 
ATOM     10 CL   UNL     1      -4.099   0.218   0.001  0.00  0.00    +0.000 Cl
ATOM     11 CL   UNL     1      -2.183  -2.792   0.001  0.00  0.00    +0.000 Cl
ATOM     12  H   UNL     1      -1.925   1.986  -0.001  0.00  0.00    +0.000 HD
ENDROOT
TORSDOF 0
