REMARK  Name = *****
REMARK  0 active torsions:
REMARK  status: ('A' for Active; 'I' for Inactive)
REMARK                            x       y       z     vdW  Elec       q    Type
REMARK                         _______ _______ _______ _____ _____    ______ ____
ROOT
ATOM      1  C   UNL     1       0.949  -1.423   0.000  0.00  0.00    +0.000 A 
ATOM      2  C   UNL     1      -0.289  -0.761   0.002  0.00  0.00    +0.000 A 
ATOM      3  C   UNL     1      -0.289   0.639   0.000  0.00  0.00    +0.000 A 
ATOM      4  C   UNL     1       0.893   1.366  -0.003  0.00  0.00    +0.000 A 
ATOM      5  N   UNL     1       2.077   0.733  -0.004  0.00  0.00    +0.000 NA
ATOM      6  C   UNL     1       2.076  -0.614  -0.003  0.00  0.00    +0.000 A 
ATOM      7 CL   UNL     1       3.642  -1.318  -0.005  0.00  0.00    +0.000 Cl
ATOM      8 CL   UNL     1       0.936   3.072  -0.005  0.00  0.00    +0.000 Cl
ATOM      9  N   UNL     1      -1.604   1.049   0.002  0.00  0.00    +0.000 N 
ATOM     10  C   UNL     1      -2.414  -0.043   0.004  0.00  0.00    +0.000 A 
ATOM     11  C   UNL     1      -1.653  -1.180   0.004  0.00  0.00    +0.000 A 
ATOM     12 CL   UNL     1      -2.186  -2.792   0.005  0.00  0.00    +0.000 Cl
ATOM     13 CL   UNL     1      -4.091   0.225   0.005  0.00  0.00    +0.000 Cl
ATOM     14  H   UNL     1      -1.909   1.985   0.003  0.00  0.00    +0.000 HD
ENDROOT
TORSDOF 0
