REMARK  Name = *****
REMARK  1 active torsions:
REMARK  status: ('A' for Active; 'I' for Inactive)
REMARK    1  A    between atoms: C_1  and  C_2
REMARK                            x       y       z     vdW  Elec       q    Type
REMARK                         _______ _______ _______ _____ _____    ______ ____
ROOT
ATOM      1  C   UNL     1       1.006  -0.293   0.030  0.00  0.00    +0.000 C 
ATOM      2  C   UNL     1       2.495  -0.071   0.032  0.00  0.00    +0.000 C 
ATOM      3  N   UNL     1       3.282  -1.100   0.033  0.00  0.00    +0.000 NA
ATOM      4  N   UNL     1       4.627  -0.978   0.035  0.00  0.00    +0.000 N 
ATOM      5  C   UNL     1       5.357   0.223   0.033  0.00  0.00    +0.000 A 
ATOM      6  C   UNL     1       4.728   1.473   0.033  0.00  0.00    +0.000 A 
ATOM      7  S   UNL     1       2.962   1.612   0.033  0.00  0.00    +0.000 S 
ATOM      8  C   UNL     1       5.487   2.653   0.032  0.00  0.00    +0.000 A 
ATOM      9  C   UNL     1       6.877   2.591   0.032  0.00  0.00    +0.000 A 
ATOM     10  C   UNL     1       7.527   1.364   0.033  0.00  0.00    +0.000 A 
ATOM     11  C   UNL     1       6.769   0.192   0.034  0.00  0.00    +0.000 A 
ATOM     12 CL   UNL     1       7.617  -1.318   0.035  0.00  0.00    +0.000 Cl
ATOM     13 CL   UNL     1       7.797   4.045   0.031  0.00  0.00    +0.000 Cl
ATOM     14  H   UNL     1       5.148  -1.813   0.038  0.00  0.00    +0.000 HD
ENDROOT
TORSDOF 0
