REMARK  Name = *****
REMARK  1 active torsions:
REMARK  status: ('A' for Active; 'I' for Inactive)
REMARK    1  A    between atoms: C_1  and  N_2
REMARK                            x       y       z     vdW  Elec       q    Type
REMARK                         _______ _______ _______ _____ _____    ______ ____
ROOT
ATOM      1  C   UNL     1       0.955   0.087   0.055  0.00  0.00    +0.000 C 
ATOM      2  N   UNL     1       2.418   0.105   0.050  0.00  0.00    +0.000 N 
ATOM      3  C   UNL     1       3.138   1.357   0.052  0.00  0.00    +0.000 A 
ATOM      4  C   UNL     1       2.511   2.612   0.063  0.00  0.00    +0.000 A 
ATOM      5  C   UNL     1       3.257   3.796   0.059  0.00  0.00    +0.000 A 
ATOM      6  C   UNL     1       4.647   3.752   0.047  0.00  0.00    +0.000 A 
ATOM      7  C   UNL     1       5.309   2.521   0.039  0.00  0.00    +0.000 A 
ATOM      8  C   UNL     1       4.546   1.327   0.043  0.00  0.00    +0.000 A 
ATOM      9  C   UNL     1       5.220   0.108   0.037  0.00  0.00    +0.000 A 
ATOM     10  C   UNL     1       6.615   0.040   0.028  0.00  0.00    +0.000 A 
ATOM     11  C   UNL     1       7.361   1.215   0.024  0.00  0.00    +0.000 A 
ATOM     12  C   UNL     1       6.712   2.450   0.030  0.00  0.00    +0.000 A 
ATOM     13  N   UNL     1       4.478  -1.070   0.043  0.00  0.00    +0.000 N 
ATOM     14  C   UNL     1       3.111  -1.114   0.051  0.00  0.00    +0.000 C 
ATOM     15  S   UNL     1       2.430  -2.653   0.064  0.00  0.00    +0.000 S 
ATOM     16  H   UNL     1       4.967  -1.924   0.040  0.00  0.00    +0.000 HD
ENDROOT
TORSDOF 0
