REMARK  Name = *****
REMARK  2 active torsions:
REMARK  status: ('A' for Active; 'I' for Inactive)
REMARK    1  A    between atoms: C_1  and  C_2
REMARK    2  A    between atoms: C_2  and  C_4
REMARK                            x       y       z     vdW  Elec       q    Type
REMARK                         _______ _______ _______ _____ _____    ______ ____
ROOT
ATOM      1  C   UNL     1       3.332   0.958  -0.768  0.00  0.00    +0.000 C 
ATOM      2  C   UNL     1       2.776   2.343  -0.582  0.00  0.00    +0.000 C 
ATOM      3  C   UNL     1       3.419   3.338   0.043  0.00  0.00    +0.000 C 
ATOM      4  C   UNL     1       4.744   3.076   0.602  0.00  0.00    +0.000 A 
ATOM      5  C   UNL     1       5.349   1.823   0.382  0.00  0.00    +0.000 A 
ATOM      6  N   UNL     1       4.749   0.856  -0.430  0.00  0.00    +0.000 N 
ATOM      7  C   UNL     1       6.639   1.602   0.878  0.00  0.00    +0.000 A 
ATOM      8  C   UNL     1       7.287   2.586   1.624  0.00  0.00    +0.000 A 
ATOM      9  C   UNL     1       6.673   3.812   1.867  0.00  0.00    +0.000 A 
ATOM     10  C   UNL     1       5.402   4.061   1.350  0.00  0.00    +0.000 A 
ATOM     11 CL   UNL     1       8.866   2.287   2.244  0.00  0.00    +0.000 Cl
ATOM     12  H   UNL     1       5.283   0.105  -0.775  0.00  0.00    +0.000 HD
ENDROOT
BRANCH   1  14
ATOM     13  C   UNL     1       2.490   0.065   1.517  0.00  0.00    +0.000 C 
ATOM     14  C   UNL     1       2.567  -0.093   0.020  0.00  0.00    +0.000 C 
ATOM     15  C   UNL     1       1.974  -1.138  -0.587  0.00  0.00    +0.000 C 
ENDBRANCH   1  14
TORSDOF 1
