REMARK  Name = *****
REMARK  0 active torsions:
REMARK  status: ('A' for Active; 'I' for Inactive)
REMARK                            x       y       z     vdW  Elec       q    Type
REMARK                         _______ _______ _______ _____ _____    ______ ____
ROOT
ATOM      1  C   UNL     1       0.925  -1.413  -0.037  0.00  0.00    +0.000 A 
ATOM      2  C   UNL     1       2.120  -0.687  -0.050  0.00  0.00    +0.000 A 
ATOM      3  C   UNL     1       2.133   0.725  -0.043  0.00  0.00    +0.000 A 
ATOM      4  C   UNL     1       0.932   1.441  -0.023  0.00  0.00    +0.000 A 
ATOM      5  C   UNL     1      -0.240   0.719  -0.011  0.00  0.00    +0.000 A 
ATOM      6  C   UNL     1      -0.236  -0.677  -0.018  0.00  0.00    +0.000 A 
ATOM      7  N   UNL     1      -1.560  -1.114  -0.003  0.00  0.00    +0.000 N 
ATOM      8  C   UNL     1      -2.395   0.009   0.013  0.00  0.00    +0.000 A 
ATOM      9  S   UNL     1      -4.042  -0.001   0.032  0.00  0.00    +0.000 S 
ATOM     10  N   UNL     1      -1.572   1.140   0.008  0.00  0.00    +0.000 N 
ATOM     11 BR   UNL     1       0.939   3.325  -0.014  0.00  0.00    +0.000 Br
ATOM     12 BR   UNL     1       3.766  -1.622  -0.078  0.00  0.00    +0.000 Br
ATOM     13  H   UNL     1      -1.857  -2.053  -0.003  0.00  0.00    +0.000 HD
ATOM     14  H   UNL     1      -1.880   2.075   0.017  0.00  0.00    +0.000 HD
ENDROOT
TORSDOF 0
