REMARK  Name = *****
REMARK  0 active torsions:
REMARK  status: ('A' for Active; 'I' for Inactive)
REMARK                            x       y       z     vdW  Elec       q    Type
REMARK                         _______ _______ _______ _____ _____    ______ ____
ROOT
ATOM      1  C   UNL     1      -1.266   1.400  -0.025  0.00  0.00    +0.000 A 
ATOM      2  C   UNL     1      -2.411   0.704  -0.037  0.00  0.00    +0.000 A 
ATOM      3  C   UNL     1      -2.411  -0.777  -0.041  0.00  0.00    +0.000 A 
ATOM      4  O   UNL     1      -3.464  -1.404  -0.053  0.00  0.00    +0.000 OA
ATOM      5  N   UNL     1      -1.190  -1.391  -0.030  0.00  0.00    +0.000 N 
ATOM      6  C   UNL     1       0.038  -0.706  -0.017  0.00  0.00    +0.000 A 
ATOM      7  C   UNL     1       1.260  -1.391  -0.008  0.00  0.00    +0.000 A 
ATOM      8  C   UNL     1       2.462  -0.677   0.003  0.00  0.00    +0.000 A 
ATOM      9  C   UNL     1       2.434   0.717   0.005  0.00  0.00    +0.000 A 
ATOM     10  C   UNL     1       1.223   1.410  -0.004  0.00  0.00    +0.000 A 
ATOM     11  C   UNL     1       0.020   0.699  -0.015  0.00  0.00    +0.000 A 
ATOM     12 BR   UNL     1       4.060   1.683   0.019  0.00  0.00    +0.000 Br
ATOM     13  I   UNL     1       1.362  -3.483  -0.009  0.00  0.00    +0.000 I 
ATOM     14  H   UNL     1      -1.169  -2.376  -0.031  0.00  0.00    +0.000 HD
ENDROOT
TORSDOF 0
