REMARK  Name = *****
REMARK  3 active torsions:
REMARK  status: ('A' for Active; 'I' for Inactive)
REMARK    1  A    between atoms: C_1  and  O_2
REMARK    2  A    between atoms: O_2  and  C_3
REMARK    3  A    between atoms: C_3  and  C_5
REMARK                            x       y       z     vdW  Elec       q    Type
REMARK                         _______ _______ _______ _____ _____    ______ ____
ROOT
ATOM      1  C   UNL     1       4.631   0.930  -0.216  0.00  0.00    +0.000 A 
ATOM      2  C   UNL     1       5.412  -0.205  -0.345  0.00  0.00    +0.000 A 
ATOM      3  C   UNL     1       6.763   0.128  -0.025  0.00  0.00    +0.000 A 
ATOM      4  C   UNL     1       6.768   1.488   0.297  0.00  0.00    +0.000 A 
ATOM      5  N   UNL     1       5.476   1.943   0.173  0.00  0.00    +0.000 N 
ATOM      6  C   UNL     1       7.931   2.175   0.668  0.00  0.00    +0.000 A 
ATOM      7  C   UNL     1       9.129   1.454   0.712  0.00  0.00    +0.000 A 
ATOM      8  C   UNL     1       9.165   0.095   0.398  0.00  0.00    +0.000 A 
ATOM      9  C   UNL     1       7.990  -0.568   0.030  0.00  0.00    +0.000 A 
ATOM     10 CL   UNL     1       7.904  -2.232  -0.378  0.00  0.00    +0.000 Cl
ATOM     11 CL   UNL     1      10.688  -0.716   0.479  0.00  0.00    +0.000 Cl
ATOM     12  H   UNL     1       5.194   2.871   0.340  0.00  0.00    +0.000 HD
ENDROOT
BRANCH   1  13
ATOM     13  C   UNL     1       3.220   1.144  -0.417  0.00  0.00    +0.000 C 
ATOM     14  O   UNL     1       2.659   2.221  -0.266  0.00  0.00    +0.000 OA
BRANCH  13  16
ATOM     15  C   UNL     1       1.210   0.107  -1.009  0.00  0.00    +0.000 C 
ATOM     16  O   UNL     1       2.615  -0.015  -0.791  0.00  0.00    +0.000 OA
ENDBRANCH  13  16
ENDBRANCH   1  13
TORSDOF 2
