REMARK  Name = *****
REMARK  0 active torsions:
REMARK  status: ('A' for Active; 'I' for Inactive)
REMARK                            x       y       z     vdW  Elec       q    Type
REMARK                         _______ _______ _______ _____ _____    ______ ____
ROOT
ATOM      1  C   UNL     1       0.918   1.400  -0.029  0.00  0.00    +0.000 A 
ATOM      2  C   UNL     1      -0.243   0.670   0.020  0.00  0.00    +0.000 A 
ATOM      3  C   UNL     1      -0.250  -0.723   0.020  0.00  0.00    +0.000 A 
ATOM      4  C   UNL     1       0.916  -1.460  -0.028  0.00  0.00    +0.000 A 
ATOM      5  C   UNL     1       2.129  -0.748  -0.079  0.00  0.00    +0.000 A 
ATOM      6  C   UNL     1       2.119   0.675  -0.079  0.00  0.00    +0.000 A 
ATOM      7 BR   UNL     1       3.721   1.705  -0.148  0.00  0.00    +0.000 Br
ATOM      8 CL   UNL     1       3.634  -1.615  -0.143  0.00  0.00    +0.000 Cl
ATOM      9 CL   UNL     1       0.824  -3.183  -0.023  0.00  0.00    +0.000 Cl
ATOM     10  N   UNL     1      -1.583  -1.135   0.075  0.00  0.00    +0.000 N 
ATOM     11  C   UNL     1      -2.410  -0.005   0.108  0.00  0.00    +0.000 A 
ATOM     12  O   UNL     1      -3.626   0.009   0.158  0.00  0.00    +0.000 OA
ATOM     13  N   UNL     1      -1.561   1.110   0.074  0.00  0.00    +0.000 N 
ATOM     14  H   UNL     1      -1.892  -2.070   0.088  0.00  0.00    +0.000 HD
ATOM     15  H   UNL     1      -1.850   2.051   0.086  0.00  0.00    +0.000 HD
ENDROOT
TORSDOF 0
