REMARK  Name = *****
REMARK  3 active torsions:
REMARK  status: ('A' for Active; 'I' for Inactive)
REMARK    1  A    between atoms: C_1  and  C_2
REMARK    2  A    between atoms: C_5  and  O_12
REMARK    3  A    between atoms: O_12  and  C_13
REMARK                            x       y       z     vdW  Elec       q    Type
REMARK                         _______ _______ _______ _____ _____    ______ ____
ROOT
ATOM      1  C   UNL     1       1.845  -2.293   0.019  0.00  0.00    +0.000 C 
ATOM      2  C   UNL     1       1.390  -0.857   0.031  0.00  0.00    +0.000 A 
ATOM      3  C   UNL     1       0.012  -0.505  -0.010  0.00  0.00    +0.000 A 
ATOM      4  C   UNL     1      -1.038  -1.457  -0.057  0.00  0.00    +0.000 A 
ATOM      5  C   UNL     1      -2.381  -1.070  -0.088  0.00  0.00    +0.000 A 
ATOM      6  C   UNL     1      -2.698   0.284  -0.078  0.00  0.00    +0.000 A 
ATOM      7  C   UNL     1      -1.689   1.246  -0.036  0.00  0.00    +0.000 A 
ATOM      8  C   UNL     1      -0.339   0.868  -0.002  0.00  0.00    +0.000 A 
ATOM      9  C   UNL     1       0.663   1.849   0.037  0.00  0.00    +0.000 A 
ATOM     10  C   UNL     1       2.008   1.492   0.067  0.00  0.00    +0.000 A 
ATOM     11  C   UNL     1       2.369   0.150   0.063  0.00  0.00    +0.000 A 
ENDROOT
BRANCH   5  12
ATOM     12  O   UNL     1      -3.461  -1.908  -0.130  0.00  0.00    +0.000 OA
ATOM     13  C   UNL     1      -3.198  -3.305  -0.102  0.00  0.00    +0.000 C 
ENDBRANCH   5  12
TORSDOF 1
