REMARK  Name = *****
REMARK  0 active torsions:
REMARK  status: ('A' for Active; 'I' for Inactive)
REMARK                            x       y       z     vdW  Elec       q    Type
REMARK                         _______ _______ _______ _____ _____    ______ ____
ROOT
ATOM      1  C   UNL     1       1.255  -0.043  -0.057  0.00  0.00    +0.000 C 
ATOM      2  C   UNL     1       2.591  -0.013  -0.058  0.00  0.00    +0.000 C 
ATOM      3  C   UNL     1       3.479   1.146  -0.061  0.00  0.00    +0.000 A 
ATOM      4  C   UNL     1       4.781   0.628  -0.061  0.00  0.00    +0.000 A 
ATOM      5  C   UNL     1       5.899   1.435  -0.065  0.00  0.00    +0.000 A 
ATOM      6  C   UNL     1       5.682   2.814  -0.069  0.00  0.00    +0.000 A 
ATOM      7  C   UNL     1       4.381   3.351  -0.069  0.00  0.00    +0.000 A 
ATOM      8  C   UNL     1       3.261   2.511  -0.065  0.00  0.00    +0.000 A 
ATOM      9 CL   UNL     1       7.034   3.881  -0.074  0.00  0.00    +0.000 Cl
ATOM     10  N   UNL     1       4.753  -0.767  -0.057  0.00  0.00    +0.000 N 
ATOM     11  C   UNL     1       3.451  -1.247  -0.055  0.00  0.00    +0.000 C 
ATOM     12  O   UNL     1       3.085  -2.406  -0.051  0.00  0.00    +0.000 OA
ATOM     13  H   UNL     1       5.555  -1.338  -0.056  0.00  0.00    +0.000 HD
ENDROOT
TORSDOF 0
