REMARK  Name = *****
REMARK  4 active torsions:
REMARK  status: ('A' for Active; 'I' for Inactive)
REMARK    1  A    between atoms: C_1  and  C_2
REMARK    2  A    between atoms: C_4  and  C_13
REMARK    3  A    between atoms: C_6  and  C_12
REMARK    4  A    between atoms: C_7  and  C_11
REMARK                            x       y       z     vdW  Elec       q    Type
REMARK                         _______ _______ _______ _____ _____    ______ ____
ROOT
ATOM      1  C   UNL     1       1.084  -0.143  -0.045  0.00  0.00    +0.000 C 
ATOM      2  C   UNL     1       2.584  -0.089  -0.039  0.00  0.00    +0.000 A 
ATOM      3  C   UNL     1       3.257   1.134  -0.035  0.00  0.00    +0.000 A 
ATOM      4  C   UNL     1       4.669   1.222  -0.027  0.00  0.00    +0.000 A 
ATOM      5  C   UNL     1       5.418   0.011  -0.022  0.00  0.00    +0.000 A 
ATOM      6  C   UNL     1       6.821  -0.330  -0.012  0.00  0.00    +0.000 A 
ATOM      7  C   UNL     1       6.910  -1.715  -0.012  0.00  0.00    +0.000 A 
ATOM      8  N   UNL     1       5.636  -2.214  -0.021  0.00  0.00    +0.000 N 
ATOM      9  C   UNL     1       4.714  -1.196  -0.027  0.00  0.00    +0.000 A 
ATOM     10  C   UNL     1       3.317  -1.279  -0.035  0.00  0.00    +0.000 A 
ATOM     11  C   UNL     1       8.083  -2.626  -0.003  0.00  0.00    +0.000 C 
ATOM     12  C   UNL     1       7.998   0.584  -0.002  0.00  0.00    +0.000 C 
ATOM     13  C   UNL     1       5.289   2.592  -0.024  0.00  0.00    +0.000 C 
ATOM     14  H   UNL     1       5.411  -3.172  -0.024  0.00  0.00    +0.000 HD
ENDROOT
TORSDOF 0
