REMARK  Name = *****
REMARK  0 active torsions:
REMARK  status: ('A' for Active; 'I' for Inactive)
REMARK                            x       y       z     vdW  Elec       q    Type
REMARK                         _______ _______ _______ _____ _____    ______ ____
ROOT
ATOM      1  C   UNL     1       1.944   1.192   0.015  0.00  0.00    +0.000 A 
ATOM      2  C   UNL     1       2.313  -0.168   0.000  0.00  0.00    +0.000 A 
ATOM      3  C   UNL     1       1.341  -1.168  -0.013  0.00  0.00    +0.000 A 
ATOM      4  C   UNL     1       0.021  -0.764  -0.011  0.00  0.00    +0.000 A 
ATOM      5  C   UNL     1      -0.359   0.573   0.006  0.00  0.00    +0.000 A 
ATOM      6  C   UNL     1       0.596   1.572   0.018  0.00  0.00    +0.000 A 
ATOM      7  N   UNL     1      -1.744   0.771   0.009  0.00  0.00    +0.000 N 
ATOM      8  C   UNL     1      -2.520  -0.378  -0.004  0.00  0.00    +0.000 C 
ATOM      9  S   UNL     1      -4.173  -0.420   0.001  0.00  0.00    +0.000 S 
ATOM     10  S   UNL     1      -1.410  -1.748  -0.028  0.00  0.00    +0.000 S 
ATOM     11  S   UNL     1      -1.497  -2.767  -1.568  0.00  0.00    +0.000 S 
ATOM     12  S   UNL     1      -1.496  -2.821   1.475  0.00  0.00    +0.000 S 
ATOM     13  H   UNL     1      -2.143   1.671   0.021  0.00  0.00    +0.000 HD
ENDROOT
TORSDOF 0
