REMARK  Name = *****
REMARK  4 active torsions:
REMARK  status: ('A' for Active; 'I' for Inactive)
REMARK    1  A    between atoms: C_1  and  C_2
REMARK    2  A    between atoms: C_4  and  C_14
REMARK    3  A    between atoms: C_4  and  C_15
REMARK    4  A    between atoms: C_8  and  C_12
REMARK                            x       y       z     vdW  Elec       q    Type
REMARK                         _______ _______ _______ _____ _____    ______ ____
ROOT
ATOM      1  C   UNL     1       0.947  -0.294  -0.007  0.00  0.00    +0.000 C 
ATOM      2  C   UNL     1       2.445   0.015  -0.056  0.00  0.00    +0.000 C 
ATOM      3  C   UNL     1       2.772   1.466   0.375  0.00  0.00    +0.000 C 
ATOM      4  C   UNL     1       2.596   2.573  -0.712  0.00  0.00    +0.000 C 
ATOM      5  C   UNL     1       3.060   2.092  -2.076  0.00  0.00    +0.000 C 
ATOM      6  C   UNL     1       3.254   0.800  -2.330  0.00  0.00    +0.000 C 
ATOM      7  C   UNL     1       3.015  -0.279  -1.413  0.00  0.00    +0.000 C 
ATOM      8  C   UNL     1       3.368  -1.445  -1.980  0.00  0.00    +0.000 C 
ATOM      9  C   UNL     1       3.830  -1.124  -3.352  0.00  0.00    +0.000 C 
ATOM     10  O   UNL     1       4.229  -1.906  -4.193  0.00  0.00    +0.000 OA
ATOM     11  N   UNL     1       3.715   0.247  -3.476  0.00  0.00    +0.000 N 
ATOM     12  C   UNL     1       1.135   3.040  -0.815  0.00  0.00    +0.000 C 
ATOM     13  C   UNL     1       3.453   3.786  -0.296  0.00  0.00    +0.000 C 
ATOM     14  H   UNL     1       3.939   0.754  -4.290  0.00  0.00    +0.000 HD
ENDROOT
BRANCH   8  15
ATOM     15  C   UNL     1       3.299  -2.739  -1.435  0.00  0.00    +0.000 C 
ATOM     16  N   UNL     1       3.223  -3.785  -0.939  0.00  0.00    +0.000 NA
ENDBRANCH   8  15
TORSDOF 1
