REMARK  Name = *****
REMARK  4 active torsions:
REMARK  status: ('A' for Active; 'I' for Inactive)
REMARK    1  A    between atoms: C_1  and  C_2
REMARK    2  A    between atoms: C_2  and  C_3
REMARK    3  A    between atoms: C_10  and  O_13
REMARK    4  A    between atoms: O_13  and  C_14
REMARK                            x       y       z     vdW  Elec       q    Type
REMARK                         _______ _______ _______ _____ _____    ______ ____
ROOT
ATOM      1  C   UNL     1       2.914  -1.419  -0.250  0.00  0.00    +0.000 C 
ATOM      2  C   UNL     1       1.908  -2.541   0.038  0.00  0.00    +0.000 C 
ATOM      3  C   UNL     1       2.558  -3.923  -0.004  0.00  0.00    +0.000 C 
ATOM      4  C   UNL     1       3.864  -3.988   0.748  0.00  0.00    +0.000 A 
ATOM      5  C   UNL     1       4.570  -2.826   1.106  0.00  0.00    +0.000 A 
ATOM      6  C   UNL     1       4.011  -1.448   0.831  0.00  0.00    +0.000 C 
ATOM      7  C   UNL     1       5.793  -2.939   1.792  0.00  0.00    +0.000 A 
ATOM      8  C   UNL     1       6.330  -4.191   2.096  0.00  0.00    +0.000 A 
ATOM      9  C   UNL     1       5.635  -5.338   1.716  0.00  0.00    +0.000 A 
ATOM     10  C   UNL     1       4.415  -5.241   1.046  0.00  0.00    +0.000 A 
ENDROOT
BRANCH   1  12
ATOM     11  C   UNL     1       2.498  -1.359  -2.778  0.00  0.00    +0.000 C 
ATOM     12  C   UNL     1       3.530  -1.463  -1.664  0.00  0.00    +0.000 C 
ENDBRANCH   1  12
BRANCH   8  13
ATOM     13  O   UNL     1       7.507  -4.427   2.752  0.00  0.00    +0.000 OA
ATOM     14  C   UNL     1       8.242  -3.289   3.182  0.00  0.00    +0.000 C 
ENDBRANCH   8  13
TORSDOF 2
