REMARK  Name = *****
REMARK  3 active torsions:
REMARK  status: ('A' for Active; 'I' for Inactive)
REMARK    1  A    between atoms: C_1  and  O_2
REMARK    2  A    between atoms: O_2  and  C_3
REMARK    3  A    between atoms: C_9  and  C_12
REMARK                            x       y       z     vdW  Elec       q    Type
REMARK                         _______ _______ _______ _____ _____    ______ ____
ROOT
ATOM      1  C   UNL     1       3.107   1.096   0.721  0.00  0.00    +0.000 A 
ATOM      2  C   UNL     1       4.252   1.680   0.167  0.00  0.00    +0.000 A 
ATOM      3  C   UNL     1       4.909   2.668   0.883  0.00  0.00    +0.000 A 
ATOM      4  C   UNL     1       4.450   3.087   2.135  0.00  0.00    +0.000 A 
ATOM      5  C   UNL     1       3.322   2.514   2.696  0.00  0.00    +0.000 A 
ATOM      6  C   UNL     1       2.648   1.514   1.982  0.00  0.00    +0.000 A 
ATOM      7  C   UNL     1       5.332   4.141   2.660  0.00  0.00    +0.000 C 
ATOM      8  C   UNL     1       6.293   4.314   1.730  0.00  0.00    +0.000 C 
ATOM      9  C   UNL     1       6.138   3.432   0.518  0.00  0.00    +0.000 C 
ENDROOT
BRANCH   7  10
ATOM     10  C   UNL     1       5.203   4.819   3.948  0.00  0.00    +0.000 C 
ATOM     11  C   UNL     1       4.000   5.693   4.201  0.00  0.00    +0.000 C 
ATOM     12  C   UNL     1       5.352   6.318   4.026  0.00  0.00    +0.000 C 
ENDBRANCH   7  10
BRANCH   1  14
ATOM     13  C   UNL     1       1.348  -0.479   0.439  0.00  0.00    +0.000 C 
ATOM     14  O   UNL     1       2.530   0.132  -0.062  0.00  0.00    +0.000 OA
ENDBRANCH   1  14
TORSDOF 2
