REMARK  Name = *****
REMARK  3 active torsions:
REMARK  status: ('A' for Active; 'I' for Inactive)
REMARK    1  A    between atoms: C_6  and  O_11
REMARK    2  A    between atoms: O_11  and  C_12
REMARK    3  A    between atoms: C_12  and  C_13
REMARK                            x       y       z     vdW  Elec       q    Type
REMARK                         _______ _______ _______ _____ _____    ______ ____
ROOT
ATOM      1  C   UNL     1       2.428  -0.664  -0.087  0.00  0.00    +0.000 A 
ATOM      2  C   UNL     1       2.407   0.726  -0.147  0.00  0.00    +0.000 A 
ATOM      3  C   UNL     1       1.191   1.409  -0.096  0.00  0.00    +0.000 A 
ATOM      4  C   UNL     1      -0.021   0.708   0.017  0.00  0.00    +0.000 A 
ATOM      5  C   UNL     1      -1.255   1.378   0.074  0.00  0.00    +0.000 A 
ATOM      6  C   UNL     1      -2.458   0.676   0.192  0.00  0.00    +0.000 A 
ATOM      7  C   UNL     1      -2.433  -0.716   0.246  0.00  0.00    +0.000 A 
ATOM      8  C   UNL     1      -1.213  -1.399   0.190  0.00  0.00    +0.000 A 
ATOM      9  C   UNL     1      -0.000  -0.702   0.077  0.00  0.00    +0.000 A 
ATOM     10  C   UNL     1       1.232  -1.375   0.023  0.00  0.00    +0.000 A 
ENDROOT
BRANCH   6  11
ATOM     11  O   UNL     1      -3.575   1.463   0.241  0.00  0.00    +0.000 OA
BRANCH  11  12
ATOM     12  C   UNL     1      -4.825   0.805   0.462  0.00  0.00    +0.000 C 
BRANCH  12  13
ATOM     13  C   UNL     1      -5.907   1.871   0.551  0.00  0.00    +0.000 C 
ATOM     14 CL   UNL     1      -7.500   1.139   0.838  0.00  0.00    +0.000 Cl
ENDBRANCH  12  13
ENDBRANCH  11  12
ENDBRANCH   6  11
TORSDOF 3
