REMARK  Name = *****
REMARK  2 active torsions:
REMARK  status: ('A' for Active; 'I' for Inactive)
REMARK    1  A    between atoms: C_1  and  C_2
REMARK    2  A    between atoms: C_3  and  C_12
REMARK                            x       y       z     vdW  Elec       q    Type
REMARK                         _______ _______ _______ _____ _____    ______ ____
ROOT
ATOM      1  C   UNL     1       0.994   0.229   0.146  0.00  0.00    +0.000 C 
ATOM      2  C   UNL     1       2.515   0.052   0.087  0.00  0.00    +0.000 C 
ATOM      3  C   UNL     1       3.112   0.231  -1.316  0.00  0.00    +0.000 C 
ATOM      4  S   UNL     1       2.475  -0.968  -2.524  0.00  0.00    +0.000 S 
ATOM      5  C   UNL     1       2.573  -2.487  -1.691  0.00  0.00    +0.000 A 
ATOM      6  C   UNL     1       2.755  -2.698  -0.372  0.00  0.00    +0.000 A 
ATOM      7  S   UNL     1       2.986  -1.515   0.877  0.00  0.00    +0.000 S 
ATOM      8  S   UNL     1       2.797  -4.372   0.152  0.00  0.00    +0.000 S 
ATOM      9  C   UNL     1       2.546  -5.101  -1.417  0.00  0.00    +0.000 A 
ATOM     10  S   UNL     1       2.473  -6.746  -1.671  0.00  0.00    +0.000 S 
ATOM     11  S   UNL     1       2.381  -3.914  -2.692  0.00  0.00    +0.000 S 
ATOM     12  C   UNL     1       4.643   0.240  -1.346  0.00  0.00    +0.000 C 
ENDROOT
TORSDOF 0
