REMARK  Name = *****
REMARK  0 active torsions:
REMARK  status: ('A' for Active; 'I' for Inactive)
REMARK                            x       y       z     vdW  Elec       q    Type
REMARK                         _______ _______ _______ _____ _____    ______ ____
ROOT
ATOM      1  C   UNL     1       3.497   0.609   0.925  0.00  0.00    +0.000 C 
ATOM      2  C   UNL     1       3.763   2.073   0.436  0.00  0.00    +0.000 C 
ATOM      3  C   UNL     1       2.620   2.240  -0.530  0.00  0.00    +0.000 C 
ATOM      4  C   UNL     1       2.386   3.229  -1.682  0.00  0.00    +0.000 C 
ATOM      5  C   UNL     1       0.846   3.253  -1.864  0.00  0.00    +0.000 C 
ATOM      6  C   UNL     1       0.539   1.790  -2.280  0.00  0.00    +0.000 C 
ATOM      7  C   UNL     1       1.933   1.186  -2.544  0.00  0.00    +0.000 C 
ATOM      8  C   UNL     1       2.728   2.450  -2.965  0.00  0.00    +0.000 C 
ATOM      9  C   UNL     1       2.733   0.907  -1.279  0.00  0.00    +0.000 C 
ATOM     10  C   UNL     1       2.562  -0.058  -0.139  0.00  0.00    +0.000 C 
ENDROOT
TORSDOF 0
