REMARK  Name = *****
REMARK  1 active torsions:
REMARK  status: ('A' for Active; 'I' for Inactive)
REMARK    1  A    between atoms: C_10  and  O_12
REMARK                            x       y       z     vdW  Elec       q    Type
REMARK                         _______ _______ _______ _____ _____    ______ ____
ROOT
ATOM      1  C   UNL     1       1.190   1.393  -0.012  0.00  0.00    +0.000 A 
ATOM      2  C   UNL     1       2.406   0.716  -0.044  0.00  0.00    +0.000 A 
ATOM      3  C   UNL     1       2.444  -0.676  -0.044  0.00  0.00    +0.000 A 
ATOM      4  C   UNL     1       1.252  -1.406  -0.012  0.00  0.00    +0.000 A 
ATOM      5  C   UNL     1       0.010  -0.748   0.022  0.00  0.00    +0.000 A 
ATOM      6  C   UNL     1       0.002   0.661   0.021  0.00  0.00    +0.000 A 
ATOM      7  N   UNL     1      -1.219   1.354   0.054  0.00  0.00    +0.000 N 
ATOM      8  C   UNL     1      -2.435   0.733   0.089  0.00  0.00    +0.000 A 
ATOM      9  O   UNL     1      -3.501   1.341   0.119  0.00  0.00    +0.000 OA
ATOM     10  C   UNL     1      -2.435  -0.762   0.090  0.00  0.00    +0.000 A 
ATOM     11  C   UNL     1      -1.285  -1.445   0.058  0.00  0.00    +0.000 A 
ATOM     12 CL   UNL     1       1.385  -3.131  -0.014  0.00  0.00    +0.000 Cl
ATOM     13 CL   UNL     1       3.875   1.610  -0.083  0.00  0.00    +0.000 Cl
ATOM     14  H   UNL     1      -1.197   2.338   0.051  0.00  0.00    +0.000 HD
ENDROOT
BRANCH  10  15
ATOM     15  O   UNL     1      -3.655  -1.410   0.126  0.00  0.00    +0.000 OA
ATOM     16  H   UNL     1      -4.449  -0.913   0.148  0.00  0.00    +0.000 HD
ENDBRANCH  10  15
TORSDOF 1
