REMARK  Name = *****
REMARK  1 active torsions:
REMARK  status: ('A' for Active; 'I' for Inactive)
REMARK    1  A    between atoms: C_10  and  C_11
REMARK                            x       y       z     vdW  Elec       q    Type
REMARK                         _______ _______ _______ _____ _____    ______ ____
ROOT
ATOM      1  C   UNL     1       2.170  -0.650   0.001  0.00  0.00    +0.000 A 
ATOM      2  C   UNL     1       0.990  -1.404   0.001  0.00  0.00    +0.000 A 
ATOM      3  C   UNL     1      -0.260  -0.749   0.001  0.00  0.00    +0.000 A 
ATOM      4  C   UNL     1      -0.275   0.652   0.001  0.00  0.00    +0.000 A 
ATOM      5  C   UNL     1       0.895   1.423   0.001  0.00  0.00    +0.000 A 
ATOM      6  C   UNL     1       2.115   0.741   0.001  0.00  0.00    +0.000 A 
ATOM      7 CL   UNL     1       3.582   1.646   0.001  0.00  0.00    +0.000 Cl
ATOM      8  N   UNL     1      -1.594   1.042   0.001  0.00  0.00    +0.000 N 
ATOM      9  C   UNL     1      -2.391  -0.060   0.002  0.00  0.00    +0.000 A 
ATOM     10  C   UNL     1      -1.623  -1.198   0.002  0.00  0.00    +0.000 A 
ATOM     11 CL   UNL     1      -4.071   0.198   0.002  0.00  0.00    +0.000 Cl
ATOM     12  H   UNL     1      -1.912   1.974   0.000  0.00  0.00    +0.000 HD
ENDROOT
BRANCH  10  13
ATOM     13  C   UNL     1      -2.126  -2.556   0.003  0.00  0.00    +0.000 C 
ATOM     14  O   UNL     1      -1.407  -3.551   0.003  0.00  0.00    +0.000 OA
ENDBRANCH  10  13
TORSDOF 1
