REMARK  Name = *****
REMARK  0 active torsions:
REMARK  status: ('A' for Active; 'I' for Inactive)
REMARK                            x       y       z     vdW  Elec       q    Type
REMARK                         _______ _______ _______ _____ _____    ______ ____
ROOT
ATOM      1  C   UNL     1      -0.102  -0.635  -0.000  0.00  0.00    +0.000 A 
ATOM      2  C   UNL     1       0.167   0.673   0.000  0.00  0.00    +0.000 A 
ATOM      3  S   UNL     1      -1.185   1.753   0.002  0.00  0.00    +0.000 S 
ATOM      4  C   UNL     1      -2.427   0.499   0.006  0.00  0.00    +0.000 A 
ATOM      5  S   UNL     1      -4.061   0.819   0.013  0.00  0.00    +0.000 S 
ATOM      6  S   UNL     1      -1.751  -1.131   0.001  0.00  0.00    +0.000 S 
ATOM      7  S   UNL     1       1.799   1.212  -0.001  0.00  0.00    +0.000 S 
ATOM      8  S   UNL     1       2.578  -0.678  -0.000  0.00  0.00    +0.000 S 
ATOM      9  C   UNL     1       1.048  -1.570  -0.001  0.00  0.00    +0.000 A 
ATOM     10  S   UNL     1       1.032  -3.245  -0.002  0.00  0.00    +0.000 S 
ENDROOT
TORSDOF 0
