REMARK  Name = *****
REMARK  0 active torsions:
REMARK  status: ('A' for Active; 'I' for Inactive)
REMARK                            x       y       z     vdW  Elec       q    Type
REMARK                         _______ _______ _______ _____ _____    ______ ____
ROOT
ATOM      1  C   UNL     1      -1.287   1.401  -0.014  0.00  0.00    +0.000 A 
ATOM      2  C   UNL     1      -2.416   0.682  -0.030  0.00  0.00    +0.000 A 
ATOM      3  C   UNL     1      -2.388  -0.798  -0.039  0.00  0.00    +0.000 A 
ATOM      4  O   UNL     1      -3.425  -1.449  -0.054  0.00  0.00    +0.000 OA
ATOM      5  N   UNL     1      -1.153  -1.385  -0.030  0.00  0.00    +0.000 N 
ATOM      6  C   UNL     1       0.052  -0.667  -0.013  0.00  0.00    +0.000 A 
ATOM      7  C   UNL     1       0.028   0.741  -0.005  0.00  0.00    +0.000 A 
ATOM      8  C   UNL     1       1.252   1.429   0.011  0.00  0.00    +0.000 A 
ATOM      9  C   UNL     1       2.463   0.728   0.018  0.00  0.00    +0.000 A 
ATOM     10  C   UNL     1       2.457  -0.665   0.009  0.00  0.00    +0.000 A 
ATOM     11  C   UNL     1       1.258  -1.370  -0.006  0.00  0.00    +0.000 A 
ATOM     12 CL   UNL     1       3.949  -1.522   0.016  0.00  0.00    +0.000 Cl
ATOM     13 CL   UNL     1       1.342   3.157   0.023  0.00  0.00    +0.000 Cl
ATOM     14  H   UNL     1      -1.106  -2.368  -0.034  0.00  0.00    +0.000 HD
ENDROOT
TORSDOF 0
