REMARK  Name = *****
REMARK  4 active torsions:
REMARK  status: ('A' for Active; 'I' for Inactive)
REMARK    1  A    between atoms: C_1  and  C_2
REMARK    2  A    between atoms: C_9  and  O_13
REMARK    3  A    between atoms: C_10  and  C_12
REMARK    4  A    between atoms: O_13  and  C_14
REMARK                            x       y       z     vdW  Elec       q    Type
REMARK                         _______ _______ _______ _____ _____    ______ ____
ROOT
ATOM      1  C   UNL     1       3.949  -0.313  -1.313  0.00  0.00    +0.000 C 
ATOM      2  C   UNL     1       2.857  -0.464  -0.246  0.00  0.00    +0.000 C 
ATOM      3  C   UNL     1       2.632   0.864   0.510  0.00  0.00    +0.000 C 
ATOM      4  C   UNL     1       3.605   1.087   1.633  0.00  0.00    +0.000 C 
ATOM      5  C   UNL     1       4.196   0.069   2.273  0.00  0.00    +0.000 C 
ATOM      6  C   UNL     1       3.888  -1.317   1.903  0.00  0.00    +0.000 A 
ATOM      7  C   UNL     1       3.216  -1.596   0.701  0.00  0.00    +0.000 A 
ATOM      8  C   UNL     1       2.928  -2.928   0.357  0.00  0.00    +0.000 A 
ATOM      9  C   UNL     1       3.301  -3.981   1.199  0.00  0.00    +0.000 A 
ATOM     10  C   UNL     1       3.975  -3.702   2.400  0.00  0.00    +0.000 A 
ATOM     11  C   UNL     1       4.267  -2.370   2.740  0.00  0.00    +0.000 A 
ATOM     12  C   UNL     1       4.391  -4.814   3.324  0.00  0.00    +0.000 C 
ENDROOT
BRANCH   9  13
ATOM     13  O   UNL     1       3.063  -5.307   0.947  0.00  0.00    +0.000 OA
ATOM     14  C   UNL     1       2.399  -5.634  -0.266  0.00  0.00    +0.000 C 
ENDBRANCH   9  13
TORSDOF 1
