REMARK  Name = *****
REMARK  0 active torsions:
REMARK  status: ('A' for Active; 'I' for Inactive)
REMARK                            x       y       z     vdW  Elec       q    Type
REMARK                         _______ _______ _______ _____ _____    ______ ____
ROOT
ATOM      1  C   UNL     1       1.958   1.075   0.178  0.00  0.00    +0.000 A 
ATOM      2  C   UNL     1       0.646   1.546   0.071  0.00  0.00    +0.000 A 
ATOM      3  C   UNL     1      -0.370   0.613  -0.046  0.00  0.00    +0.000 A 
ATOM      4  C   UNL     1      -0.095  -0.765  -0.069  0.00  0.00    +0.000 A 
ATOM      5  C   UNL     1       1.202  -1.241   0.026  0.00  0.00    +0.000 A 
ATOM      6  C   UNL     1       2.229  -0.305   0.154  0.00  0.00    +0.000 A 
ATOM      7 CL   UNL     1       3.858  -0.848   0.280  0.00  0.00    +0.000 Cl
ATOM      8  C   UNL     1      -1.383  -1.525  -0.245  0.00  0.00    +0.000 C 
ATOM      9  C   UNL     1      -2.395  -0.513   0.313  0.00  0.00    +0.000 C 
ATOM     10  C   UNL     1      -1.854   0.825  -0.207  0.00  0.00    +0.000 C 
ATOM     11  F   UNL     1      -2.188   1.008  -1.512  0.00  0.00    +0.000 F 
ATOM     12  F   UNL     1      -2.362   1.880   0.475  0.00  0.00    +0.000 F 
ATOM     13  F   UNL     1      -3.672  -0.763  -0.049  0.00  0.00    +0.000 F 
ATOM     14  F   UNL     1      -2.370  -0.530   1.681  0.00  0.00    +0.000 F 
ATOM     15  F   UNL     1      -1.630  -1.781  -1.557  0.00  0.00    +0.000 F 
ATOM     16  F   UNL     1      -1.443  -2.714   0.401  0.00  0.00    +0.000 F 
ENDROOT
TORSDOF 0
