REMARK  Name = *****
REMARK  0 active torsions:
REMARK  status: ('A' for Active; 'I' for Inactive)
REMARK                            x       y       z     vdW  Elec       q    Type
REMARK                         _______ _______ _______ _____ _____    ______ ____
ROOT
ATOM      1  C   UNL     1      -2.447   0.672  -0.019  0.00  0.00    +0.000 A 
ATOM      2  C   UNL     1      -1.321   1.411  -0.015  0.00  0.00    +0.000 A 
ATOM      3  C   UNL     1      -0.013   0.752   0.003  0.00  0.00    +0.000 A 
ATOM      4  C   UNL     1       1.166   1.402   0.009  0.00  0.00    +0.000 C 
ATOM      5  N   UNL     1       2.355   0.731   0.024  0.00  0.00    +0.000 N 
ATOM      6  C   UNL     1       2.466  -0.630   0.033  0.00  0.00    +0.000 C 
ATOM      7  O   UNL     1       3.545  -1.210   0.046  0.00  0.00    +0.000 OA
ATOM      8  C   UNL     1       1.192  -1.387   0.027  0.00  0.00    +0.000 C 
ATOM      9  C   UNL     1       0.019  -0.731   0.013  0.00  0.00    +0.000 A 
ATOM     10  C   UNL     1      -1.248  -1.462   0.008  0.00  0.00    +0.000 A 
ATOM     11  C   UNL     1      -2.410  -0.783  -0.007  0.00  0.00    +0.000 A 
ATOM     12 CL   UNL     1      -3.915  -1.625  -0.013  0.00  0.00    +0.000 Cl
ATOM     13 CL   UNL     1       1.384   3.102   0.000  0.00  0.00    +0.000 Cl
ATOM     14  H   UNL     1       3.184   1.262   0.029  0.00  0.00    +0.000 HD
ENDROOT
TORSDOF 0
