REMARK  Name = *****
REMARK  5 active torsions:
REMARK  status: ('A' for Active; 'I' for Inactive)
REMARK    1  A    between atoms: C_1  and  C_2
REMARK    2  A    between atoms: C_2  and  O_3
REMARK    3  A    between atoms: O_3  and  C_4
REMARK    4  A    between atoms: C_5  and  C_15
REMARK    5  A    between atoms: C_11  and  C_14
REMARK                            x       y       z     vdW  Elec       q    Type
REMARK                         _______ _______ _______ _____ _____    ______ ____
ROOT
ATOM      1  C   UNL     1       5.721  -1.577  -0.984  0.00  0.00    +0.000 C 
ATOM      2  C   UNL     1       6.994  -1.943  -1.236  0.00  0.00    +0.000 C 
ATOM      3  C   UNL     1       8.022  -0.902  -1.212  0.00  0.00    +0.000 C 
ATOM      4  C   UNL     1       8.952  -0.811  -2.183  0.00  0.00    +0.000 C 
ATOM      5  C   UNL     1       9.942   0.308  -2.312  0.00  0.00    +0.000 C 
ATOM      6  C   UNL     1       9.918   1.319  -1.168  0.00  0.00    +0.000 C 
ATOM      7  C   UNL     1       8.517   1.488  -0.581  0.00  0.00    +0.000 C 
ATOM      8  C   UNL     1       7.909   0.144  -0.097  0.00  0.00    +0.000 C 
ATOM      9  C   UNL     1       6.438   0.394   0.358  0.00  0.00    +0.000 C 
ATOM     10  C   UNL     1       5.387  -0.160  -0.603  0.00  0.00    +0.000 C 
ATOM     11  C   UNL     1       8.703  -0.371   1.129  0.00  0.00    +0.000 C 
ATOM     12  C   UNL     1       7.405  -3.357  -1.540  0.00  0.00    +0.000 C 
ENDROOT
BRANCH   1  13
ATOM     13  O   UNL     1       4.688  -2.492  -0.956  0.00  0.00    +0.000 OA
BRANCH  13  15
ATOM     14  C   UNL     1       2.762  -3.408  -2.027  0.00  0.00    +0.000 C 
ATOM     15  C   UNL     1       3.804  -2.306  -2.066  0.00  0.00    +0.000 C 
ENDBRANCH  13  15
ENDBRANCH   1  13
TORSDOF 2
