REMARK  Name = *****
REMARK  1 active torsions:
REMARK  status: ('A' for Active; 'I' for Inactive)
REMARK    1  A    between atoms: C_9  and  C_11
REMARK                            x       y       z     vdW  Elec       q    Type
REMARK                         _______ _______ _______ _____ _____    ______ ____
ROOT
ATOM      1  C   UNL     1       2.269  -0.631  -0.042  0.00  0.00    +0.000 A 
ATOM      2  C   UNL     1       1.108  -1.409  -0.068  0.00  0.00    +0.000 A 
ATOM      3  C   UNL     1      -0.144  -0.765  -0.031  0.00  0.00    +0.000 A 
ATOM      4  C   UNL     1      -0.251   0.626   0.030  0.00  0.00    +0.000 A 
ATOM      5  C   UNL     1       0.940   1.391   0.053  0.00  0.00    +0.000 A 
ATOM      6  C   UNL     1       2.182   0.753   0.017  0.00  0.00    +0.000 A 
ATOM      7 CL   UNL     1       3.621   1.697   0.048  0.00  0.00    +0.000 Cl
ATOM      8  C   UNL     1      -1.625   1.039   0.057  0.00  0.00    +0.000 A 
ATOM      9  C   UNL     1      -2.513  -0.016   0.014  0.00  0.00    +0.000 A 
ATOM     10  S   UNL     1      -1.695  -1.513  -0.054  0.00  0.00    +0.000 S 
ENDROOT
BRANCH   9  11
ATOM     11  C   UNL     1      -4.005   0.029   0.030  0.00  0.00    +0.000 C 
ATOM     12 CL   UNL     1      -4.623   0.507  -1.568  0.00  0.00    +0.000 Cl
ENDBRANCH   9  11
TORSDOF 1
