REMARK  Name = *****
REMARK  4 active torsions:
REMARK  status: ('A' for Active; 'I' for Inactive)
REMARK    1  A    between atoms: C_1  and  C_2
REMARK    2  A    between atoms: C_8  and  O_11
REMARK    3  A    between atoms: C_9  and  C_10
REMARK    4  A    between atoms: O_11  and  C_12
REMARK                            x       y       z     vdW  Elec       q    Type
REMARK                         _______ _______ _______ _____ _____    ______ ____
ROOT
ATOM      1  C   UNL     1       1.032   0.308   0.073  0.00  0.00    +0.000 C 
ATOM      2  C   UNL     1       2.487   0.025   0.070  0.00  0.00    +0.000 A 
ATOM      3  C   UNL     1       3.103  -1.207   0.071  0.00  0.00    +0.000 A 
ATOM      4  S   UNL     1       4.812  -1.134   0.067  0.00  0.00    +0.000 S 
ATOM      5  C   UNL     1       4.748   0.614   0.065  0.00  0.00    +0.000 A 
ATOM      6  C   UNL     1       3.462   1.075   0.067  0.00  0.00    +0.000 A 
ATOM      7  S   UNL     1       3.407   2.815   0.065  0.00  0.00    +0.000 S 
ATOM      8  C   UNL     1       5.127   2.916   0.062  0.00  0.00    +0.000 A 
ATOM      9  C   UNL     1       5.719   1.665   0.062  0.00  0.00    +0.000 A 
ATOM     10  C   UNL     1       7.173   1.362   0.059  0.00  0.00    +0.000 C 
ENDROOT
BRANCH   8  11
ATOM     11  O   UNL     1       5.820   4.068   0.059  0.00  0.00    +0.000 OA
ATOM     12  C   UNL     1       5.104   5.296   0.056  0.00  0.00    +0.000 C 
ENDBRANCH   8  11
TORSDOF 1
