REMARK  Name = *****
REMARK  2 active torsions:
REMARK  status: ('A' for Active; 'I' for Inactive)
REMARK    1  A    between atoms: C_1  and  C_2
REMARK    2  A    between atoms: C_2  and  C_4
REMARK                            x       y       z     vdW  Elec       q    Type
REMARK                         _______ _______ _______ _____ _____    ______ ____
ROOT
ATOM      1  C   UNL     1       3.199  -0.603   1.328  0.00  0.00    +0.000 A 
ATOM      2  N   UNL     1       2.930  -1.717   1.985  0.00  0.00    +0.000 NA
ATOM      3  C   UNL     1       3.825  -1.781   3.020  0.00  0.00    +0.000 A 
ATOM      4  C   UNL     1       3.974  -2.755   4.016  0.00  0.00    +0.000 A 
ATOM      5  C   UNL     1       4.983  -2.584   4.975  0.00  0.00    +0.000 A 
ATOM      6  C   UNL     1       5.825  -1.462   4.940  0.00  0.00    +0.000 A 
ATOM      7  C   UNL     1       5.685  -0.481   3.946  0.00  0.00    +0.000 A 
ATOM      8  C   UNL     1       4.672  -0.681   3.006  0.00  0.00    +0.000 A 
ATOM      9  N   UNL     1       4.255   0.051   1.923  0.00  0.00    +0.000 N 
ATOM     10 CL   UNL     1       7.080  -1.218   6.107  0.00  0.00    +0.000 Cl
ATOM     11 CL   UNL     1       5.134  -3.809   6.188  0.00  0.00    +0.000 Cl
ATOM     12  H   UNL     1       4.645   0.903   1.621  0.00  0.00    +0.000 HD
ENDROOT
BRANCH   1  14
ATOM     13  C   UNL     1       3.013   1.260  -0.494  0.00  0.00    +0.000 C 
ATOM     14  C   UNL     1       2.587  -0.029   0.167  0.00  0.00    +0.000 C 
ATOM     15  C   UNL     1       1.551  -0.712  -0.358  0.00  0.00    +0.000 C 
ENDBRANCH   1  14
TORSDOF 1
