REMARK  Name = *****
REMARK  3 active torsions:
REMARK  status: ('A' for Active; 'I' for Inactive)
REMARK    1  A    between atoms: C_1  and  C_2
REMARK    2  A    between atoms: C_4  and  O_12
REMARK    3  A    between atoms: O_12  and  C_13
REMARK                            x       y       z     vdW  Elec       q    Type
REMARK                         _______ _______ _______ _____ _____    ______ ____
ROOT
ATOM      1  C   UNL     1       1.732  -2.361  -0.004  0.00  0.00    +0.000 C 
ATOM      2  C   UNL     1       1.344  -0.905  -0.010  0.00  0.00    +0.000 A 
ATOM      3  C   UNL     1       2.369   0.061  -0.016  0.00  0.00    +0.000 A 
ATOM      4  C   UNL     1       2.068   1.421  -0.022  0.00  0.00    +0.000 A 
ATOM      5  C   UNL     1       0.732   1.822  -0.020  0.00  0.00    +0.000 A 
ATOM      6  C   UNL     1      -0.313   0.887  -0.016  0.00  0.00    +0.000 A 
ATOM      7  C   UNL     1      -1.650   1.319  -0.016  0.00  0.00    +0.000 A 
ATOM      8  C   UNL     1      -2.701   0.403  -0.012  0.00  0.00    +0.000 A 
ATOM      9  C   UNL     1      -2.427  -0.958  -0.008  0.00  0.00    +0.000 A 
ATOM     10  C   UNL     1      -1.103  -1.403  -0.007  0.00  0.00    +0.000 A 
ATOM     11  C   UNL     1      -0.017  -0.498  -0.011  0.00  0.00    +0.000 A 
ENDROOT
BRANCH   4  12
ATOM     12  O   UNL     1       2.972   2.447  -0.028  0.00  0.00    +0.000 OA
ATOM     13  C   UNL     1       4.349   2.094  -0.046  0.00  0.00    +0.000 C 
ENDBRANCH   4  12
TORSDOF 1
