REMARK  Name = *****
REMARK  1 active torsions:
REMARK  status: ('A' for Active; 'I' for Inactive)
REMARK    1  A    between atoms: C_9  and  C_11
REMARK                            x       y       z     vdW  Elec       q    Type
REMARK                         _______ _______ _______ _____ _____    ______ ____
ROOT
ATOM      1  C   UNL     1      -0.890   1.382   0.026  0.00  0.00    +0.000 A 
ATOM      2  C   UNL     1       0.472   1.700  -0.008  0.00  0.00    +0.000 A 
ATOM      3  C   UNL     1       1.382   0.637  -0.023  0.00  0.00    +0.000 A 
ATOM      4  C   UNL     1       0.984  -0.698  -0.005  0.00  0.00    +0.000 A 
ATOM      5  C   UNL     1      -0.391  -0.998   0.029  0.00  0.00    +0.000 A 
ATOM      6  C   UNL     1      -1.311   0.055   0.044  0.00  0.00    +0.000 A 
ATOM      7 CL   UNL     1      -2.997  -0.299   0.086  0.00  0.00    +0.000 Cl
ATOM      8  C   UNL     1       2.167  -1.487  -0.030  0.00  0.00    +0.000 A 
ATOM      9  C   UNL     1       3.260  -0.637  -0.063  0.00  0.00    +0.000 A 
ATOM     10  N   UNL     1       2.756   0.646  -0.056  0.00  0.00    +0.000 N 
ATOM     11  H   UNL     1       3.307   1.462  -0.073  0.00  0.00    +0.000 HD
ENDROOT
BRANCH   9  12
ATOM     12  C   UNL     1       4.691  -0.892  -0.098  0.00  0.00    +0.000 C 
ATOM     13  O   UNL     1       5.490   0.040  -0.122  0.00  0.00    +0.000 OA
ATOM     14 CL   UNL     1       5.151  -2.575  -0.105  0.00  0.00    +0.000 Cl
ENDBRANCH   9  12
TORSDOF 1
