REMARK  Name = *****
REMARK  1 active torsions:
REMARK  status: ('A' for Active; 'I' for Inactive)
REMARK    1  A    between atoms: C_1  and  C_2
REMARK                            x       y       z     vdW  Elec       q    Type
REMARK                         _______ _______ _______ _____ _____    ______ ____
ROOT
ATOM      1  C   UNL     1       1.362  -0.050   0.260  0.00  0.00    +0.000 C 
ATOM      2  C   UNL     1       2.791   0.092  -0.111  0.00  0.00    +0.000 A 
ATOM      3  C   UNL     1       3.571   1.214  -0.291  0.00  0.00    +0.000 A 
ATOM      4  C   UNL     1       4.888   0.795  -0.647  0.00  0.00    +0.000 A 
ATOM      5  C   UNL     1       4.866  -0.602  -0.672  0.00  0.00    +0.000 A 
ATOM      6  N   UNL     1       3.589  -1.000  -0.343  0.00  0.00    +0.000 N 
ATOM      7  C   UNL     1       5.992  -1.374  -0.986  0.00  0.00    +0.000 A 
ATOM      8  C   UNL     1       7.182  -0.699  -1.286  0.00  0.00    +0.000 A 
ATOM      9  C   UNL     1       7.244   0.694  -1.272  0.00  0.00    +0.000 A 
ATOM     10  C   UNL     1       6.105   1.442  -0.955  0.00  0.00    +0.000 A 
ATOM     11 CL   UNL     1       6.056   3.156  -0.905  0.00  0.00    +0.000 Cl
ATOM     12 CL   UNL     1       8.753   1.442  -1.655  0.00  0.00    +0.000 Cl
ATOM     13  H   UNL     1       3.290  -1.936  -0.284  0.00  0.00    +0.000 HD
ENDROOT
TORSDOF 0
