REMARK  Name = *****
REMARK  3 active torsions:
REMARK  status: ('A' for Active; 'I' for Inactive)
REMARK    1  A    between atoms: C_1  and  C_2
REMARK    2  A    between atoms: C_10  and  O_12
REMARK    3  A    between atoms: O_12  and  C_13
REMARK                            x       y       z     vdW  Elec       q    Type
REMARK                         _______ _______ _______ _____ _____    ______ ____
ROOT
ATOM      1  C   UNL     1      -3.601  -0.717   0.012  0.00  0.00    +0.000 C 
ATOM      2  C   UNL     1      -2.187  -0.218   0.004  0.00  0.00    +0.000 A 
ATOM      3  C   UNL     1      -1.108  -1.112   0.003  0.00  0.00    +0.000 A 
ATOM      4  C   UNL     1       0.221  -0.651   0.001  0.00  0.00    +0.000 A 
ATOM      5  C   UNL     1       0.468   0.739  -0.000  0.00  0.00    +0.000 A 
ATOM      6  C   UNL     1      -0.616   1.630   0.001  0.00  0.00    +0.000 A 
ATOM      7  C   UNL     1      -1.930   1.156   0.004  0.00  0.00    +0.000 A 
ATOM      8  C   UNL     1       1.793   1.198  -0.002  0.00  0.00    +0.000 A 
ATOM      9  C   UNL     1       2.857   0.293  -0.001  0.00  0.00    +0.000 A 
ATOM     10  C   UNL     1       2.621  -1.081   0.000  0.00  0.00    +0.000 A 
ATOM     11  C   UNL     1       1.305  -1.548   0.000  0.00  0.00    +0.000 A 
ENDROOT
BRANCH  10  12
ATOM     12  O   UNL     1       3.749  -1.855   0.002  0.00  0.00    +0.000 OA
ATOM     13  C   UNL     1       3.562  -3.265   0.012  0.00  0.00    +0.000 C 
ENDBRANCH  10  12
TORSDOF 1
