REMARK  Name = *****
REMARK  2 active torsions:
REMARK  status: ('A' for Active; 'I' for Inactive)
REMARK    1  A    between atoms: C_1  and  C_2
REMARK    2  A    between atoms: N_8  and  C_15
REMARK                            x       y       z     vdW  Elec       q    Type
REMARK                         _______ _______ _______ _____ _____    ______ ____
ROOT
ATOM      1  C   UNL     1       1.160  -0.123   0.179  0.00  0.00    +0.000 C 
ATOM      2  C   UNL     1       2.649   0.022   0.049  0.00  0.00    +0.000 A 
ATOM      3  C   UNL     1       3.244   1.289  -0.008  0.00  0.00    +0.000 A 
ATOM      4  C   UNL     1       4.634   1.400  -0.136  0.00  0.00    +0.000 A 
ATOM      5  C   UNL     1       5.426   0.241  -0.198  0.00  0.00    +0.000 A 
ATOM      6  C   UNL     1       4.839  -1.017  -0.194  0.00  0.00    +0.000 A 
ATOM      7  C   UNL     1       3.454  -1.124  -0.051  0.00  0.00    +0.000 A 
ATOM      8  N   UNL     1       6.813   0.480  -0.472  0.00  0.00    +0.000 N 
ATOM      9  S   UNL     1       7.125   2.125  -0.029  0.00  0.00    +0.000 S 
ATOM     10  O   UNL     1       8.047   2.664  -1.008  0.00  0.00    +0.000 OA
ATOM     11  O   UNL     1       7.490   2.101   1.378  0.00  0.00    +0.000 OA
ATOM     12  C   UNL     1       5.393   2.700  -0.250  0.00  0.00    +0.000 C 
ATOM     13 CL   UNL     1       5.187   3.408  -1.865  0.00  0.00    +0.000 Cl
ATOM     14 CL   UNL     1       4.988   3.863   1.024  0.00  0.00    +0.000 Cl
ATOM     15  C   UNL     1       7.830  -0.486  -0.031  0.00  0.00    +0.000 C 
ENDROOT
TORSDOF 0
