REMARK  Name = *****
REMARK  0 active torsions:
REMARK  status: ('A' for Active; 'I' for Inactive)
REMARK                            x       y       z     vdW  Elec       q    Type
REMARK                         _______ _______ _______ _____ _____    ______ ____
ROOT
ATOM      1  C   UNL     1       1.123  -1.208  -0.000  0.00  0.00    +0.000 A 
ATOM      2  C   UNL     1       2.188  -0.305  -0.001  0.00  0.00    +0.000 A 
ATOM      3  C   UNL     1       1.971   1.086  -0.001  0.00  0.00    +0.000 A 
ATOM      4  C   UNL     1       0.669   1.600   0.000  0.00  0.00    +0.000 A 
ATOM      5  C   UNL     1      -0.379   0.700   0.002  0.00  0.00    +0.000 A 
ATOM      6  C   UNL     1      -0.152  -0.678   0.001  0.00  0.00    +0.000 A 
ATOM      7  N   UNL     1      -1.341  -1.398   0.002  0.00  0.00    +0.000 N 
ATOM      8  C   UNL     1      -2.431  -0.554   0.003  0.00  0.00    +0.000 C 
ATOM      9  O   UNL     1      -3.604  -0.850   0.003  0.00  0.00    +0.000 OA
ATOM     10  C   UNL     1      -1.838   0.881   0.003  0.00  0.00    +0.000 C 
ATOM     11  O   UNL     1      -2.469   1.912   0.004  0.00  0.00    +0.000 OA
ATOM     12 BR   UNL     1       0.421   3.469  -0.000  0.00  0.00    +0.000 Br
ATOM     13 BR   UNL     1       3.961  -0.965  -0.003  0.00  0.00    +0.000 Br
ATOM     14  H   UNL     1      -1.398  -2.381   0.002  0.00  0.00    +0.000 HD
ENDROOT
TORSDOF 0
