REMARK  Name = *****
REMARK  4 active torsions:
REMARK  status: ('A' for Active; 'I' for Inactive)
REMARK    1  A    between atoms: C_1  and  C_2
REMARK    2  A    between atoms: C_3  and  C_13
REMARK    3  A    between atoms: C_4  and  C_12
REMARK    4  A    between atoms: C_8  and  C_11
REMARK                            x       y       z     vdW  Elec       q    Type
REMARK                         _______ _______ _______ _____ _____    ______ ____
ROOT
ATOM      1  C   UNL     1       0.959  -0.007  -0.008  0.00  0.00    +0.000 C 
ATOM      2  C   UNL     1       2.483  -0.015   0.029  0.00  0.00    +0.000 C 
ATOM      3  C   UNL     1       3.111   1.139  -0.748  0.00  0.00    +0.000 C 
ATOM      4  C   UNL     1       3.908   0.712  -1.749  0.00  0.00    +0.000 C 
ATOM      5  C   UNL     1       3.894  -0.752  -1.734  0.00  0.00    +0.000 A 
ATOM      6  C   UNL     1       3.066  -1.197  -0.697  0.00  0.00    +0.000 A 
ATOM      7  C   UNL     1       2.882  -2.551  -0.449  0.00  0.00    +0.000 A 
ATOM      8  C   UNL     1       3.547  -3.481  -1.260  0.00  0.00    +0.000 A 
ATOM      9  C   UNL     1       4.364  -3.027  -2.315  0.00  0.00    +0.000 A 
ATOM     10  C   UNL     1       4.546  -1.661  -2.552  0.00  0.00    +0.000 A 
ATOM     11  C   UNL     1       3.345  -4.953  -1.047  0.00  0.00    +0.000 C 
ATOM     12  C   UNL     1       4.708   1.480  -2.738  0.00  0.00    +0.000 C 
ATOM     13  C   UNL     1       2.834   2.543  -0.330  0.00  0.00    +0.000 C 
ENDROOT
TORSDOF 0
