REMARK  Name = *****
REMARK  3 active torsions:
REMARK  status: ('A' for Active; 'I' for Inactive)
REMARK    1  A    between atoms: C_1  and  C_2
REMARK    2  A    between atoms: C_6  and  O_13
REMARK    3  A    between atoms: O_13  and  C_14
REMARK                            x       y       z     vdW  Elec       q    Type
REMARK                         _______ _______ _______ _____ _____    ______ ____
ROOT
ATOM      1  C   UNL     1       0.885   0.079  -0.092  0.00  0.00    +0.000 C 
ATOM      2  C   UNL     1       2.390   0.026  -0.044  0.00  0.00    +0.000 A 
ATOM      3  C   UNL     1       3.096  -1.211  -0.073  0.00  0.00    +0.000 A 
ATOM      4  C   UNL     1       2.460  -2.469  -0.147  0.00  0.00    +0.000 A 
ATOM      5  C   UNL     1       3.188  -3.666  -0.173  0.00  0.00    +0.000 A 
ATOM      6  C   UNL     1       4.577  -3.638  -0.125  0.00  0.00    +0.000 A 
ATOM      7  C   UNL     1       5.227  -2.406  -0.052  0.00  0.00    +0.000 A 
ATOM      8  C   UNL     1       4.510  -1.195  -0.026  0.00  0.00    +0.000 A 
ATOM      9  C   UNL     1       5.178   0.035   0.048  0.00  0.00    +0.000 A 
ATOM     10  C   UNL     1       4.489   1.241   0.075  0.00  0.00    +0.000 A 
ATOM     11  C   UNL     1       3.099   1.237   0.030  0.00  0.00    +0.000 A 
ATOM     12  F   UNL     1       6.520   0.072   0.093  0.00  0.00    +0.000 F 
ENDROOT
BRANCH   6  13
ATOM     13  O   UNL     1       5.406  -4.725  -0.142  0.00  0.00    +0.000 OA
ATOM     14  C   UNL     1       4.790  -6.005  -0.202  0.00  0.00    +0.000 C 
ENDBRANCH   6  13
TORSDOF 1
