REMARK  Name = *****
REMARK  3 active torsions:
REMARK  status: ('A' for Active; 'I' for Inactive)
REMARK    1  A    between atoms: C_1  and  O_2
REMARK    2  A    between atoms: O_2  and  C_3
REMARK    3  A    between atoms: C_3  and  C_5
REMARK                            x       y       z     vdW  Elec       q    Type
REMARK                         _______ _______ _______ _____ _____    ______ ____
ROOT
ATOM      1  C   UNL     1       4.742   0.237   1.204  0.00  0.00    +0.000 A 
ATOM      2  C   UNL     1       5.584  -0.263   2.183  0.00  0.00    +0.000 A 
ATOM      3  C   UNL     1       6.874  -0.445   1.614  0.00  0.00    +0.000 A 
ATOM      4  C   UNL     1       8.105  -0.912   2.111  0.00  0.00    +0.000 A 
ATOM      5  C   UNL     1       9.204  -0.960   1.252  0.00  0.00    +0.000 A 
ATOM      6  C   UNL     1       9.102  -0.556  -0.077  0.00  0.00    +0.000 A 
ATOM      7  C   UNL     1       7.889  -0.088  -0.593  0.00  0.00    +0.000 A 
ATOM      8  C   UNL     1       6.793  -0.045   0.280  0.00  0.00    +0.000 A 
ATOM      9  N   UNL     1       5.498   0.361   0.060  0.00  0.00    +0.000 N 
ATOM     10 CL   UNL     1      10.475  -0.625  -1.117  0.00  0.00    +0.000 Cl
ATOM     11  F   UNL     1      10.372  -1.408   1.739  0.00  0.00    +0.000 F 
ATOM     12  H   UNL     1       5.156   0.695  -0.801  0.00  0.00    +0.000 HD
ENDROOT
BRANCH   1  13
ATOM     13  C   UNL     1       3.347   0.596   1.242  0.00  0.00    +0.000 C 
ATOM     14  O   UNL     1       2.721   1.031   0.284  0.00  0.00    +0.000 OA
BRANCH  13  16
ATOM     15  C   UNL     1       1.455   0.714   2.610  0.00  0.00    +0.000 C 
ATOM     16  O   UNL     1       2.838   0.382   2.485  0.00  0.00    +0.000 OA
ENDBRANCH  13  16
ENDBRANCH   1  13
TORSDOF 2
