REMARK  Name = *****
REMARK  4 active torsions:
REMARK  status: ('A' for Active; 'I' for Inactive)
REMARK    1  A    between atoms: C_1  and  C_2
REMARK    2  A    between atoms: C_10  and  C_12
REMARK    3  A    between atoms: C_12  and  O_14
REMARK    4  A    between atoms: O_14  and  C_15
REMARK                            x       y       z     vdW  Elec       q    Type
REMARK                         _______ _______ _______ _____ _____    ______ ____
ROOT
ATOM      1  C   UNL     1       1.164  -0.162   0.351  0.00  0.00    +0.000 C 
ATOM      2  C   UNL     1       2.649  -0.075   0.152  0.00  0.00    +0.000 A 
ATOM      3  C   UNL     1       3.266   1.178  -0.010  0.00  0.00    +0.000 A 
ATOM      4  C   UNL     1       4.657   1.255  -0.228  0.00  0.00    +0.000 A 
ATOM      5  C   UNL     1       5.392   0.073  -0.293  0.00  0.00    +0.000 A 
ATOM      6  C   UNL     1       4.796  -1.183  -0.150  0.00  0.00    +0.000 A 
ATOM      7  C   UNL     1       3.417  -1.242   0.067  0.00  0.00    +0.000 A 
ATOM      8 CL   UNL     1       5.729  -2.623  -0.244  0.00  0.00    +0.000 Cl
ATOM      9  N   UNL     1       6.703   0.427  -0.512  0.00  0.00    +0.000 N 
ATOM     10  C   UNL     1       6.839   1.795  -0.592  0.00  0.00    +0.000 A 
ATOM     11  C   UNL     1       5.572   2.325  -0.419  0.00  0.00    +0.000 A 
ATOM     12  H   UNL     1       7.446  -0.213  -0.599  0.00  0.00    +0.000 HD
ENDROOT
BRANCH  10  13
ATOM     13  C   UNL     1       8.083   2.489  -0.816  0.00  0.00    +0.000 C 
ATOM     14  O   UNL     1       8.217   3.702  -0.890  0.00  0.00    +0.000 OA
BRANCH  13  15
ATOM     15  O   UNL     1       9.094   1.581  -0.934  0.00  0.00    +0.000 OA
ATOM     16  C   UNL     1      10.374   2.173  -1.159  0.00  0.00    +0.000 C 
ENDBRANCH  13  15
ENDBRANCH  10  13
TORSDOF 2
