REMARK  Name = *****
REMARK  0 active torsions:
REMARK  status: ('A' for Active; 'I' for Inactive)
REMARK                            x       y       z     vdW  Elec       q    Type
REMARK                         _______ _______ _______ _____ _____    ______ ____
ROOT
ATOM      1  C   UNL     1      -0.708   1.088  -0.238  0.00  0.00    +0.000 A 
ATOM      2  C   UNL     1      -1.158  -0.218  -0.344  0.00  0.00    +0.000 A 
ATOM      3  C   UNL     1      -0.326  -1.305  -0.023  0.00  0.00    +0.000 A 
ATOM      4  C   UNL     1       0.975  -1.111   0.412  0.00  0.00    +0.000 A 
ATOM      5  C   UNL     1       1.434   0.203   0.511  0.00  0.00    +0.000 A 
ATOM      6  C   UNL     1       0.604   1.286   0.191  0.00  0.00    +0.000 A 
ATOM      7  F   UNL     1       1.071   2.538   0.300  0.00  0.00    +0.000 F 
ATOM      8  F   UNL     1       2.689   0.423   0.924  0.00  0.00    +0.000 F 
ATOM      9  C   UNL     1      -1.096  -2.589  -0.199  0.00  0.00    +0.000 C 
ATOM     10  C   UNL     1      -2.187  -2.168  -1.205  0.00  0.00    +0.000 C 
ATOM     11  C   UNL     1      -2.516  -0.732  -0.747  0.00  0.00    +0.000 C 
ATOM     12  F   UNL     1      -3.362  -0.756   0.318  0.00  0.00    +0.000 F 
ATOM     13  F   UNL     1      -3.135  -0.008  -1.710  0.00  0.00    +0.000 F 
ATOM     14  F   UNL     1      -3.272  -2.984  -1.154  0.00  0.00    +0.000 F 
ATOM     15 CL   UNL     1      -1.578  -2.207  -2.910  0.00  0.00    +0.000 Cl
ATOM     16  F   UNL     1      -0.358  -3.637  -0.637  0.00  0.00    +0.000 F 
ATOM     17  F   UNL     1      -1.659  -2.981   0.976  0.00  0.00    +0.000 F 
ENDROOT
TORSDOF 0
