REMARK  Name = *****
REMARK  0 active torsions:
REMARK  status: ('A' for Active; 'I' for Inactive)
REMARK                            x       y       z     vdW  Elec       q    Type
REMARK                         _______ _______ _______ _____ _____    ______ ____
ROOT
ATOM      1  C   UNL     1       1.971   1.055   0.001  0.00  0.00    +0.000 A 
ATOM      2  C   UNL     1       2.191  -0.334  -0.016  0.00  0.00    +0.000 A 
ATOM      3  C   UNL     1       1.118  -1.226  -0.017  0.00  0.00    +0.000 A 
ATOM      4  C   UNL     1      -0.152  -0.689  -0.000  0.00  0.00    +0.000 A 
ATOM      5  C   UNL     1      -0.393   0.687   0.017  0.00  0.00    +0.000 A 
ATOM      6  C   UNL     1       0.674   1.576   0.018  0.00  0.00    +0.000 A 
ATOM      7  C   UNL     1      -1.881   0.929   0.033  0.00  0.00    +0.000 C 
ATOM      8  C   UNL     1      -2.442  -0.518   0.021  0.00  0.00    +0.000 C 
ATOM      9  O   UNL     1      -3.607  -0.888   0.026  0.00  0.00    +0.000 OA
ATOM     10  N   UNL     1      -1.350  -1.385   0.002  0.00  0.00    +0.000 N 
ATOM     11  I   UNL     1      -2.560   1.950  -1.663  0.00  0.00    +0.000 I 
ATOM     12  I   UNL     1      -2.529   1.907   1.767  0.00  0.00    +0.000 I 
ATOM     13  H   UNL     1      -1.421  -2.367  -0.008  0.00  0.00    +0.000 HD
ENDROOT
TORSDOF 0
