REMARK  Name = *****
REMARK  0 active torsions:
REMARK  status: ('A' for Active; 'I' for Inactive)
REMARK                            x       y       z     vdW  Elec       q    Type
REMARK                         _______ _______ _______ _____ _____    ______ ____
ROOT
ATOM      1  C   UNL     1       1.942   1.068  -0.002  0.00  0.00    +0.000 A 
ATOM      2  C   UNL     1       0.617   1.503  -0.002  0.00  0.00    +0.000 A 
ATOM      3  C   UNL     1      -0.384   0.550  -0.002  0.00  0.00    +0.000 A 
ATOM      4  C   UNL     1      -0.081  -0.814  -0.003  0.00  0.00    +0.000 A 
ATOM      5  C   UNL     1       1.222  -1.277  -0.005  0.00  0.00    +0.000 A 
ATOM      6  C   UNL     1       2.243  -0.311  -0.004  0.00  0.00    +0.000 A 
ATOM      7 CL   UNL     1       3.918  -0.744  -0.005  0.00  0.00    +0.000 Cl
ATOM      8 CL   UNL     1       1.567  -2.964  -0.007  0.00  0.00    +0.000 Cl
ATOM      9  C   UNL     1      -1.369  -1.525  -0.003  0.00  0.00    +0.000 C 
ATOM     10  O   UNL     1      -1.566  -2.717  -0.004  0.00  0.00    +0.000 OA
ATOM     11  C   UNL     1      -2.457  -0.419  -0.001  0.00  0.00    +0.000 C 
ATOM     12  O   UNL     1      -3.654  -0.585  -0.000  0.00  0.00    +0.000 OA
ATOM     13  N   UNL     1      -1.762   0.769  -0.001  0.00  0.00    +0.000 N 
ATOM     14 CL   UNL     1       0.258   3.182   0.000  0.00  0.00    +0.000 Cl
ATOM     15  H   UNL     1      -2.183   1.659   0.000  0.00  0.00    +0.000 HD
ENDROOT
TORSDOF 0
