REMARK  Name = *****
REMARK  1 active torsions:
REMARK  status: ('A' for Active; 'I' for Inactive)
REMARK    1  A    between atoms: C_1  and  N_2
REMARK                            x       y       z     vdW  Elec       q    Type
REMARK                         _______ _______ _______ _____ _____    ______ ____
ROOT
ATOM      1  C   UNL     1       1.344  -0.007   0.090  0.00  0.00    +0.000 C 
ATOM      2  N   UNL     1       2.777   0.042   0.090  0.00  0.00    +0.000 N 
ATOM      3  C   UNL     1       3.644   1.166   0.090  0.00  0.00    +0.000 A 
ATOM      4  C   UNL     1       4.976   0.717   0.090  0.00  0.00    +0.000 A 
ATOM      5  C   UNL     1       6.091   1.538   0.090  0.00  0.00    +0.000 A 
ATOM      6  C   UNL     1       5.858   2.903   0.090  0.00  0.00    +0.000 A 
ATOM      7  C   UNL     1       4.548   3.404   0.089  0.00  0.00    +0.000 A 
ATOM      8  C   UNL     1       3.431   2.542   0.089  0.00  0.00    +0.000 A 
ATOM      9 BR   UNL     1       1.749   3.408   0.087  0.00  0.00    +0.000 Br
ATOM     10 CL   UNL     1       7.185   3.996   0.089  0.00  0.00    +0.000 Cl
ATOM     11  C   UNL     1       4.975  -0.742   0.091  0.00  0.00    +0.000 C 
ATOM     12  O   UNL     1       5.941  -1.468   0.092  0.00  0.00    +0.000 OA
ATOM     13  C   UNL     1       3.496  -1.151   0.091  0.00  0.00    +0.000 C 
ATOM     14  O   UNL     1       3.090  -2.294   0.092  0.00  0.00    +0.000 OA
ENDROOT
TORSDOF 0
