REMARK  Name = *****
REMARK  0 active torsions:
REMARK  status: ('A' for Active; 'I' for Inactive)
REMARK                            x       y       z     vdW  Elec       q    Type
REMARK                         _______ _______ _______ _____ _____    ______ ____
ROOT
ATOM      1  C   UNL     1       1.870   0.741  -0.909  0.00  0.00    +0.000 C 
ATOM      2  C   UNL     1       1.912  -0.659  -0.959  0.00  0.00    +0.000 C 
ATOM      3  C   UNL     1       1.143  -1.297   0.012  0.00  0.00    +0.000 C 
ATOM      4  C   UNL     1      -0.133  -0.757  -0.254  0.00  0.00    +0.000 A 
ATOM      5  C   UNL     1      -0.190   0.670  -0.207  0.00  0.00    +0.000 A 
ATOM      6  C   UNL     1       1.065   1.258   0.100  0.00  0.00    +0.000 C 
ATOM      7  C   UNL     1       1.363   0.649   1.314  0.00  0.00    +0.000 C 
ATOM      8  C   UNL     1       1.404  -0.751   1.267  0.00  0.00    +0.000 C 
ATOM      9  C   UNL     1      -1.508   1.145  -0.473  0.00  0.00    +0.000 A 
ATOM     10  C   UNL     1      -2.391   0.111  -0.711  0.00  0.00    +0.000 A 
ATOM     11  S   UNL     1      -1.654  -1.436  -0.618  0.00  0.00    +0.000 S 
ENDROOT
TORSDOF 0
