REMARK  Name = *****
REMARK  0 active torsions:
REMARK  status: ('A' for Active; 'I' for Inactive)
REMARK                            x       y       z     vdW  Elec       q    Type
REMARK                         _______ _______ _______ _____ _____    ______ ____
ROOT
ATOM      1  C   UNL     1       0.899   1.434   0.000  0.00  0.00    +0.000 A 
ATOM      2  C   UNL     1       2.097   0.716   0.002  0.00  0.00    +0.000 A 
ATOM      3  C   UNL     1       2.108  -0.694   0.001  0.00  0.00    +0.000 A 
ATOM      4  C   UNL     1       0.903  -1.409  -0.000  0.00  0.00    +0.000 A 
ATOM      5  C   UNL     1      -0.275  -0.690  -0.001  0.00  0.00    +0.000 A 
ATOM      6  C   UNL     1      -0.258   0.691  -0.001  0.00  0.00    +0.000 A 
ATOM      7  N   UNL     1      -1.562   1.094  -0.001  0.00  0.00    +0.000 N 
ATOM      8  C   UNL     1      -2.350  -0.032  -0.001  0.00  0.00    +0.000 A 
ATOM      9  O   UNL     1      -3.572  -0.028  -0.001  0.00  0.00    +0.000 OA
ATOM     10  O   UNL     1      -1.570  -1.193  -0.001  0.00  0.00    +0.000 OA
ATOM     11  I   UNL     1       0.924  -3.479   0.000  0.00  0.00    +0.000 I 
ATOM     12  I   UNL     1       3.906   1.748   0.005  0.00  0.00    +0.000 I 
ATOM     13  H   UNL     1      -1.881   2.025  -0.002  0.00  0.00    +0.000 HD
ENDROOT
TORSDOF 0
