REMARK  Name = *****
REMARK  0 active torsions:
REMARK  status: ('A' for Active; 'I' for Inactive)
REMARK                            x       y       z     vdW  Elec       q    Type
REMARK                         _______ _______ _______ _____ _____    ______ ____
ROOT
ATOM      1  C   UNL     1       2.014   1.093   0.015  0.00  0.00    +0.000 A 
ATOM      2  C   UNL     1       2.269  -0.279  -0.010  0.00  0.00    +0.000 A 
ATOM      3  C   UNL     1       1.213  -1.190  -0.022  0.00  0.00    +0.000 A 
ATOM      4  C   UNL     1      -0.108  -0.725  -0.008  0.00  0.00    +0.000 A 
ATOM      5  C   UNL     1      -0.364   0.655   0.018  0.00  0.00    +0.000 A 
ATOM      6  C   UNL     1       0.701   1.564   0.029  0.00  0.00    +0.000 A 
ATOM      7  C   UNL     1      -1.824   1.024   0.031  0.00  0.00    +0.000 C 
ATOM      8  S   UNL     1      -2.793  -0.510   0.007  0.00  0.00    +0.000 S 
ATOM      9  C   UNL     1      -1.338  -1.593  -0.020  0.00  0.00    +0.000 C 
ATOM     10 CL   UNL     1      -1.377  -2.589  -1.498  0.00  0.00    +0.000 Cl
ATOM     11 CL   UNL     1      -1.365  -2.646   1.419  0.00  0.00    +0.000 Cl
ATOM     12 CL   UNL     1      -2.230   1.996  -1.407  0.00  0.00    +0.000 Cl
ATOM     13 CL   UNL     1      -2.216   1.940   1.510  0.00  0.00    +0.000 Cl
ENDROOT
TORSDOF 0
