REMARK  Name = *****
REMARK  0 active torsions:
REMARK  status: ('A' for Active; 'I' for Inactive)
REMARK                            x       y       z     vdW  Elec       q    Type
REMARK                         _______ _______ _______ _____ _____    ______ ____
ROOT
ATOM      1  C   UNL     1      -2.390   0.045  -0.098  0.00  0.00    +0.000 C 
ATOM      2  C   UNL     1      -1.596  -1.255  -0.348  0.00  0.00    +0.000 C 
ATOM      3  C   UNL     1      -0.246  -1.296   0.397  0.00  0.00    +0.000 C 
ATOM      4  C   UNL     1       0.497  -0.038   0.042  0.00  0.00    +0.000 C 
ATOM      5  C   UNL     1       1.135   0.032  -1.377  0.00  0.00    +0.000 C 
ATOM      6  C   UNL     1       2.498   0.282  -0.701  0.00  0.00    +0.000 C 
ATOM      7  C   UNL     1       1.764   0.659   0.589  0.00  0.00    +0.000 C 
ATOM      8  C   UNL     1       1.004   2.018   0.482  0.00  0.00    +0.000 C 
ATOM      9  C   UNL     1      -0.300   1.189   0.523  0.00  0.00    +0.000 C 
ATOM     10  C   UNL     1      -1.557   1.326  -0.314  0.00  0.00    +0.000 C 
ENDROOT
TORSDOF 0
