REMARK  Name = *****
REMARK  0 active torsions:
REMARK  status: ('A' for Active; 'I' for Inactive)
REMARK                            x       y       z     vdW  Elec       q    Type
REMARK                         _______ _______ _______ _____ _____    ______ ____
ROOT
ATOM      1  C   UNL     1       2.131   0.780   0.000  0.00  0.00    +0.000 A 
ATOM      2  C   UNL     1       0.950   1.422  -0.001  0.00  0.00    +0.000 A 
ATOM      3  C   UNL     1      -0.277   0.695  -0.001  0.00  0.00    +0.000 A 
ATOM      4  C   UNL     1      -0.187  -0.672  -0.000  0.00  0.00    +0.000 A 
ATOM      5  N   UNL     1       0.977  -1.387   0.000  0.00  0.00    +0.000 N 
ATOM      6  C   UNL     1       2.176  -0.713   0.001  0.00  0.00    +0.000 A 
ATOM      7  O   UNL     1       3.255  -1.297   0.002  0.00  0.00    +0.000 OA
ATOM      8  S   UNL     1      -1.667  -1.468  -0.000  0.00  0.00    +0.000 S 
ATOM      9  C   UNL     1      -2.482   0.031  -0.000  0.00  0.00    +0.000 A 
ATOM     10  C   UNL     1      -1.635   1.119  -0.001  0.00  0.00    +0.000 A 
ATOM     11 BR   UNL     1      -4.350   0.173   0.001  0.00  0.00    +0.000 Br
ATOM     12 CL   UNL     1       0.912   3.148  -0.002  0.00  0.00    +0.000 Cl
ATOM     13  H   UNL     1       0.959  -2.371  -0.000  0.00  0.00    +0.000 HD
ENDROOT
TORSDOF 0
