REMARK  Name = *****
REMARK  0 active torsions:
REMARK  status: ('A' for Active; 'I' for Inactive)
REMARK                            x       y       z     vdW  Elec       q    Type
REMARK                         _______ _______ _______ _____ _____    ______ ____
ROOT
ATOM      1  C   UNL     1       2.517  -0.873   0.000  0.00  0.00    +0.000 A 
ATOM      2  C   UNL     1       1.421  -1.763   0.000  0.00  0.00    +0.000 A 
ATOM      3  C   UNL     1       0.106  -1.263   0.000  0.00  0.00    +0.000 A 
ATOM      4  C   UNL     1      -1.109  -1.978  -0.000  0.00  0.00    +0.000 A 
ATOM      5  C   UNL     1      -2.338  -1.281  -0.000  0.00  0.00    +0.000 A 
ATOM      6  C   UNL     1      -2.413   0.129  -0.000  0.00  0.00    +0.000 A 
ATOM      7  C   UNL     1      -1.196   0.786   0.000  0.00  0.00    +0.000 A 
ATOM      8  C   UNL     1      -0.008   0.095   0.000  0.00  0.00    +0.000 A 
ATOM      9  C   UNL     1       1.039   1.000   0.000  0.00  0.00    +0.000 A 
ATOM     10  C   UNL     1       2.349   0.527   0.000  0.00  0.00    +0.000 A 
ATOM     11  C   UNL     1       0.509   2.350   0.000  0.00  0.00    +0.000 C 
ATOM     12  O   UNL     1       1.042   3.450   0.000  0.00  0.00    +0.000 OA
ATOM     13  N   UNL     1      -0.880   2.133   0.000  0.00  0.00    +0.000 N 
ATOM     14 CL   UNL     1      -3.807  -2.186  -0.000  0.00  0.00    +0.000 Cl
ATOM     15  H   UNL     1      -1.549   2.856   0.000  0.00  0.00    +0.000 HD
ENDROOT
TORSDOF 0
