REMARK  Name = *****
REMARK  1 active torsions:
REMARK  status: ('A' for Active; 'I' for Inactive)
REMARK    1  A    between atoms: C_10  and  O_12
REMARK                            x       y       z     vdW  Elec       q    Type
REMARK                         _______ _______ _______ _____ _____    ______ ____
ROOT
ATOM      1  C   UNL     1      -1.224   1.328  -0.019  0.00  0.00    +0.000 A 
ATOM      2  C   UNL     1      -2.434   0.638  -0.005  0.00  0.00    +0.000 A 
ATOM      3  C   UNL     1      -2.447  -0.760   0.019  0.00  0.00    +0.000 A 
ATOM      4  C   UNL     1      -1.241  -1.484   0.030  0.00  0.00    +0.000 A 
ATOM      5  C   UNL     1      -0.011  -0.795   0.015  0.00  0.00    +0.000 A 
ATOM      6  C   UNL     1      -0.025   0.616  -0.009  0.00  0.00    +0.000 A 
ATOM      7  N   UNL     1       1.180   1.332  -0.023  0.00  0.00    +0.000 N 
ATOM      8  C   UNL     1       2.410   0.738  -0.017  0.00  0.00    +0.000 A 
ATOM      9  O   UNL     1       3.463   1.369  -0.030  0.00  0.00    +0.000 OA
ATOM     10  C   UNL     1       2.440  -0.755   0.008  0.00  0.00    +0.000 A 
ATOM     11  C   UNL     1       1.304  -1.461   0.023  0.00  0.00    +0.000 A 
ATOM     12 CL   UNL     1      -1.277  -3.222   0.060  0.00  0.00    +0.000 Cl
ATOM     13 CL   UNL     1      -3.998  -1.528   0.035  0.00  0.00    +0.000 Cl
ATOM     14  H   UNL     1       1.138   2.316  -0.039  0.00  0.00    +0.000 HD
ENDROOT
BRANCH  10  15
ATOM     15  O   UNL     1       3.674  -1.378   0.014  0.00  0.00    +0.000 OA
ATOM     16  H   UNL     1       4.458  -0.865   0.003  0.00  0.00    +0.000 HD
ENDBRANCH  10  15
TORSDOF 1
