REMARK  Name = *****
REMARK  0 active torsions:
REMARK  status: ('A' for Active; 'I' for Inactive)
REMARK                            x       y       z     vdW  Elec       q    Type
REMARK                         _______ _______ _______ _____ _____    ______ ____
ROOT
ATOM      1  C   UNL     1      -2.464   0.659   0.005  0.00  0.00    +0.000 A 
ATOM      2  C   UNL     1      -1.266   1.373  -0.005  0.00  0.00    +0.000 A 
ATOM      3  C   UNL     1      -0.029   0.701  -0.006  0.00  0.00    +0.000 A 
ATOM      4  C   UNL     1      -0.009  -0.701   0.002  0.00  0.00    +0.000 A 
ATOM      5  C   UNL     1       1.260  -1.426   0.002  0.00  0.00    +0.000 C 
ATOM      6  C   UNL     1       2.441  -0.803   0.010  0.00  0.00    +0.000 C 
ATOM      7  C   UNL     1       2.538   0.677   0.015  0.00  0.00    +0.000 C 
ATOM      8  O   UNL     1       3.671   1.167   0.042  0.00  0.00    +0.000 OA
ATOM      9  C   UNL     1       1.251   1.517  -0.024  0.00  0.00    +0.000 C 
ATOM     10  F   UNL     1       1.270   2.323  -1.136  0.00  0.00    +0.000 F 
ATOM     11  F   UNL     1       1.253   2.400   1.028  0.00  0.00    +0.000 F 
ATOM     12  C   UNL     1      -1.215  -1.414   0.012  0.00  0.00    +0.000 A 
ATOM     13  C   UNL     1      -2.433  -0.732   0.013  0.00  0.00    +0.000 A 
ATOM     14 BR   UNL     1      -4.053  -1.706   0.025  0.00  0.00    +0.000 Br
ENDROOT
TORSDOF 0
