REMARK  Name = *****
REMARK  0 active torsions:
REMARK  status: ('A' for Active; 'I' for Inactive)
REMARK                            x       y       z     vdW  Elec       q    Type
REMARK                         _______ _______ _______ _____ _____    ______ ____
ROOT
ATOM      1  C   UNL     1      -2.594   0.654  -0.341  0.00  0.00    +0.000 C 
ATOM      2  C   UNL     1      -2.449  -0.783   0.103  0.00  0.00    +0.000 C 
ATOM      3  O   UNL     1      -3.433  -1.505   0.276  0.00  0.00    +0.000 OA
ATOM      4  N   UNL     1      -1.199  -1.330   0.172  0.00  0.00    +0.000 N 
ATOM      5  C   UNL     1       0.029  -0.649   0.071  0.00  0.00    +0.000 A 
ATOM      6  C   UNL     1       0.096   0.751   0.109  0.00  0.00    +0.000 A 
ATOM      7  S   UNL     1      -1.351   1.759   0.360  0.00  0.00    +0.000 S 
ATOM      8  C   UNL     1       1.340   1.390   0.038  0.00  0.00    +0.000 A 
ATOM      9  C   UNL     1       2.508   0.638  -0.077  0.00  0.00    +0.000 A 
ATOM     10  C   UNL     1       2.457  -0.751  -0.106  0.00  0.00    +0.000 A 
ATOM     11  C   UNL     1       1.220  -1.391  -0.023  0.00  0.00    +0.000 A 
ATOM     12 CL   UNL     1       1.193  -3.121  -0.050  0.00  0.00    +0.000 Cl
ATOM     13 CL   UNL     1       4.030   1.435  -0.169  0.00  0.00    +0.000 Cl
ATOM     14  H   UNL     1      -1.152  -2.304   0.306  0.00  0.00    +0.000 HD
ENDROOT
TORSDOF 0
