REMARK  Name = *****
REMARK  1 active torsions:
REMARK  status: ('A' for Active; 'I' for Inactive)
REMARK    1  A    between atoms: C_6  and  C_7
REMARK                            x       y       z     vdW  Elec       q    Type
REMARK                         _______ _______ _______ _____ _____    ______ ____
ROOT
ATOM      1  C   UNL     1       1.935   1.120  -0.002  0.00  0.00    +0.000 A 
ATOM      2  C   UNL     1       2.238  -0.257  -0.001  0.00  0.00    +0.000 A 
ATOM      3  C   UNL     1       1.219  -1.216  -0.000  0.00  0.00    +0.000 A 
ATOM      4  C   UNL     1      -0.085  -0.765  -0.000  0.00  0.00    +0.000 A 
ATOM      5  C   UNL     1      -0.395   0.599  -0.001  0.00  0.00    +0.000 A 
ATOM      6  C   UNL     1       0.604   1.562  -0.002  0.00  0.00    +0.000 A 
ATOM      7  N   UNL     1      -1.778   0.802  -0.001  0.00  0.00    +0.000 N 
ATOM      8  C   UNL     1      -2.459  -0.396  -0.000  0.00  0.00    +0.000 C 
ATOM      9  O   UNL     1      -3.655  -0.574   0.000  0.00  0.00    +0.000 OA
ATOM     10  C   UNL     1      -1.362  -1.491   0.000  0.00  0.00    +0.000 C 
ATOM     11  O   UNL     1      -1.546  -2.685   0.001  0.00  0.00    +0.000 OA
ATOM     12 CL   UNL     1       1.636  -2.879   0.000  0.00  0.00    +0.000 Cl
ATOM     13  H   UNL     1      -2.210   1.687  -0.001  0.00  0.00    +0.000 HD
ENDROOT
BRANCH   6  14
ATOM     14  C   UNL     1       0.303   2.960  -0.003  0.00  0.00    +0.000 C 
ATOM     15  N   UNL     1       0.040   4.090  -0.004  0.00  0.00    +0.000 NA
ENDBRANCH   6  14
TORSDOF 1
