REMARK  Name = *****
REMARK  0 active torsions:
REMARK  status: ('A' for Active; 'I' for Inactive)
REMARK                            x       y       z     vdW  Elec       q    Type
REMARK                         _______ _______ _______ _____ _____    ______ ____
ROOT
ATOM      1  C   UNL     1       2.534  -0.867   0.000  0.00  0.00    +0.000 A 
ATOM      2  C   UNL     1       1.441  -1.761   0.001  0.00  0.00    +0.000 A 
ATOM      3  C   UNL     1       0.111  -1.276   0.001  0.00  0.00    +0.000 A 
ATOM      4  C   UNL     1      -0.003   0.083   0.001  0.00  0.00    +0.000 A 
ATOM      5  C   UNL     1       1.043   0.992   0.001  0.00  0.00    +0.000 A 
ATOM      6  C   UNL     1       2.356   0.529   0.000  0.00  0.00    +0.000 A 
ATOM      7  C   UNL     1       0.516   2.343   0.001  0.00  0.00    +0.000 C 
ATOM      8  O   UNL     1       1.053   3.441   0.000  0.00  0.00    +0.000 OA
ATOM      9  N   UNL     1      -0.869   2.128   0.001  0.00  0.00    +0.000 N 
ATOM     10  C   UNL     1      -1.190   0.779   0.001  0.00  0.00    +0.000 A 
ATOM     11  C   UNL     1      -2.407   0.118   0.001  0.00  0.00    +0.000 A 
ATOM     12  C   UNL     1      -2.356  -1.285   0.001  0.00  0.00    +0.000 A 
ATOM     13  C   UNL     1      -1.123  -1.976   0.001  0.00  0.00    +0.000 A 
ATOM     14 CL   UNL     1      -1.160  -3.703   0.002  0.00  0.00    +0.000 Cl
ATOM     15 CL   UNL     1      -3.898   0.958   0.001  0.00  0.00    +0.000 Cl
ATOM     16  H   UNL     1      -1.537   2.851   0.001  0.00  0.00    +0.000 HD
ENDROOT
TORSDOF 0
