REMARK  Name = *****
REMARK  2 active torsions:
REMARK  status: ('A' for Active; 'I' for Inactive)
REMARK    1  A    between atoms: C_1  and  O_2
REMARK    2  A    between atoms: O_2  and  C_3
REMARK                            x       y       z     vdW  Elec       q    Type
REMARK                         _______ _______ _______ _____ _____    ______ ____
ROOT
ATOM      1  C   UNL     1       3.171   1.232  -0.392  0.00  0.00    +0.000 A 
ATOM      2  C   UNL     1       4.284   1.046  -1.215  0.00  0.00    +0.000 A 
ATOM      3  C   UNL     1       5.066   2.129  -1.653  0.00  0.00    +0.000 A 
ATOM      4  C   UNL     1       4.728   3.445  -1.258  0.00  0.00    +0.000 A 
ATOM      5  C   UNL     1       3.596   3.610  -0.425  0.00  0.00    +0.000 A 
ATOM      6  C   UNL     1       2.829   2.520   0.001  0.00  0.00    +0.000 A 
ATOM      7  C   UNL     1       5.544   4.509  -1.721  0.00  0.00    +0.000 A 
ATOM      8  C   UNL     1       6.649   4.270  -2.543  0.00  0.00    +0.000 A 
ATOM      9  C   UNL     1       6.967   2.971  -2.922  0.00  0.00    +0.000 A 
ATOM     10  C   UNL     1       6.180   1.909  -2.480  0.00  0.00    +0.000 A 
ATOM     11 CL   UNL     1       5.224   6.160  -1.299  0.00  0.00    +0.000 Cl
ENDROOT
BRANCH   1  13
ATOM     12  C   UNL     1       1.375   0.219   0.791  0.00  0.00    +0.000 C 
ATOM     13  O   UNL     1       2.513   0.082  -0.051  0.00  0.00    +0.000 OA
ENDBRANCH   1  13
TORSDOF 1
