REMARK  Name = *****
REMARK  0 active torsions:
REMARK  status: ('A' for Active; 'I' for Inactive)
REMARK                            x       y       z     vdW  Elec       q    Type
REMARK                         _______ _______ _______ _____ _____    ______ ____
ROOT
ATOM      1  C   UNL     1       0.929   0.036   0.302  0.00  0.00    +0.000 C 
ATOM      2  C   UNL     1       2.250   0.031   0.086  0.00  0.00    +0.000 C 
ATOM      3  C   UNL     1       3.138   1.225  -0.171  0.00  0.00    +0.000 C 
ATOM      4  C   UNL     1       2.656   2.611   0.266  0.00  0.00    +0.000 C 
ATOM      5  C   UNL     1       3.726   3.664  -0.040  0.00  0.00    +0.000 C 
ATOM      6  C   UNL     1       5.092   3.304   0.547  0.00  0.00    +0.000 C 
ATOM      7  C   UNL     1       5.540   1.886   0.175  0.00  0.00    +0.000 C 
ATOM      8  C   UNL     1       4.453   0.874   0.547  0.00  0.00    +0.000 C 
ATOM      9  C   UNL     1       4.673  -0.583   0.219  0.00  0.00    +0.000 C 
ATOM     10  C   UNL     1       5.841  -1.193  -0.015  0.00  0.00    +0.000 C 
ATOM     11  S   UNL     1       3.161  -1.468   0.121  0.00  0.00    +0.000 S 
ENDROOT
TORSDOF 0
