REMARK  Name = *****
REMARK  1 active torsions:
REMARK  status: ('A' for Active; 'I' for Inactive)
REMARK    1  A    between atoms: C_1  and  C_2
REMARK                            x       y       z     vdW  Elec       q    Type
REMARK                         _______ _______ _______ _____ _____    ______ ____
ROOT
ATOM      1  C   UNL     1       0.873   1.119  -0.249  0.00  0.00    +0.000 C 
ATOM      2  C   UNL     1       2.167   0.394  -0.142  0.00  0.00    +0.000 C 
ATOM      3  C   UNL     1       3.208   0.715   0.635  0.00  0.00    +0.000 C 
ATOM      4  C   UNL     1       4.358  -0.228   0.452  0.00  0.00    +0.000 C 
ATOM      5  C   UNL     1       4.955  -0.695   1.783  0.00  0.00    +0.000 C 
ATOM      6  C   UNL     1       5.700  -2.012   1.607  0.00  0.00    +0.000 C 
ATOM      7  C   UNL     1       4.781  -3.135   1.120  0.00  0.00    +0.000 C 
ATOM      8  C   UNL     1       3.500  -2.634   0.451  0.00  0.00    +0.000 C 
ATOM      9  C   UNL     1       3.749  -1.375  -0.388  0.00  0.00    +0.000 C 
ATOM     10  C   UNL     1       2.445  -0.813  -0.982  0.00  0.00    +0.000 C 
ENDROOT
TORSDOF 0
