REMARK  Name = *****
REMARK  0 active torsions:
REMARK  status: ('A' for Active; 'I' for Inactive)
REMARK                            x       y       z     vdW  Elec       q    Type
REMARK                         _______ _______ _______ _____ _____    ______ ____
ROOT
ATOM      1  C   UNL     1       1.038   1.475   0.005  0.00  0.00    +0.000 A 
ATOM      2  C   UNL     1      -0.058   0.654   0.003  0.00  0.00    +0.000 A 
ATOM      3  C   UNL     1       0.273  -0.712   0.001  0.00  0.00    +0.000 A 
ATOM      4  C   UNL     1       1.623  -0.941   0.001  0.00  0.00    +0.000 A 
ATOM      5  S   UNL     1       2.490   0.548   0.004  0.00  0.00    +0.000 S 
ATOM      6  S   UNL     1      -1.053  -1.848  -0.001  0.00  0.00    +0.000 S 
ATOM      7  C   UNL     1      -2.343  -0.622   0.001  0.00  0.00    +0.000 A 
ATOM      8  S   UNL     1      -3.966  -1.016   0.001  0.00  0.00    +0.000 S 
ATOM      9  S   UNL     1      -1.757   1.058   0.004  0.00  0.00    +0.000 S 
ENDROOT
TORSDOF 0
