REMARK  Name = *****
REMARK  0 active torsions:
REMARK  status: ('A' for Active; 'I' for Inactive)
REMARK                            x       y       z     vdW  Elec       q    Type
REMARK                         _______ _______ _______ _____ _____    ______ ____
ROOT
ATOM      1  C   UNL     1       1.940   1.073   0.000  0.00  0.00    +0.000 A 
ATOM      2  C   UNL     1       0.610   1.485   0.111  0.00  0.00    +0.000 A 
ATOM      3  C   UNL     1      -0.389   0.521   0.114  0.00  0.00    +0.000 A 
ATOM      4  C   UNL     1      -0.070  -0.837   0.061  0.00  0.00    +0.000 A 
ATOM      5  C   UNL     1       1.247  -1.256  -0.047  0.00  0.00    +0.000 A 
ATOM      6  C   UNL     1       2.259  -0.291  -0.082  0.00  0.00    +0.000 A 
ATOM      7 BR   UNL     1       1.719  -3.084  -0.144  0.00  0.00    +0.000 Br
ATOM      8  S   UNL     1      -1.587  -1.747   0.141  0.00  0.00    +0.000 S 
ATOM      9  N   UNL     1      -2.548  -0.375   0.067  0.00  0.00    +0.000 NA
ATOM     10  N   UNL     1      -1.763   0.781   0.302  0.00  0.00    +0.000 N 
ATOM     11 BR   UNL     1      -3.930  -0.486   1.299  0.00  0.00    +0.000 Br
ATOM     12  H   UNL     1      -2.130   1.655   0.565  0.00  0.00    +0.000 HD
ENDROOT
TORSDOF 0
