REMARK  Name = *****
REMARK  3 active torsions:
REMARK  status: ('A' for Active; 'I' for Inactive)
REMARK    1  A    between atoms: C_1  and  C_2
REMARK    2  A    between atoms: C_2  and  C_3
REMARK    3  A    between atoms: C_2  and  C_4
REMARK                            x       y       z     vdW  Elec       q    Type
REMARK                         _______ _______ _______ _____ _____    ______ ____
ROOT
ATOM      1  C   UNL     1       3.053  -0.142  -1.481  0.00  0.00    +0.000 A 
ATOM      2  N   UNL     1       3.310  -1.206  -2.215  0.00  0.00    +0.000 NA
ATOM      3  C   UNL     1       3.742  -0.732  -3.426  0.00  0.00    +0.000 A 
ATOM      4  C   UNL     1       4.145  -1.435  -4.569  0.00  0.00    +0.000 A 
ATOM      5  C   UNL     1       4.549  -0.707  -5.696  0.00  0.00    +0.000 A 
ATOM      6  C   UNL     1       4.550   0.696  -5.683  0.00  0.00    +0.000 A 
ATOM      7  C   UNL     1       4.148   1.411  -4.544  0.00  0.00    +0.000 A 
ATOM      8  C   UNL     1       3.752   0.657  -3.437  0.00  0.00    +0.000 A 
ATOM      9  N   UNL     1       3.309   1.009  -2.188  0.00  0.00    +0.000 N 
ATOM     10 CL   UNL     1       5.042   1.628  -7.057  0.00  0.00    +0.000 Cl
ATOM     11 CL   UNL     1       5.040  -1.613  -7.087  0.00  0.00    +0.000 Cl
ATOM     12  H   UNL     1       3.194   1.928  -1.854  0.00  0.00    +0.000 HD
ENDROOT
BRANCH   1  14
ATOM     13  C   UNL     1       1.189  -0.809   0.026  0.00  0.00    +0.000 C 
ATOM     14  C   UNL     1       2.551  -0.122  -0.069  0.00  0.00    +0.000 C 
ATOM     15  C   UNL     1       3.559  -0.788   0.867  0.00  0.00    +0.000 C 
ENDBRANCH   1  14
TORSDOF 1
