REMARK  Name = *****
REMARK  0 active torsions:
REMARK  status: ('A' for Active; 'I' for Inactive)
REMARK                            x       y       z     vdW  Elec       q    Type
REMARK                         _______ _______ _______ _____ _____    ______ ____
ROOT
ATOM      1  C   UNL     1       2.139  -0.703  -0.070  0.00  0.00    +0.000 A 
ATOM      2  C   UNL     1       0.927  -1.401  -0.062  0.00  0.00    +0.000 A 
ATOM      3  C   UNL     1      -0.252  -0.646  -0.038  0.00  0.00    +0.000 A 
ATOM      4  C   UNL     1      -0.256   0.754  -0.022  0.00  0.00    +0.000 A 
ATOM      5  C   UNL     1       0.977   1.435  -0.030  0.00  0.00    +0.000 A 
ATOM      6  C   UNL     1       2.161   0.691  -0.054  0.00  0.00    +0.000 A 
ATOM      7 CL   UNL     1       3.674   1.514  -0.065  0.00  0.00    +0.000 Cl
ATOM      8  C   UNL     1      -1.617   1.176   0.000  0.00  0.00    +0.000 A 
ATOM      9  C   UNL     1      -2.376   0.040  -0.004  0.00  0.00    +0.000 A 
ATOM     10  N   UNL     1      -1.569  -1.053  -0.026  0.00  0.00    +0.000 N 
ATOM     11 CL   UNL     1      -4.054  -0.205   0.013  0.00  0.00    +0.000 Cl
ATOM     12  H   UNL     1      -1.877  -1.989  -0.033  0.00  0.00    +0.000 HD
ENDROOT
TORSDOF 0
