REMARK  Name = *****
REMARK  4 active torsions:
REMARK  status: ('A' for Active; 'I' for Inactive)
REMARK    1  A    between atoms: C_1  and  C_2
REMARK    2  A    between atoms: C_2  and  C_13
REMARK    3  A    between atoms: C_8  and  O_11
REMARK    4  A    between atoms: O_11  and  C_12
REMARK                            x       y       z     vdW  Elec       q    Type
REMARK                         _______ _______ _______ _____ _____    ______ ____
ROOT
ATOM      1  C   UNL     1       1.232   0.013   0.475  0.00  0.00    +0.000 C 
ATOM      2  C   UNL     1       2.684  -0.014  -0.042  0.00  0.00    +0.000 C 
ATOM      3  C   UNL     1       3.529   1.079   0.671  0.00  0.00    +0.000 C 
ATOM      4  C   UNL     1       4.125   0.323   1.819  0.00  0.00    +0.000 A 
ATOM      5  C   UNL     1       4.029  -1.053   1.620  0.00  0.00    +0.000 A 
ATOM      6  C   UNL     1       3.358  -1.368   0.319  0.00  0.00    +0.000 C 
ATOM      7  C   UNL     1       4.555  -1.944   2.542  0.00  0.00    +0.000 A 
ATOM      8  C   UNL     1       5.179  -1.444   3.690  0.00  0.00    +0.000 A 
ATOM      9  C   UNL     1       5.273  -0.057   3.886  0.00  0.00    +0.000 A 
ATOM     10  C   UNL     1       4.749   0.836   2.943  0.00  0.00    +0.000 A 
ATOM     11  C   UNL     1       2.676   0.205  -1.558  0.00  0.00    +0.000 C 
ENDROOT
BRANCH   8  12
ATOM     12  O   UNL     1       5.659  -2.407   4.538  0.00  0.00    +0.000 OA
ATOM     13  C   UNL     1       6.309  -1.956   5.719  0.00  0.00    +0.000 C 
ENDBRANCH   8  12
TORSDOF 1
