REMARK  Name = *****
REMARK  0 active torsions:
REMARK  status: ('A' for Active; 'I' for Inactive)
REMARK                            x       y       z     vdW  Elec       q    Type
REMARK                         _______ _______ _______ _____ _____    ______ ____
ROOT
ATOM      1  C   UNL     1      -1.262   1.401  -0.028  0.00  0.00    +0.000 A 
ATOM      2  C   UNL     1      -2.399   0.694  -0.040  0.00  0.00    +0.000 A 
ATOM      3  C   UNL     1      -2.388  -0.789  -0.044  0.00  0.00    +0.000 A 
ATOM      4  O   UNL     1      -3.434  -1.426  -0.055  0.00  0.00    +0.000 OA
ATOM      5  N   UNL     1      -1.160  -1.395  -0.034  0.00  0.00    +0.000 N 
ATOM      6  C   UNL     1       0.051  -0.691  -0.023  0.00  0.00    +0.000 A 
ATOM      7  C   UNL     1       1.259  -1.386  -0.014  0.00  0.00    +0.000 A 
ATOM      8  C   UNL     1       2.463  -0.675  -0.004  0.00  0.00    +0.000 A 
ATOM      9  C   UNL     1       2.451   0.727  -0.001  0.00  0.00    +0.000 A 
ATOM     10  C   UNL     1       1.234   1.418  -0.009  0.00  0.00    +0.000 A 
ATOM     11  C   UNL     1       0.029   0.711  -0.020  0.00  0.00    +0.000 A 
ATOM     12 CL   UNL     1       3.903   1.664   0.011  0.00  0.00    +0.000 Cl
ATOM     13 CL   UNL     1       3.931  -1.586   0.005  0.00  0.00    +0.000 Cl
ATOM     14  H   UNL     1      -1.126  -2.379  -0.036  0.00  0.00    +0.000 HD
ENDROOT
TORSDOF 0
