REMARK  Name = *****
REMARK  0 active torsions:
REMARK  status: ('A' for Active; 'I' for Inactive)
REMARK                            x       y       z     vdW  Elec       q    Type
REMARK                         _______ _______ _______ _____ _____    ______ ____
ROOT
ATOM      1  C   UNL     1       0.914   1.434   0.001  0.00  0.00    +0.000 A 
ATOM      2  C   UNL     1       2.108   0.710   0.001  0.00  0.00    +0.000 A 
ATOM      3  C   UNL     1       2.113  -0.699   0.001  0.00  0.00    +0.000 A 
ATOM      4  C   UNL     1       0.907  -1.406   0.000  0.00  0.00    +0.000 A 
ATOM      5  C   UNL     1      -0.269  -0.685  -0.000  0.00  0.00    +0.000 A 
ATOM      6  C   UNL     1      -0.247   0.697  -0.000  0.00  0.00    +0.000 A 
ATOM      7  N   UNL     1      -1.553   1.104  -0.000  0.00  0.00    +0.000 N 
ATOM      8  C   UNL     1      -2.323  -0.030  -0.000  0.00  0.00    +0.000 A 
ATOM      9  S   UNL     1      -3.970  -0.109   0.001  0.00  0.00    +0.000 S 
ATOM     10  O   UNL     1      -1.563  -1.194  -0.001  0.00  0.00    +0.000 OA
ATOM     11 CL   UNL     1       0.913  -3.122  -0.000  0.00  0.00    +0.000 Cl
ATOM     12 CL   UNL     1       3.607   1.557   0.004  0.00  0.00    +0.000 Cl
ATOM     13  H   UNL     1      -1.878   2.034  -0.001  0.00  0.00    +0.000 HD
ENDROOT
TORSDOF 0
