REMARK  Name = *****
REMARK  0 active torsions:
REMARK  status: ('A' for Active; 'I' for Inactive)
REMARK                            x       y       z     vdW  Elec       q    Type
REMARK                         _______ _______ _______ _____ _____    ______ ____
ROOT
ATOM      1  C   UNL     1      -1.223  -1.402   0.026  0.00  0.00    +0.000 A 
ATOM      2  C   UNL     1      -0.016  -0.695  -0.014  0.00  0.00    +0.000 A 
ATOM      3  C   UNL     1      -0.018   0.686  -0.007  0.00  0.00    +0.000 A 
ATOM      4  C   UNL     1      -1.216   1.396   0.038  0.00  0.00    +0.000 A 
ATOM      5  C   UNL     1      -2.429   0.698   0.078  0.00  0.00    +0.000 A 
ATOM      6  C   UNL     1      -2.433  -0.703   0.072  0.00  0.00    +0.000 A 
ATOM      7 CL   UNL     1      -3.892  -1.625   0.120  0.00  0.00    +0.000 Cl
ATOM      8 CL   UNL     1      -3.885   1.627   0.134  0.00  0.00    +0.000 Cl
ATOM      9  N   UNL     1       1.196   1.345  -0.046  0.00  0.00    +0.000 N 
ATOM     10  C   UNL     1       2.399   0.699  -0.089  0.00  0.00    +0.000 A 
ATOM     11  O   UNL     1       3.439   1.350  -0.120  0.00  0.00    +0.000 OA
ATOM     12  O   UNL     1       2.411  -0.658  -0.097  0.00  0.00    +0.000 OA
ATOM     13  C   UNL     1       1.277  -1.391  -0.063  0.00  0.00    +0.000 A 
ATOM     14  O   UNL     1       1.300  -2.617  -0.072  0.00  0.00    +0.000 OA
ATOM     15  H   UNL     1       1.194   2.329  -0.041  0.00  0.00    +0.000 HD
ENDROOT
TORSDOF 0
