REMARK  Name = *****
REMARK  0 active torsions:
REMARK  status: ('A' for Active; 'I' for Inactive)
REMARK                            x       y       z     vdW  Elec       q    Type
REMARK                         _______ _______ _______ _____ _____    ______ ____
ROOT
ATOM      1  C   UNL     1       2.129   0.612   0.190  0.00  0.00    +0.000 C 
ATOM      2  C   UNL     1       1.819  -0.469  -0.668  0.00  0.00    +0.000 C 
ATOM      3  C   UNL     1       0.495  -0.835  -0.928  0.00  0.00    +0.000 C 
ATOM      4  C   UNL     1      -0.473  -0.088  -0.304  0.00  0.00    +0.000 C 
ATOM      5  C   UNL     1      -0.181   1.008   0.567  0.00  0.00    +0.000 C 
ATOM      6  C   UNL     1       1.126   1.363   0.818  0.00  0.00    +0.000 C 
ATOM      7  C   UNL     1      -1.467   1.570   1.050  0.00  0.00    +0.000 C 
ATOM      8  C   UNL     1      -2.411   0.829   0.480  0.00  0.00    +0.000 C 
ATOM      9  C   UNL     1      -1.920  -0.207  -0.363  0.00  0.00    +0.000 C 
ATOM     10  C   UNL     1      -3.137  -0.648  -0.686  0.00  0.00    +0.000 C 
ATOM     11  C   UNL     1      -3.748   0.408   0.177  0.00  0.00    +0.000 C 
ATOM     12  O   UNL     1      -4.875   0.754   0.483  0.00  0.00    +0.000 OA
ATOM     13 CL   UNL     1      -3.775  -1.899  -1.676  0.00  0.00    +0.000 Cl
ENDROOT
TORSDOF 0
