REMARK  Name = *****
REMARK  1 active torsions:
REMARK  status: ('A' for Active; 'I' for Inactive)
REMARK    1  A    between atoms: C_1  and  C_2
REMARK                            x       y       z     vdW  Elec       q    Type
REMARK                         _______ _______ _______ _____ _____    ______ ____
ROOT
ATOM      1  C   UNL     1       0.922   0.111  -0.188  0.00  0.00    +0.000 C 
ATOM      2  C   UNL     1       2.438  -0.028  -0.141  0.00  0.00    +0.000 C 
ATOM      3  C   UNL     1       2.884  -1.351   0.444  0.00  0.00    +0.000 A 
ATOM      4  C   UNL     1       3.706  -1.120   1.550  0.00  0.00    +0.000 A 
ATOM      5  C   UNL     1       4.267  -2.140   2.290  0.00  0.00    +0.000 A 
ATOM      6  C   UNL     1       3.986  -3.450   1.892  0.00  0.00    +0.000 A 
ATOM      7  C   UNL     1       3.161  -3.698   0.780  0.00  0.00    +0.000 A 
ATOM      8  C   UNL     1       2.602  -2.649   0.045  0.00  0.00    +0.000 A 
ATOM      9 CL   UNL     1       2.834  -5.324   0.318  0.00  0.00    +0.000 Cl
ATOM     10  N   UNL     1       3.843   0.243   1.767  0.00  0.00    +0.000 N 
ATOM     11  C   UNL     1       3.119   0.972   0.827  0.00  0.00    +0.000 C 
ATOM     12  S   UNL     1       3.029   2.631   0.834  0.00  0.00    +0.000 S 
ATOM     13 CL   UNL     1       3.146   0.160  -1.770  0.00  0.00    +0.000 Cl
ATOM     14  H   UNL     1       4.380   0.642   2.489  0.00  0.00    +0.000 HD
ENDROOT
TORSDOF 0
