REMARK  Name = *****
REMARK  1 active torsions:
REMARK  status: ('A' for Active; 'I' for Inactive)
REMARK    1  A    between atoms: C_1  and  C_2
REMARK                            x       y       z     vdW  Elec       q    Type
REMARK                         _______ _______ _______ _____ _____    ______ ____
ROOT
ATOM      1  C   UNL     1       0.457  -1.622  -1.036  0.00  0.00    +0.000 C 
ATOM      2  C   UNL     1       0.332  -0.593   0.119  0.00  0.00    +0.000 C 
ATOM      3  C   UNL     1      -0.839  -1.019   1.038  0.00  0.00    +0.000 C 
ATOM      4  C   UNL     1      -2.215  -0.936   0.379  0.00  0.00    +0.000 C 
ATOM      5  C   UNL     1      -2.402   0.300  -0.497  0.00  0.00    +0.000 C 
ATOM      6  C   UNL     1      -1.344   1.364  -0.238  0.00  0.00    +0.000 C 
ATOM      7  C   UNL     1       0.074   0.826  -0.510  0.00  0.00    +0.000 C 
ATOM      8  C   UNL     1       1.112   1.903  -0.137  0.00  0.00    +0.000 C 
ATOM      9  C   UNL     1       2.510   1.370  -0.126  0.00  0.00    +0.000 C 
ATOM     10  C   UNL     1       2.762   0.157   0.380  0.00  0.00    +0.000 C 
ATOM     11  C   UNL     1       1.645  -0.661   0.952  0.00  0.00    +0.000 C 
ENDROOT
TORSDOF 0
