REMARK  Name = *****
REMARK  4 active torsions:
REMARK  status: ('A' for Active; 'I' for Inactive)
REMARK    1  A    between atoms: C_1  and  C_2
REMARK    2  A    between atoms: C_2  and  O_3
REMARK    3  A    between atoms: O_3  and  C_4
REMARK    4  A    between atoms: C_5  and  C_14
REMARK                            x       y       z     vdW  Elec       q    Type
REMARK                         _______ _______ _______ _____ _____    ______ ____
ROOT
ATOM      1  C   UNL     1       4.272   1.725   0.500  0.00  0.00    +0.000 A 
ATOM      2  C   UNL     1       5.228   1.390  -0.446  0.00  0.00    +0.000 A 
ATOM      3  C   UNL     1       6.520   1.609   0.127  0.00  0.00    +0.000 A 
ATOM      4  C   UNL     1       6.316   2.075   1.425  0.00  0.00    +0.000 A 
ATOM      5  N   UNL     1       4.958   2.132   1.620  0.00  0.00    +0.000 N 
ATOM      6  C   UNL     1       7.366   2.398   2.293  0.00  0.00    +0.000 A 
ATOM      7  C   UNL     1       8.670   2.238   1.815  0.00  0.00    +0.000 A 
ATOM      8  C   UNL     1       8.904   1.775   0.523  0.00  0.00    +0.000 A 
ATOM      9  C   UNL     1       7.846   1.455  -0.334  0.00  0.00    +0.000 A 
ATOM     10 CL   UNL     1      10.524   1.591  -0.032  0.00  0.00    +0.000 Cl
ATOM     11  H   UNL     1       4.530   2.427   2.456  0.00  0.00    +0.000 HD
ENDROOT
BRANCH   2  12
ATOM     12  C   UNL     1       4.996   0.909  -1.772  0.00  0.00    +0.000 C 
ATOM     13  N   UNL     1       4.804   0.518  -2.848  0.00  0.00    +0.000 NA
ENDBRANCH   2  12
BRANCH   1  14
ATOM     14  O   UNL     1       2.939   1.746   0.583  0.00  0.00    +0.000 OA
BRANCH  14  16
ATOM     15  C   UNL     1       0.717   1.477  -0.235  0.00  0.00    +0.000 C 
ATOM     16  C   UNL     1       2.192   1.351  -0.567  0.00  0.00    +0.000 C 
ENDBRANCH  14  16
ENDBRANCH   1  14
TORSDOF 3
