REMARK  Name = *****
REMARK  4 active torsions:
REMARK  status: ('A' for Active; 'I' for Inactive)
REMARK    1  A    between atoms: C_1  and  C_2
REMARK    2  A    between atoms: C_8  and  O_13
REMARK    3  A    between atoms: C_11  and  C_12
REMARK    4  A    between atoms: O_13  and  C_14
REMARK                            x       y       z     vdW  Elec       q    Type
REMARK                         _______ _______ _______ _____ _____    ______ ____
ROOT
ATOM      1  C   UNL     1       1.129  -0.224   0.983  0.00  0.00    +0.000 C 
ATOM      2  C   UNL     1       2.377  -0.317   0.086  0.00  0.00    +0.000 C 
ATOM      3  C   UNL     1       3.127  -1.642   0.374  0.00  0.00    +0.000 C 
ATOM      4  C   UNL     1       4.289  -1.542   1.369  0.00  0.00    +0.000 C 
ATOM      5  C   UNL     1       4.228  -0.321   2.277  0.00  0.00    +0.000 C 
ATOM      6  C   UNL     1       4.056   0.967   1.514  0.00  0.00    +0.000 C 
ATOM      7  C   UNL     1       4.494   2.139   2.015  0.00  0.00    +0.000 C 
ATOM      8  C   UNL     1       4.270   3.388   1.320  0.00  0.00    +0.000 C 
ATOM      9  C   UNL     1       3.329   3.485   0.371  0.00  0.00    +0.000 C 
ATOM     10  C   UNL     1       2.555   2.269  -0.072  0.00  0.00    +0.000 C 
ATOM     11  C   UNL     1       3.328   0.924   0.163  0.00  0.00    +0.000 C 
ATOM     12  C   UNL     1       4.392   0.810  -0.968  0.00  0.00    +0.000 C 
ENDROOT
BRANCH   8  13
ATOM     13  O   UNL     1       4.933   4.496   1.795  0.00  0.00    +0.000 OA
ATOM     14  C   UNL     1       6.293   4.498   1.365  0.00  0.00    +0.000 C 
ENDBRANCH   8  13
TORSDOF 1
