REMARK  Name = *****
REMARK  1 active torsions:
REMARK  status: ('A' for Active; 'I' for Inactive)
REMARK    1  A    between atoms: C_1  and  N_2
REMARK                            x       y       z     vdW  Elec       q    Type
REMARK                         _______ _______ _______ _____ _____    ______ ____
ROOT
ATOM      1  C   UNL     1       0.887   0.003  -0.039  0.00  0.00    +0.000 C 
ATOM      2  N   UNL     1       2.341   0.014  -0.061  0.00  0.00    +0.000 N 
ATOM      3  C   UNL     1       3.052   1.247  -0.002  0.00  0.00    +0.000 A 
ATOM      4  C   UNL     1       2.395   2.483   0.080  0.00  0.00    +0.000 A 
ATOM      5  C   UNL     1       3.121   3.680   0.136  0.00  0.00    +0.000 A 
ATOM      6  C   UNL     1       4.518   3.654   0.111  0.00  0.00    +0.000 A 
ATOM      7  C   UNL     1       5.185   2.431   0.030  0.00  0.00    +0.000 A 
ATOM      8  C   UNL     1       4.454   1.240  -0.026  0.00  0.00    +0.000 A 
ATOM      9  N   UNL     1       5.153   0.038  -0.106  0.00  0.00    +0.000 N 
ATOM     10  C   UNL     1       4.545  -1.190  -0.165  0.00  0.00    +0.000 A 
ATOM     11  O   UNL     1       5.204  -2.219  -0.233  0.00  0.00    +0.000 OA
ATOM     12  C   UNL     1       3.005  -1.218  -0.141  0.00  0.00    +0.000 A 
ATOM     13  O   UNL     1       2.433  -2.303  -0.193  0.00  0.00    +0.000 OA
ATOM     14 CL   UNL     1       5.476   5.089   0.176  0.00  0.00    +0.000 Cl
ATOM     15 CL   UNL     1       2.227   5.156   0.235  0.00  0.00    +0.000 Cl
ATOM     16  H   UNL     1       6.136   0.072  -0.120  0.00  0.00    +0.000 HD
ENDROOT
TORSDOF 0
