REMARK  Name = *****
REMARK  0 active torsions:
REMARK  status: ('A' for Active; 'I' for Inactive)
REMARK                            x       y       z     vdW  Elec       q    Type
REMARK                         _______ _______ _______ _____ _____    ______ ____
ROOT
ATOM      1  C   UNL     1       1.212  -1.267  -0.000  0.00  0.00    +0.000 A 
ATOM      2  C   UNL     1       2.235  -0.318  -0.001  0.00  0.00    +0.000 A 
ATOM      3  C   UNL     1       1.953   1.064  -0.002  0.00  0.00    +0.000 A 
ATOM      4  C   UNL     1       0.627   1.520  -0.003  0.00  0.00    +0.000 A 
ATOM      5  C   UNL     1      -0.385   0.577  -0.002  0.00  0.00    +0.000 A 
ATOM      6  C   UNL     1      -0.081  -0.783  -0.001  0.00  0.00    +0.000 A 
ATOM      7  C   UNL     1      -1.350  -1.513  -0.000  0.00  0.00    +0.000 C 
ATOM      8  O   UNL     1      -1.499  -2.712   0.001  0.00  0.00    +0.000 OA
ATOM      9  C   UNL     1      -2.451  -0.418  -0.002  0.00  0.00    +0.000 C 
ATOM     10  O   UNL     1      -3.647  -0.598  -0.002  0.00  0.00    +0.000 OA
ATOM     11  N   UNL     1      -1.766   0.780  -0.003  0.00  0.00    +0.000 N 
ATOM     12  I   UNL     1       0.235   3.556  -0.005  0.00  0.00    +0.000 I 
ATOM     13  I   UNL     1       4.217  -0.954  -0.000  0.00  0.00    +0.000 I 
ATOM     14  H   UNL     1      -2.197   1.666  -0.004  0.00  0.00    +0.000 HD
ENDROOT
TORSDOF 0
