REMARK  Name = *****
REMARK  2 active torsions:
REMARK  status: ('A' for Active; 'I' for Inactive)
REMARK    1  A    between atoms: C_1  and  O_2
REMARK    2  A    between atoms: O_2  and  C_3
REMARK                            x       y       z     vdW  Elec       q    Type
REMARK                         _______ _______ _______ _____ _____    ______ ____
ROOT
ATOM      1  C   UNL     1       2.969  -0.621  -1.107  0.00  0.00    +0.000 A 
ATOM      2  C   UNL     1       4.082  -1.457  -0.977  0.00  0.00    +0.000 A 
ATOM      3  C   UNL     1       4.837  -1.848  -2.095  0.00  0.00    +0.000 A 
ATOM      4  C   UNL     1       4.462  -1.382  -3.375  0.00  0.00    +0.000 A 
ATOM      5  C   UNL     1       3.346  -0.540  -3.496  0.00  0.00    +0.000 A 
ATOM      6  C   UNL     1       2.605  -0.162  -2.371  0.00  0.00    +0.000 A 
ATOM      7  C   UNL     1       5.212  -1.771  -4.497  0.00  0.00    +0.000 A 
ATOM      8  C   UNL     1       6.317  -2.609  -4.348  0.00  0.00    +0.000 A 
ATOM      9  C   UNL     1       6.691  -3.071  -3.090  0.00  0.00    +0.000 A 
ATOM     10  C   UNL     1       5.953  -2.691  -1.968  0.00  0.00    +0.000 A 
ATOM     11 BR   UNL     1       7.314  -3.125  -5.870  0.00  0.00    +0.000 Br
ENDROOT
BRANCH   1  13
ATOM     12  C   UNL     1       1.162   0.472  -0.015  0.00  0.00    +0.000 C 
ATOM     13  O   UNL     1       2.333  -0.331   0.069  0.00  0.00    +0.000 OA
ENDBRANCH   1  13
TORSDOF 1
