REMARK  Name = *****
REMARK  1 active torsions:
REMARK  status: ('A' for Active; 'I' for Inactive)
REMARK    1  A    between atoms: N_9  and  N_10
REMARK                            x       y       z     vdW  Elec       q    Type
REMARK                         _______ _______ _______ _____ _____    ______ ____
ROOT
ATOM      1  C   UNL     1      -2.273  -0.776  -0.001  0.00  0.00    +0.000 A 
ATOM      2  C   UNL     1      -2.329   0.621   0.002  0.00  0.00    +0.000 A 
ATOM      3  C   UNL     1      -1.152   1.372   0.007  0.00  0.00    +0.000 A 
ATOM      4  C   UNL     1       0.076   0.716   0.009  0.00  0.00    +0.000 A 
ATOM      5  C   UNL     1       0.132  -0.679   0.006  0.00  0.00    +0.000 A 
ATOM      6  C   UNL     1      -1.040  -1.431   0.001  0.00  0.00    +0.000 A 
ATOM      7  S   UNL     1       1.754  -1.398   0.008  0.00  0.00    +0.000 S 
ATOM      8  C   UNL     1       2.652   0.123   0.010  0.00  0.00    +0.000 A 
ATOM      9  N   UNL     1       3.944   0.075   0.007  0.00  0.00    +0.000 NA
ATOM     10  S   UNL     1       1.634   1.563   0.014  0.00  0.00    +0.000 S 
ENDROOT
BRANCH   9  11
ATOM     11  N   UNL     1       4.638   1.285   0.008  0.00  0.00    +0.000 NA
ATOM     12  O   UNL     1       5.857   1.091   0.004  0.00  0.00    +0.000 OA
ENDBRANCH   9  11
TORSDOF 1
