REMARK  Name = *****
REMARK  2 active torsions:
REMARK  status: ('A' for Active; 'I' for Inactive)
REMARK    1  A    between atoms: C_1  and  O_2
REMARK    2  A    between atoms: O_2  and  C_3
REMARK                            x       y       z     vdW  Elec       q    Type
REMARK                         _______ _______ _______ _____ _____    ______ ____
ROOT
ATOM      1  C   UNL     1       3.134   0.032  -1.289  0.00  0.00    +0.000 A 
ATOM      2  C   UNL     1       2.785   0.776  -2.418  0.00  0.00    +0.000 A 
ATOM      3  C   UNL     1       3.510   0.646  -3.618  0.00  0.00    +0.000 A 
ATOM      4  C   UNL     1       4.605  -0.250  -3.680  0.00  0.00    +0.000 A 
ATOM      5  C   UNL     1       4.943  -0.991  -2.540  0.00  0.00    +0.000 A 
ATOM      6  C   UNL     1       4.213  -0.849  -1.359  0.00  0.00    +0.000 A 
ATOM      7  C   UNL     1       5.329  -0.379  -4.877  0.00  0.00    +0.000 A 
ATOM      8  C   UNL     1       4.978   0.366  -6.002  0.00  0.00    +0.000 A 
ATOM      9  C   UNL     1       3.903   1.241  -5.933  0.00  0.00    +0.000 A 
ATOM     10  C   UNL     1       3.170   1.388  -4.760  0.00  0.00    +0.000 A 
ATOM     11  F   UNL     1       3.566   1.957  -7.013  0.00  0.00    +0.000 F 
ENDROOT
BRANCH   1  13
ATOM     12  C   UNL     1       1.415   0.971   0.062  0.00  0.00    +0.000 C 
ATOM     13  O   UNL     1       2.509   0.072  -0.073  0.00  0.00    +0.000 OA
ENDBRANCH   1  13
TORSDOF 1
