REMARK  Name = *****
REMARK  0 active torsions:
REMARK  status: ('A' for Active; 'I' for Inactive)
REMARK                            x       y       z     vdW  Elec       q    Type
REMARK                         _______ _______ _______ _____ _____    ______ ____
ROOT
ATOM      1  C   UNL     1       0.920   1.431  -0.002  0.00  0.00    +0.000 A 
ATOM      2  C   UNL     1       2.120   0.707  -0.002  0.00  0.00    +0.000 A 
ATOM      3  C   UNL     1       2.130  -0.692  -0.002  0.00  0.00    +0.000 A 
ATOM      4  C   UNL     1       0.927  -1.405  -0.001  0.00  0.00    +0.000 A 
ATOM      5  C   UNL     1      -0.297  -0.711  -0.001  0.00  0.00    +0.000 A 
ATOM      6  C   UNL     1      -0.263   0.689  -0.001  0.00  0.00    +0.000 A 
ATOM      7  N   UNL     1      -1.585   1.065  -0.001  0.00  0.00    +0.000 N 
ATOM      8  C   UNL     1      -2.326  -0.072   0.000  0.00  0.00    +0.000 A 
ATOM      9  N   UNL     1      -1.605  -1.160  -0.000  0.00  0.00    +0.000 NA
ATOM     10 CL   UNL     1      -4.015   0.054   0.002  0.00  0.00    +0.000 Cl
ATOM     11 CL   UNL     1       0.800  -3.113  -0.000  0.00  0.00    +0.000 Cl
ATOM     12 CL   UNL     1       3.663  -1.488  -0.004  0.00  0.00    +0.000 Cl
ATOM     13  H   UNL     1      -1.930   1.987  -0.001  0.00  0.00    +0.000 HD
ENDROOT
TORSDOF 0
