REMARK  Name = *****
REMARK  3 active torsions:
REMARK  status: ('A' for Active; 'I' for Inactive)
REMARK    1  A    between atoms: C_1  and  O_2
REMARK    2  A    between atoms: O_2  and  C_3
REMARK    3  A    between atoms: C_10  and  C_13
REMARK                            x       y       z     vdW  Elec       q    Type
REMARK                         _______ _______ _______ _____ _____    ______ ____
ROOT
ATOM      1  C   UNL     1       3.373   1.169  -0.137  0.00  0.00    +0.000 A 
ATOM      2  C   UNL     1       2.899   2.394   0.379  0.00  0.00    +0.000 A 
ATOM      3  C   UNL     1       3.456   3.639  -0.031  0.00  0.00    +0.000 A 
ATOM      4  C   UNL     1       4.505   3.622  -0.978  0.00  0.00    +0.000 A 
ATOM      5  C   UNL     1       4.963   2.398  -1.486  0.00  0.00    +0.000 A 
ATOM      6  C   UNL     1       4.406   1.186  -1.072  0.00  0.00    +0.000 A 
ATOM      7  C   UNL     1       5.087   4.828  -1.412  0.00  0.00    +0.000 A 
ATOM      8  C   UNL     1       4.665   6.068  -0.919  0.00  0.00    +0.000 A 
ATOM      9  C   UNL     1       3.620   6.094   0.004  0.00  0.00    +0.000 A 
ATOM     10  C   UNL     1       3.030   4.903   0.443  0.00  0.00    +0.000 A 
ATOM     11 CL   UNL     1       1.602   2.360   1.546  0.00  0.00    +0.000 Cl
ENDROOT
BRANCH   1  13
ATOM     12  C   UNL     1       3.266  -1.222  -0.145  0.00  0.00    +0.000 C 
ATOM     13  O   UNL     1       2.770   0.025   0.322  0.00  0.00    +0.000 OA
ENDBRANCH   1  13
BRANCH   8  14
ATOM     14  C   UNL     1       5.294   7.291  -1.432  0.00  0.00    +0.000 C 
ATOM     15  C   UNL     1       5.503   8.398  -0.707  0.00  0.00    +0.000 C 
ENDBRANCH   8  14
TORSDOF 2
