REMARK  Name = *****
REMARK  3 active torsions:
REMARK  status: ('A' for Active; 'I' for Inactive)
REMARK    1  A    between atoms: C_1  and  C_2
REMARK    2  A    between atoms: C_4  and  O_12
REMARK    3  A    between atoms: O_12  and  C_13
REMARK                            x       y       z     vdW  Elec       q    Type
REMARK                         _______ _______ _______ _____ _____    ______ ____
ROOT
ATOM      1  C   UNL     1       1.749  -2.336  -0.014  0.00  0.00    +0.000 C 
ATOM      2  C   UNL     1       1.347  -0.883  -0.001  0.00  0.00    +0.000 A 
ATOM      3  C   UNL     1       2.362   0.093   0.002  0.00  0.00    +0.000 A 
ATOM      4  C   UNL     1       2.046   1.450   0.012  0.00  0.00    +0.000 A 
ATOM      5  C   UNL     1       0.707   1.839  -0.012  0.00  0.00    +0.000 A 
ATOM      6  C   UNL     1      -0.328   0.893  -0.013  0.00  0.00    +0.000 A 
ATOM      7  C   UNL     1      -1.670   1.311  -0.023  0.00  0.00    +0.000 A 
ATOM      8  C   UNL     1      -2.711   0.385  -0.021  0.00  0.00    +0.000 A 
ATOM      9  C   UNL     1      -2.423  -0.974  -0.010  0.00  0.00    +0.000 A 
ATOM     10  C   UNL     1      -1.094  -1.405  -0.002  0.00  0.00    +0.000 A 
ATOM     11  C   UNL     1      -0.018  -0.489  -0.003  0.00  0.00    +0.000 A 
ENDROOT
BRANCH   4  12
ATOM     12  O   UNL     1       2.945   2.479   0.012  0.00  0.00    +0.000 OA
BRANCH  12  13
ATOM     13  C   UNL     1       4.237   2.174   0.512  0.00  0.00    +0.000 C 
ATOM     14  F   UNL     1       4.936   1.507  -0.439  0.00  0.00    +0.000 F 
ATOM     15  F   UNL     1       4.882   3.352   0.710  0.00  0.00    +0.000 F 
ENDBRANCH  12  13
ENDBRANCH   4  12
TORSDOF 2
