REMARK  Name = *****
REMARK  0 active torsions:
REMARK  status: ('A' for Active; 'I' for Inactive)
REMARK                            x       y       z     vdW  Elec       q    Type
REMARK                         _______ _______ _______ _____ _____    ______ ____
ROOT
ATOM      1  C   UNL     1       1.521   1.225  -0.002  0.00  0.00    +0.000 C 
ATOM      2  C   UNL     1       0.281   0.723  -0.002  0.00  0.00    +0.000 A 
ATOM      3  C   UNL     1       0.321  -0.733  -0.000  0.00  0.00    +0.000 A 
ATOM      4  C   UNL     1       1.584  -1.167   0.001  0.00  0.00    +0.000 C 
ATOM      5  C   UNL     1       2.404   0.051  -0.000  0.00  0.00    +0.000 C 
ATOM      6  O   UNL     1       3.618   0.084   0.001  0.00  0.00    +0.000 OA
ATOM      7  C   UNL     1      -0.918  -1.491  -0.000  0.00  0.00    +0.000 A 
ATOM      8  C   UNL     1      -2.095  -0.815  -0.001  0.00  0.00    +0.000 A 
ATOM      9  C   UNL     1      -2.135   0.672  -0.003  0.00  0.00    +0.000 A 
ATOM     10  C   UNL     1      -0.997   1.412  -0.003  0.00  0.00    +0.000 A 
ATOM     11 CL   UNL     1      -0.988   3.146  -0.006  0.00  0.00    +0.000 Cl
ATOM     12 CL   UNL     1      -3.693   1.460  -0.005  0.00  0.00    +0.000 Cl
ATOM     13 CL   UNL     1      -3.608  -1.687  -0.001  0.00  0.00    +0.000 Cl
ATOM     14 CL   UNL     1      -0.814  -3.221   0.002  0.00  0.00    +0.000 Cl
ENDROOT
TORSDOF 0
