REMARK  Name = *****
REMARK  3 active torsions:
REMARK  status: ('A' for Active; 'I' for Inactive)
REMARK    1  A    between atoms: C_1  and  C_2
REMARK    2  A    between atoms: C_2  and  C_3
REMARK    3  A    between atoms: C_3  and  N_4
REMARK                            x       y       z     vdW  Elec       q    Type
REMARK                         _______ _______ _______ _____ _____    ______ ____
ROOT
ATOM      1  N   UNL     1       4.520  -0.946  -1.134  0.00  0.00    +0.000 N 
ATOM      2  C   UNL     1       5.327  -2.098  -1.074  0.00  0.00    +0.000 A 
ATOM      3  C   UNL     1       6.661  -1.686  -1.067  0.00  0.00    +0.000 A 
ATOM      4  C   UNL     1       7.715  -2.569  -1.017  0.00  0.00    +0.000 A 
ATOM      5  C   UNL     1       7.385  -3.925  -0.971  0.00  0.00    +0.000 A 
ATOM      6  C   UNL     1       6.042  -4.358  -0.974  0.00  0.00    +0.000 A 
ATOM      7  C   UNL     1       4.990  -3.434  -1.025  0.00  0.00    +0.000 A 
ATOM      8 CL   UNL     1       8.646  -5.098  -0.909  0.00  0.00    +0.000 Cl
ATOM      9  N   UNL     1       6.689  -0.296  -1.109  0.00  0.00    +0.000 N 
ATOM     10  C   UNL     1       5.370   0.185  -1.138  0.00  0.00    +0.000 A 
ATOM     11  S   UNL     1       4.986   1.795  -1.166  0.00  0.00    +0.000 S 
ATOM     12  H   UNL     1       7.501   0.260  -1.117  0.00  0.00    +0.000 HD
ENDROOT
BRANCH   1  13
ATOM     13  C   UNL     1       3.068  -0.968  -1.107  0.00  0.00    +0.000 C 
BRANCH  13  15
ATOM     14  C   UNL     1       1.004  -1.001   0.334  0.00  0.00    +0.000 C 
ATOM     15  C   UNL     1       2.524  -0.991   0.320  0.00  0.00    +0.000 C 
ENDBRANCH  13  15
ENDBRANCH   1  13
TORSDOF 2
