REMARK  Name = *****
REMARK  1 active torsions:
REMARK  status: ('A' for Active; 'I' for Inactive)
REMARK    1  A    between atoms: C_11  and  C_13
REMARK                            x       y       z     vdW  Elec       q    Type
REMARK                         _______ _______ _______ _____ _____    ______ ____
ROOT
ATOM      1  C   UNL     1      -2.442   0.656  -0.013  0.00  0.00    +0.000 A 
ATOM      2  C   UNL     1      -1.243   1.374  -0.023  0.00  0.00    +0.000 A 
ATOM      3  C   UNL     1      -0.023   0.692  -0.011  0.00  0.00    +0.000 A 
ATOM      4  C   UNL     1      -0.017  -0.711   0.010  0.00  0.00    +0.000 A 
ATOM      5  C   UNL     1      -1.210  -1.432   0.020  0.00  0.00    +0.000 A 
ATOM      6  C   UNL     1      -2.419  -0.739   0.008  0.00  0.00    +0.000 A 
ATOM      7 CL   UNL     1      -3.901  -1.614   0.019  0.00  0.00    +0.000 Cl
ATOM      8  N   UNL     1       1.210  -1.388   0.020  0.00  0.00    +0.000 N 
ATOM      9  C   UNL     1       2.425  -0.754   0.011  0.00  0.00    +0.000 A 
ATOM     10  O   UNL     1       3.477  -1.387   0.020  0.00  0.00    +0.000 OA
ATOM     11  C   UNL     1       2.414   0.733  -0.012  0.00  0.00    +0.000 A 
ATOM     12  C   UNL     1       1.252   1.409  -0.022  0.00  0.00    +0.000 A 
ATOM     13  H   UNL     1       1.198  -2.373   0.036  0.00  0.00    +0.000 HD
ENDROOT
BRANCH  11  14
ATOM     14  C   UNL     1       3.688   1.488  -0.024  0.00  0.00    +0.000 C 
ATOM     15  O   UNL     1       3.747   2.713  -0.041  0.00  0.00    +0.000 OA
ENDBRANCH  11  14
TORSDOF 1
