REMARK  Name = *****
REMARK  0 active torsions:
REMARK  status: ('A' for Active; 'I' for Inactive)
REMARK                            x       y       z     vdW  Elec       q    Type
REMARK                         _______ _______ _______ _____ _____    ______ ____
ROOT
ATOM      1  C   UNL     1      -0.821   1.120  -0.070  0.00  0.00    +0.000 A 
ATOM      2  C   UNL     1      -1.359  -0.150  -0.109  0.00  0.00    +0.000 A 
ATOM      3  C   UNL     1      -0.574  -1.300  -0.104  0.00  0.00    +0.000 A 
ATOM      4  C   UNL     1       0.801  -1.226  -0.057  0.00  0.00    +0.000 A 
ATOM      5  C   UNL     1       1.380   0.052  -0.016  0.00  0.00    +0.000 A 
ATOM      6  C   UNL     1       0.574   1.218  -0.022  0.00  0.00    +0.000 A 
ATOM      7 CL   UNL     1       1.257   2.804   0.027  0.00  0.00    +0.000 Cl
ATOM      8 CL   UNL     1       3.107   0.135   0.042  0.00  0.00    +0.000 Cl
ATOM      9  N   UNL     1      -1.356  -2.451  -0.151  0.00  0.00    +0.000 N 
ATOM     10  C   UNL     1      -2.701  -2.136  -0.191  0.00  0.00    +0.000 C 
ATOM     11  O   UNL     1      -3.645  -2.892  -0.238  0.00  0.00    +0.000 OA
ATOM     12  C   UNL     1      -2.757  -0.582  -0.164  0.00  0.00    +0.000 C 
ATOM     13  O   UNL     1      -3.736   0.125  -0.183  0.00  0.00    +0.000 OA
ATOM     14  H   UNL     1      -0.997  -3.368  -0.155  0.00  0.00    +0.000 HD
ENDROOT
TORSDOF 0
