REMARK  Name = *****
REMARK  2 active torsions:
REMARK  status: ('A' for Active; 'I' for Inactive)
REMARK    1  A    between atoms: C_1  and  C_2
REMARK    2  A    between atoms: C_2  and  C_4
REMARK                            x       y       z     vdW  Elec       q    Type
REMARK                         _______ _______ _______ _____ _____    ______ ____
ROOT
ATOM      1  C   UNL     1       3.162  -1.103   0.633  0.00  0.00    +0.000 A 
ATOM      2  C   UNL     1       2.968  -2.469   0.749  0.00  0.00    +0.000 A 
ATOM      3  C   UNL     1       4.019  -3.013   1.537  0.00  0.00    +0.000 A 
ATOM      4  C   UNL     1       4.851  -1.955   1.893  0.00  0.00    +0.000 A 
ATOM      5  N   UNL     1       4.313  -0.817   1.335  0.00  0.00    +0.000 N 
ATOM      6  C   UNL     1       5.998  -2.121   2.677  0.00  0.00    +0.000 A 
ATOM      7  C   UNL     1       6.300  -3.417   3.109  0.00  0.00    +0.000 A 
ATOM      8  C   UNL     1       5.483  -4.492   2.765  0.00  0.00    +0.000 A 
ATOM      9  C   UNL     1       4.339  -4.311   1.981  0.00  0.00    +0.000 A 
ATOM     10 CL   UNL     1       5.886  -6.074   3.316  0.00  0.00    +0.000 Cl
ATOM     11  H   UNL     1       4.700   0.084   1.426  0.00  0.00    +0.000 HD
ENDROOT
BRANCH   1  13
ATOM     12  C   UNL     1       2.907   1.420   0.008  0.00  0.00    +0.000 C 
ATOM     13  C   UNL     1       2.466  -0.029  -0.014  0.00  0.00    +0.000 C 
ATOM     14  C   UNL     1       1.342  -0.335  -0.688  0.00  0.00    +0.000 C 
ENDBRANCH   1  13
TORSDOF 1
