REMARK  Name = *****
REMARK  1 active torsions:
REMARK  status: ('A' for Active; 'I' for Inactive)
REMARK    1  A    between atoms: C_8  and  C_10
REMARK                            x       y       z     vdW  Elec       q    Type
REMARK                         _______ _______ _______ _____ _____    ______ ____
ROOT
ATOM      1  C   UNL     1       0.922   1.440   0.004  0.00  0.00    +0.000 A 
ATOM      2  C   UNL     1       2.123   0.714   0.001  0.00  0.00    +0.000 A 
ATOM      3  C   UNL     1       2.142  -0.681  -0.002  0.00  0.00    +0.000 A 
ATOM      4  C   UNL     1       0.935  -1.379  -0.002  0.00  0.00    +0.000 A 
ATOM      5  C   UNL     1      -0.294  -0.697   0.002  0.00  0.00    +0.000 A 
ATOM      6  C   UNL     1      -0.264   0.696   0.004  0.00  0.00    +0.000 A 
ATOM      7  N   UNL     1      -1.584   1.067   0.006  0.00  0.00    +0.000 N 
ATOM      8  C   UNL     1      -2.359  -0.069   0.015  0.00  0.00    +0.000 A 
ATOM      9  N   UNL     1      -1.598  -1.145   0.003  0.00  0.00    +0.000 NA
ATOM     10 CL   UNL     1       0.867  -3.085  -0.006  0.00  0.00    +0.000 Cl
ATOM     11  I   UNL     1       3.929   1.757   0.001  0.00  0.00    +0.000 I 
ATOM     12  H   UNL     1      -1.920   1.993   0.002  0.00  0.00    +0.000 HD
ENDROOT
BRANCH   8  13
ATOM     13  C   UNL     1      -3.848  -0.043  -0.001  0.00  0.00    +0.000 C 
ATOM     14 CL   UNL     1      -4.504   1.416   0.781  0.00  0.00    +0.000 Cl
ENDBRANCH   8  13
TORSDOF 1
