REMARK  Name = *****
REMARK  5 active torsions:
REMARK  status: ('A' for Active; 'I' for Inactive)
REMARK    1  A    between atoms: C_1  and  C_2
REMARK    2  A    between atoms: C_2  and  C_3
REMARK    3  A    between atoms: C_9  and  C_15
REMARK    4  A    between atoms: C_10  and  O_13
REMARK    5  A    between atoms: O_13  and  C_14
REMARK                            x       y       z     vdW  Elec       q    Type
REMARK                         _______ _______ _______ _____ _____    ______ ____
ROOT
ATOM      1  C   UNL     1       2.823   1.305   0.733  0.00  0.00    +0.000 A 
ATOM      2  C   UNL     1       2.414   2.607   0.420  0.00  0.00    +0.000 A 
ATOM      3  C   UNL     1       2.958   3.725   1.076  0.00  0.00    +0.000 A 
ATOM      4  C   UNL     1       3.943   3.551   2.082  0.00  0.00    +0.000 A 
ATOM      5  C   UNL     1       4.335   2.228   2.386  0.00  0.00    +0.000 A 
ATOM      6  C   UNL     1       3.784   1.125   1.727  0.00  0.00    +0.000 A 
ATOM      7  C   UNL     1       4.482   4.699   2.732  0.00  0.00    +0.000 A 
ATOM      8  C   UNL     1       4.001   5.972   2.383  0.00  0.00    +0.000 A 
ATOM      9  C   UNL     1       3.052   6.133   1.377  0.00  0.00    +0.000 A 
ATOM     10  C   UNL     1       2.531   5.015   0.733  0.00  0.00    +0.000 A 
ATOM     11  C   UNL     1       5.545   4.557   3.793  0.00  0.00    +0.000 C 
ENDROOT
BRANCH   1  13
ATOM     12  C   UNL     1       0.949  -0.361   0.728  0.00  0.00    +0.000 C 
ATOM     13  C   UNL     1       2.212   0.120   0.031  0.00  0.00    +0.000 C 
ENDBRANCH   1  13
BRANCH   8  14
ATOM     14  O   UNL     1       4.519   7.090   2.987  0.00  0.00    +0.000 OA
ATOM     15  C   UNL     1       3.580   7.635   3.916  0.00  0.00    +0.000 C 
ENDBRANCH   8  14
TORSDOF 2
