REMARK  Name = *****
REMARK  4 active torsions:
REMARK  status: ('A' for Active; 'I' for Inactive)
REMARK    1  A    between atoms: C_1  and  C_2
REMARK    2  A    between atoms: C_3  and  C_13
REMARK    3  A    between atoms: C_9  and  O_11
REMARK    4  A    between atoms: O_11  and  C_12
REMARK                            x       y       z     vdW  Elec       q    Type
REMARK                         _______ _______ _______ _____ _____    ______ ____
ROOT
ATOM      1  C   UNL     1       0.976  -0.072   0.096  0.00  0.00    +0.000 C 
ATOM      2  C   UNL     1       2.467   0.056   0.095  0.00  0.00    +0.000 A 
ATOM      3  C   UNL     1       3.181   1.244   0.096  0.00  0.00    +0.000 A 
ATOM      4  S   UNL     1       4.870   0.978   0.094  0.00  0.00    +0.000 S 
ATOM      5  C   UNL     1       4.694  -0.727   0.094  0.00  0.00    +0.000 A 
ATOM      6  C   UNL     1       3.350  -1.098   0.094  0.00  0.00    +0.000 A 
ATOM      7  C   UNL     1       3.055  -2.485   0.094  0.00  0.00    +0.000 A 
ATOM      8  C   UNL     1       4.080  -3.442   0.094  0.00  0.00    +0.000 A 
ATOM      9  C   UNL     1       5.410  -3.046   0.095  0.00  0.00    +0.000 A 
ATOM     10  C   UNL     1       5.727  -1.685   0.094  0.00  0.00    +0.000 A 
ATOM     11  C   UNL     1       2.698   2.658   0.098  0.00  0.00    +0.000 C 
ENDROOT
BRANCH   9  12
ATOM     12  O   UNL     1       6.496  -3.879   0.096  0.00  0.00    +0.000 OA
ATOM     13  C   UNL     1       6.238  -5.277   0.099  0.00  0.00    +0.000 C 
ENDBRANCH   9  12
TORSDOF 1
