REMARK  Name = *****
REMARK  0 active torsions:
REMARK  status: ('A' for Active; 'I' for Inactive)
REMARK                            x       y       z     vdW  Elec       q    Type
REMARK                         _______ _______ _______ _____ _____    ______ ____
ROOT
ATOM      1  C   UNL     1      -2.376   0.544   0.151  0.00  0.00    +0.000 C 
ATOM      2  C   UNL     1      -2.311  -0.792   0.164  0.00  0.00    +0.000 C 
ATOM      3  S   UNL     1      -1.034  -1.748  -0.493  0.00  0.00    +0.000 S 
ATOM      4  C   UNL     1       0.303  -0.672  -0.232  0.00  0.00    +0.000 A 
ATOM      5  C   UNL     1       0.237   0.672  -0.245  0.00  0.00    +0.000 A 
ATOM      6  S   UNL     1      -1.198   1.608  -0.525  0.00  0.00    +0.000 S 
ATOM      7  S   UNL     1       1.736   1.536   0.002  0.00  0.00    +0.000 S 
ATOM      8  C   UNL     1       2.762   0.126   0.176  0.00  0.00    +0.000 A 
ATOM      9  S   UNL     1       4.403   0.208   0.455  0.00  0.00    +0.000 S 
ATOM     10  S   UNL     1       1.878  -1.381   0.030  0.00  0.00    +0.000 S 
ENDROOT
TORSDOF 0
