REMARK  Name = *****
REMARK  0 active torsions:
REMARK  status: ('A' for Active; 'I' for Inactive)
REMARK                            x       y       z     vdW  Elec       q    Type
REMARK                         _______ _______ _______ _____ _____    ______ ____
ROOT
ATOM      1  C   UNL     1       2.507  -0.881   0.002  0.00  0.00    +0.000 A 
ATOM      2  C   UNL     1       1.405  -1.759   0.000  0.00  0.00    +0.000 A 
ATOM      3  C   UNL     1       0.095  -1.249  -0.003  0.00  0.00    +0.000 A 
ATOM      4  C   UNL     1      -0.029   0.116  -0.007  0.00  0.00    +0.000 A 
ATOM      5  C   UNL     1       1.040   0.993  -0.010  0.00  0.00    +0.000 A 
ATOM      6  C   UNL     1       2.348   0.516  -0.001  0.00  0.00    +0.000 A 
ATOM      7  C   UNL     1       0.569   2.418  -0.006  0.00  0.00    +0.000 C 
ATOM      8  C   UNL     1      -0.982   2.211   0.003  0.00  0.00    +0.000 C 
ATOM      9  O   UNL     1      -1.788   3.139   0.028  0.00  0.00    +0.000 OA
ATOM     10  C   UNL     1      -1.233   0.789  -0.002  0.00  0.00    +0.000 A 
ATOM     11  C   UNL     1      -2.432   0.082   0.001  0.00  0.00    +0.000 A 
ATOM     12  C   UNL     1      -2.342  -1.321   0.001  0.00  0.00    +0.000 A 
ATOM     13  C   UNL     1      -1.101  -1.987  -0.000  0.00  0.00    +0.000 A 
ATOM     14 CL   UNL     1       1.049   3.279  -1.471  0.00  0.00    +0.000 Cl
ENDROOT
TORSDOF 0
