REMARK  Name = *****
REMARK  2 active torsions:
REMARK  status: ('A' for Active; 'I' for Inactive)
REMARK    1  A    between atoms: C_1  and  C_2
REMARK    2  A    between atoms: C_3  and  C_11
REMARK                            x       y       z     vdW  Elec       q    Type
REMARK                         _______ _______ _______ _____ _____    ______ ____
ROOT
ATOM      1  C   UNL     1       4.382   0.536  -0.794  0.00  0.00    +0.000 C 
ATOM      2  C   UNL     1       3.066  -0.098  -0.372  0.00  0.00    +0.000 C 
ATOM      3  C   UNL     1       3.169  -1.254   0.670  0.00  0.00    +0.000 C 
ATOM      4  C   UNL     1       2.316  -0.377   1.568  0.00  0.00    +0.000 C 
ATOM      5  C   UNL     1       2.284   0.649   0.694  0.00  0.00    +0.000 C 
ATOM      6  C   UNL     1       1.620   2.011   0.783  0.00  0.00    +0.000 C 
ATOM      7  C   UNL     1       0.370   1.962   1.657  0.00  0.00    +0.000 C 
ATOM      8  C   UNL     1       0.604   1.823   3.170  0.00  0.00    +0.000 C 
ATOM      9  C   UNL     1       1.680   0.845   3.670  0.00  0.00    +0.000 C 
ATOM     10  C   UNL     1       1.741  -0.509   2.967  0.00  0.00    +0.000 C 
ATOM     11  C   UNL     1       2.550  -2.579   0.256  0.00  0.00    +0.000 C 
ENDROOT
TORSDOF 0
