REMARK  Name = *****
REMARK  0 active torsions:
REMARK  status: ('A' for Active; 'I' for Inactive)
REMARK                            x       y       z     vdW  Elec       q    Type
REMARK                         _______ _______ _______ _____ _____    ______ ____
ROOT
ATOM      1  C   UNL     1      -1.300   1.397  -0.024  0.00  0.00    +0.000 A 
ATOM      2  C   UNL     1      -2.428   0.675  -0.040  0.00  0.00    +0.000 A 
ATOM      3  C   UNL     1      -2.396  -0.803  -0.048  0.00  0.00    +0.000 A 
ATOM      4  O   UNL     1      -3.433  -1.457  -0.062  0.00  0.00    +0.000 OA
ATOM      5  N   UNL     1      -1.161  -1.387  -0.038  0.00  0.00    +0.000 N 
ATOM      6  C   UNL     1       0.043  -0.666  -0.022  0.00  0.00    +0.000 A 
ATOM      7  C   UNL     1       0.017   0.742  -0.015  0.00  0.00    +0.000 A 
ATOM      8  C   UNL     1       1.243   1.429   0.001  0.00  0.00    +0.000 A 
ATOM      9  C   UNL     1       2.454   0.725   0.008  0.00  0.00    +0.000 A 
ATOM     10  C   UNL     1       2.448  -0.668   0.000  0.00  0.00    +0.000 A 
ATOM     11  C   UNL     1       1.247  -1.372  -0.015  0.00  0.00    +0.000 A 
ATOM     12 BR   UNL     1       4.086  -1.612   0.009  0.00  0.00    +0.000 Br
ATOM     13 BR   UNL     1       1.362   3.328   0.012  0.00  0.00    +0.000 Br
ATOM     14  H   UNL     1      -1.112  -2.370  -0.042  0.00  0.00    +0.000 HD
ENDROOT
TORSDOF 0
