REMARK  Name = *****
REMARK  4 active torsions:
REMARK  status: ('A' for Active; 'I' for Inactive)
REMARK    1  A    between atoms: C_1  and  C_2
REMARK    2  A    between atoms: C_9  and  O_13
REMARK    3  A    between atoms: C_10  and  C_12
REMARK    4  A    between atoms: O_13  and  C_14
REMARK                            x       y       z     vdW  Elec       q    Type
REMARK                         _______ _______ _______ _____ _____    ______ ____
ROOT
ATOM      1  C   UNL     1       3.121   0.712  -1.388  0.00  0.00    +0.000 C 
ATOM      2  C   UNL     1       2.645   0.084  -0.071  0.00  0.00    +0.000 C 
ATOM      3  C   UNL     1       3.042  -1.404  -0.073  0.00  0.00    +0.000 C 
ATOM      4  C   UNL     1       2.766  -2.042   1.280  0.00  0.00    +0.000 C 
ATOM      5  C   UNL     1       3.628  -1.383   2.350  0.00  0.00    +0.000 C 
ATOM      6  C   UNL     1       3.568   0.124   2.304  0.00  0.00    +0.000 A 
ATOM      7  C   UNL     1       3.136   0.817   1.170  0.00  0.00    +0.000 A 
ATOM      8  C   UNL     1       3.094   2.219   1.240  0.00  0.00    +0.000 A 
ATOM      9  C   UNL     1       3.518   2.956   2.368  0.00  0.00    +0.000 A 
ATOM     10  C   UNL     1       3.994   2.263   3.485  0.00  0.00    +0.000 A 
ATOM     11  C   UNL     1       4.004   0.848   3.425  0.00  0.00    +0.000 A 
ATOM     12  C   UNL     1       4.509   2.817   4.783  0.00  0.00    +0.000 C 
ENDROOT
BRANCH   9  13
ATOM     13  O   UNL     1       3.368   4.292   2.131  0.00  0.00    +0.000 OA
ATOM     14  C   UNL     1       3.726   5.266   3.086  0.00  0.00    +0.000 C 
ENDBRANCH   9  13
TORSDOF 1
