REMARK  Name = *****
REMARK  2 active torsions:
REMARK  status: ('A' for Active; 'I' for Inactive)
REMARK    1  A    between atoms: C_1  and  O_2
REMARK    2  A    between atoms: O_2  and  C_3
REMARK                            x       y       z     vdW  Elec       q    Type
REMARK                         _______ _______ _______ _____ _____    ______ ____
ROOT
ATOM      1  C   UNL     1       2.900   1.328  -0.373  0.00  0.00    +0.000 A 
ATOM      2  C   UNL     1       4.063   1.386  -1.159  0.00  0.00    +0.000 A 
ATOM      3  C   UNL     1       4.836   2.569  -1.298  0.00  0.00    +0.000 A 
ATOM      4  C   UNL     1       4.389   3.699  -0.606  0.00  0.00    +0.000 A 
ATOM      5  C   UNL     1       3.227   3.667   0.190  0.00  0.00    +0.000 A 
ATOM      6  C   UNL     1       2.495   2.478   0.296  0.00  0.00    +0.000 A 
ATOM      7  S   UNL     1       5.419   5.057  -0.864  0.00  0.00    +0.000 S 
ATOM      8  C   UNL     1       6.456   4.172  -1.882  0.00  0.00    +0.000 A 
ATOM      9  C   UNL     1       6.040   2.870  -2.032  0.00  0.00    +0.000 A 
ATOM     10 CL   UNL     1       4.654   0.022  -2.029  0.00  0.00    +0.000 Cl
ENDROOT
BRANCH   1  12
ATOM     11  C   UNL     1       1.056   0.049   0.447  0.00  0.00    +0.000 C 
ATOM     12  O   UNL     1       2.247   0.125  -0.326  0.00  0.00    +0.000 OA
ENDBRANCH   1  12
TORSDOF 1
