REMARK  Name = *****
REMARK  0 active torsions:
REMARK  status: ('A' for Active; 'I' for Inactive)
REMARK                            x       y       z     vdW  Elec       q    Type
REMARK                         _______ _______ _______ _____ _____    ______ ____
ROOT
ATOM      1  C   UNL     1       1.969   1.091   0.016  0.00  0.00    +0.000 A 
ATOM      2  C   UNL     1       0.643   1.532   0.017  0.00  0.00    +0.000 A 
ATOM      3  C   UNL     1      -0.345   0.570   0.002  0.00  0.00    +0.000 A 
ATOM      4  C   UNL     1      -0.066  -0.800  -0.015  0.00  0.00    +0.000 A 
ATOM      5  C   UNL     1       1.249  -1.244  -0.016  0.00  0.00    +0.000 A 
ATOM      6  C   UNL     1       2.265  -0.284  -0.000  0.00  0.00    +0.000 A 
ATOM      7 CL   UNL     1       3.909  -0.793  -0.000  0.00  0.00    +0.000 Cl
ATOM      8  C   UNL     1      -1.359  -1.563  -0.029  0.00  0.00    +0.000 C 
ATOM      9  C   UNL     1      -2.412  -0.433  -0.016  0.00  0.00    +0.000 C 
ATOM     10  O   UNL     1      -3.630  -0.523  -0.020  0.00  0.00    +0.000 OA
ATOM     11  N   UNL     1      -1.715   0.778   0.001  0.00  0.00    +0.000 N 
ATOM     12 BR   UNL     1      -1.559  -2.549  -1.676  0.00  0.00    +0.000 Br
ATOM     13 BR   UNL     1      -1.568  -2.597   1.586  0.00  0.00    +0.000 Br
ATOM     14  H   UNL     1      -2.142   1.665   0.011  0.00  0.00    +0.000 HD
ENDROOT
TORSDOF 0
