REMARK  Name = *****
REMARK  3 active torsions:
REMARK  status: ('A' for Active; 'I' for Inactive)
REMARK    1  A    between atoms: C_1  and  O_2
REMARK    2  A    between atoms: O_2  and  C_3
REMARK    3  A    between atoms: C_4  and  O_16
REMARK                            x       y       z     vdW  Elec       q    Type
REMARK                         _______ _______ _______ _____ _____    ______ ____
ROOT
ATOM      1  C   UNL     1       3.170   0.495   1.139  0.00  0.00    +0.000 A 
ATOM      2  C   UNL     1       4.092   1.413   0.610  0.00  0.00    +0.000 A 
ATOM      3  C   UNL     1       4.767   2.383   1.408  0.00  0.00    +0.000 A 
ATOM      4  C   UNL     1       5.700   3.359   0.932  0.00  0.00    +0.000 A 
ATOM      5  C   UNL     1       6.316   4.272   1.796  0.00  0.00    +0.000 A 
ATOM      6  C   UNL     1       6.031   4.250   3.151  0.00  0.00    +0.000 A 
ATOM      7  C   UNL     1       5.129   3.313   3.652  0.00  0.00    +0.000 A 
ATOM      8  C   UNL     1       4.486   2.370   2.807  0.00  0.00    +0.000 A 
ATOM      9  C   UNL     1       3.578   1.407   3.319  0.00  0.00    +0.000 A 
ATOM     10  C   UNL     1       2.935   0.475   2.504  0.00  0.00    +0.000 A 
ATOM     11 CL   UNL     1       1.902  -0.687   3.251  0.00  0.00    +0.000 Cl
ATOM     12 CL   UNL     1       4.844   3.374   5.364  0.00  0.00    +0.000 Cl
ATOM     13 CL   UNL     1       6.159   3.523  -0.734  0.00  0.00    +0.000 Cl
ENDROOT
BRANCH   1  15
ATOM     14  C   UNL     1       1.206  -0.154   0.079  0.00  0.00    +0.000 C 
ATOM     15  O   UNL     1       2.607  -0.388   0.249  0.00  0.00    +0.000 OA
ENDBRANCH   1  15
BRANCH   2  16
ATOM     16  O   UNL     1       4.320   1.335  -0.744  0.00  0.00    +0.000 OA
ATOM     17  H   UNL     1       3.870   0.693  -1.258  0.00  0.00    +0.000 HD
ENDBRANCH   2  16
TORSDOF 2
