REMARK  Name = *****
REMARK  0 active torsions:
REMARK  status: ('A' for Active; 'I' for Inactive)
REMARK                            x       y       z     vdW  Elec       q    Type
REMARK                         _______ _______ _______ _____ _____    ______ ____
ROOT
ATOM      1  C   UNL     1       2.474   0.233  -0.381  0.00  0.00    +0.000 C 
ATOM      2  C   UNL     1       1.605   1.481  -0.384  0.00  0.00    +0.000 C 
ATOM      3  C   UNL     1       0.204   0.958  -0.704  0.00  0.00    +0.000 C 
ATOM      4  C   UNL     1      -0.936   1.570   0.135  0.00  0.00    +0.000 C 
ATOM      5  C   UNL     1      -2.277   1.050  -0.420  0.00  0.00    +0.000 C 
ATOM      6  C   UNL     1      -2.285  -0.426   0.017  0.00  0.00    +0.000 C 
ATOM      7  C   UNL     1      -0.948  -0.573   0.769  0.00  0.00    +0.000 C 
ATOM      8  C   UNL     1      -0.846   0.793   1.452  0.00  0.00    +0.000 C 
ATOM      9  C   UNL     1       0.195  -0.528  -0.266  0.00  0.00    +0.000 C 
ATOM     10  C   UNL     1       1.592  -0.809   0.291  0.00  0.00    +0.000 C 
ENDROOT
TORSDOF 0
