REMARK  Name = *****
REMARK  3 active torsions:
REMARK  status: ('A' for Active; 'I' for Inactive)
REMARK    1  A    between atoms: C_1  and  O_2
REMARK    2  A    between atoms: O_2  and  C_3
REMARK    3  A    between atoms: C_10  and  C_13
REMARK                            x       y       z     vdW  Elec       q    Type
REMARK                         _______ _______ _______ _____ _____    ______ ____
ROOT
ATOM      1  C   UNL     1       3.138  -0.828  -0.954  0.00  0.00    +0.000 A 
ATOM      2  C   UNL     1       4.328  -1.440  -0.549  0.00  0.00    +0.000 A 
ATOM      3  C   UNL     1       5.090  -2.215  -1.439  0.00  0.00    +0.000 A 
ATOM      4  C   UNL     1       4.642  -2.379  -2.767  0.00  0.00    +0.000 A 
ATOM      5  C   UNL     1       3.443  -1.766  -3.163  0.00  0.00    +0.000 A 
ATOM      6  C   UNL     1       2.696  -0.997  -2.264  0.00  0.00    +0.000 A 
ATOM      7  C   UNL     1       5.404  -3.150  -3.661  0.00  0.00    +0.000 A 
ATOM      8  C   UNL     1       6.601  -3.757  -3.259  0.00  0.00    +0.000 A 
ATOM      9  C   UNL     1       7.036  -3.590  -1.939  0.00  0.00    +0.000 A 
ATOM     10  C   UNL     1       6.288  -2.827  -1.039  0.00  0.00    +0.000 A 
ENDROOT
BRANCH   1  12
ATOM     11  C   UNL     1       1.321   0.583  -0.356  0.00  0.00    +0.000 C 
ATOM     12  O   UNL     1       2.509  -0.101   0.020  0.00  0.00    +0.000 OA
ENDBRANCH   1  12
BRANCH   8  13
ATOM     13  C   UNL     1       7.415  -4.577  -4.223  0.00  0.00    +0.000 C 
ATOM     14  F   UNL     1       6.872  -4.646  -5.472  0.00  0.00    +0.000 F 
ENDBRANCH   8  13
TORSDOF 2
