REMARK  Name = *****
REMARK  4 active torsions:
REMARK  status: ('A' for Active; 'I' for Inactive)
REMARK    1  A    between atoms: C_1  and  O_2
REMARK    2  A    between atoms: O_2  and  C_3
REMARK    3  A    between atoms: C_9  and  O_11
REMARK    4  A    between atoms: O_11  and  C_12
REMARK                            x       y       z     vdW  Elec       q    Type
REMARK                         _______ _______ _______ _____ _____    ______ ____
ROOT
ATOM      1  C   UNL     1       3.018  -0.181  -1.270  0.00  0.00    +0.000 A 
ATOM      2  C   UNL     1       2.741   0.393  -2.497  0.00  0.00    +0.000 A 
ATOM      3  C   UNL     1       3.675  -0.017  -3.495  0.00  0.00    +0.000 A 
ATOM      4  C   UNL     1       4.620  -0.873  -3.022  0.00  0.00    +0.000 A 
ATOM      5  S   UNL     1       4.398  -1.209  -1.330  0.00  0.00    +0.000 S 
ATOM      6  C   UNL     1       5.555  -1.283  -4.019  0.00  0.00    +0.000 A 
ATOM      7  C   UNL     1       5.278  -0.706  -5.244  0.00  0.00    +0.000 A 
ATOM      8  S   UNL     1       3.896   0.320  -5.188  0.00  0.00    +0.000 S 
ENDROOT
BRANCH   1  10
ATOM      9  C   UNL     1       1.260   0.797  -0.051  0.00  0.00    +0.000 C 
ATOM     10  O   UNL     1       2.395  -0.058  -0.090  0.00  0.00    +0.000 OA
ENDBRANCH   1  10
BRANCH   7  11
ATOM     11  O   UNL     1       5.896  -0.819  -6.428  0.00  0.00    +0.000 OA
ATOM     12  C   UNL     1       7.037  -1.665  -6.474  0.00  0.00    +0.000 C 
ENDBRANCH   7  11
TORSDOF 2
