REMARK  Name = *****
REMARK  0 active torsions:
REMARK  status: ('A' for Active; 'I' for Inactive)
REMARK                            x       y       z     vdW  Elec       q    Type
REMARK                         _______ _______ _______ _____ _____    ______ ____
ROOT
ATOM      1  C   UNL     1       0.999   0.059   0.003  0.00  0.00    +0.000 C 
ATOM      2  C   UNL     1       2.337   0.062  -0.004  0.00  0.00    +0.000 C 
ATOM      3  C   UNL     1       3.201  -1.176   0.113  0.00  0.00    +0.000 C 
ATOM      4  C   UNL     1       4.563  -0.641  -0.313  0.00  0.00    +0.000 C 
ATOM      5  C   UNL     1       5.786  -1.414   0.156  0.00  0.00    +0.000 C 
ATOM      6  C   UNL     1       7.058  -0.664  -0.262  0.00  0.00    +0.000 C 
ATOM      7  C   UNL     1       7.059   0.805   0.182  0.00  0.00    +0.000 C 
ATOM      8  C   UNL     1       5.778   1.551  -0.215  0.00  0.00    +0.000 C 
ATOM      9  C   UNL     1       4.565   0.773   0.273  0.00  0.00    +0.000 C 
ATOM     10  C   UNL     1       3.194   1.303  -0.132  0.00  0.00    +0.000 C 
ENDROOT
TORSDOF 0
