REMARK  Name = *****
REMARK  0 active torsions:
REMARK  status: ('A' for Active; 'I' for Inactive)
REMARK                            x       y       z     vdW  Elec       q    Type
REMARK                         _______ _______ _______ _____ _____    ______ ____
ROOT
ATOM      1  C   UNL     1       1.468  -2.151  -0.005  0.00  0.00    +0.000 C 
ATOM      2  C   UNL     1       1.008  -0.886  -0.000  0.00  0.00    +0.000 C 
ATOM      3  C   UNL     1       2.061   0.189   0.006  0.00  0.00    +0.000 C 
ATOM      4  O   UNL     1       3.267  -0.036   0.014  0.00  0.00    +0.000 OA
ATOM      5  C   UNL     1       1.579   1.588   0.000  0.00  0.00    +0.000 C 
ATOM      6  C   UNL     1       0.277   1.892  -0.006  0.00  0.00    +0.000 C 
ATOM      7  C   UNL     1      -0.764   0.859  -0.007  0.00  0.00    +0.000 A 
ATOM      8  C   UNL     1      -2.110   1.257  -0.011  0.00  0.00    +0.000 A 
ATOM      9  C   UNL     1      -3.129   0.307  -0.010  0.00  0.00    +0.000 A 
ATOM     10  C   UNL     1      -2.810  -1.046  -0.004  0.00  0.00    +0.000 A 
ATOM     11  C   UNL     1      -1.472  -1.452  -0.001  0.00  0.00    +0.000 A 
ATOM     12  C   UNL     1      -0.428  -0.511  -0.003  0.00  0.00    +0.000 A 
ENDROOT
TORSDOF 0
