REMARK  Name = *****
REMARK  3 active torsions:
REMARK  status: ('A' for Active; 'I' for Inactive)
REMARK    1  A    between atoms: C_1  and  C_2
REMARK    2  A    between atoms: C_3  and  O_12
REMARK    3  A    between atoms: O_12  and  C_13
REMARK                            x       y       z     vdW  Elec       q    Type
REMARK                         _______ _______ _______ _____ _____    ______ ____
ROOT
ATOM      1  C   UNL     1       1.334  -2.703   0.592  0.00  0.00    +0.000 C 
ATOM      2  C   UNL     1       1.171  -1.220   0.372  0.00  0.00    +0.000 A 
ATOM      3  C   UNL     1       2.297  -0.380   0.376  0.00  0.00    +0.000 A 
ATOM      4  C   UNL     1       2.169   0.998   0.217  0.00  0.00    +0.000 A 
ATOM      5  C   UNL     1       0.912   1.556  -0.000  0.00  0.00    +0.000 A 
ATOM      6  C   UNL     1      -0.231   0.748  -0.049  0.00  0.00    +0.000 A 
ATOM      7  C   UNL     1      -1.490   1.327  -0.279  0.00  0.00    +0.000 A 
ATOM      8  C   UNL     1      -2.642   0.545  -0.330  0.00  0.00    +0.000 A 
ATOM      9  C   UNL     1      -2.550  -0.828  -0.151  0.00  0.00    +0.000 A 
ATOM     10  C   UNL     1      -1.305  -1.419   0.080  0.00  0.00    +0.000 A 
ATOM     11  C   UNL     1      -0.116  -0.655   0.138  0.00  0.00    +0.000 A 
ENDROOT
BRANCH   3  12
ATOM     12  O   UNL     1       3.540  -0.911   0.612  0.00  0.00    +0.000 OA
ATOM     13  C   UNL     1       4.337  -0.876  -0.573  0.00  0.00    +0.000 C 
ENDBRANCH   3  12
TORSDOF 1
