REMARK  Name = *****
REMARK  0 active torsions:
REMARK  status: ('A' for Active; 'I' for Inactive)
REMARK                            x       y       z     vdW  Elec       q    Type
REMARK                         _______ _______ _______ _____ _____    ______ ____
ROOT
ATOM      1  C   UNL     1       1.081   1.401   0.003  0.00  0.00    +0.000 A 
ATOM      2  C   UNL     1       2.221   0.618  -0.003  0.00  0.00    +0.000 A 
ATOM      3  S   UNL     1       1.857  -1.069  -0.009  0.00  0.00    +0.000 S 
ATOM      4  C   UNL     1       0.198  -0.748  -0.003  0.00  0.00    +0.000 A 
ATOM      5  C   UNL     1      -0.072   0.590   0.003  0.00  0.00    +0.000 A 
ATOM      6  S   UNL     1      -1.752   1.054   0.010  0.00  0.00    +0.000 S 
ATOM      7  C   UNL     1      -2.375  -0.617   0.003  0.00  0.00    +0.000 A 
ATOM      8  S   UNL     1      -4.010  -0.966   0.004  0.00  0.00    +0.000 S 
ATOM      9  S   UNL     1      -1.123  -1.888  -0.004  0.00  0.00    +0.000 S 
ENDROOT
TORSDOF 0
