REMARK  Name = *****
REMARK  2 active torsions:
REMARK  status: ('A' for Active; 'I' for Inactive)
REMARK    1  A    between atoms: C_1  and  C_2
REMARK    2  A    between atoms: C_2  and  C_15
REMARK                            x       y       z     vdW  Elec       q    Type
REMARK                         _______ _______ _______ _____ _____    ______ ____
ROOT
ATOM      1  C   UNL     1       0.852  -0.108   0.059  0.00  0.00    +0.000 C 
ATOM      2  C   UNL     1       2.384  -0.017   0.052  0.00  0.00    +0.000 C 
ATOM      3  C   UNL     1       2.945  -0.798  -1.118  0.00  0.00    +0.000 A 
ATOM      4  C   UNL     1       3.367  -0.099  -2.247  0.00  0.00    +0.000 A 
ATOM      5  C   UNL     1       3.834  -0.780  -3.382  0.00  0.00    +0.000 A 
ATOM      6  C   UNL     1       3.889  -2.172  -3.395  0.00  0.00    +0.000 A 
ATOM      7  C   UNL     1       3.465  -2.876  -2.273  0.00  0.00    +0.000 A 
ATOM      8  C   UNL     1       2.990  -2.203  -1.145  0.00  0.00    +0.000 A 
ATOM      9 CL   UNL     1       3.510  -4.596  -2.279  0.00  0.00    +0.000 Cl
ATOM     10 CL   UNL     1       4.356   0.080  -4.786  0.00  0.00    +0.000 Cl
ATOM     11  N   UNL     1       3.303   1.291  -2.226  0.00  0.00    +0.000 N 
ATOM     12  C   UNL     1       2.997   2.047  -1.136  0.00  0.00    +0.000 C 
ATOM     13  O   UNL     1       3.025   3.272  -1.189  0.00  0.00    +0.000 OA
ATOM     14  O   UNL     1       2.718   1.391   0.014  0.00  0.00    +0.000 OA
ATOM     15  C   UNL     1       2.941  -0.513   1.395  0.00  0.00    +0.000 C 
ATOM     16  H   UNL     1       3.494   1.765  -3.067  0.00  0.00    +0.000 HD
ENDROOT
TORSDOF 0
