REMARK  Name = *****
REMARK  3 active torsions:
REMARK  status: ('A' for Active; 'I' for Inactive)
REMARK    1  A    between atoms: C_1  and  C_2
REMARK    2  A    between atoms: C_5  and  C_12
REMARK    3  A    between atoms: C_8  and  C_11
REMARK                            x       y       z     vdW  Elec       q    Type
REMARK                         _______ _______ _______ _____ _____    ______ ____
ROOT
ATOM      1  C   UNL     1       1.096  -0.054   0.030  0.00  0.00    +0.000 C 
ATOM      2  C   UNL     1       2.603  -0.101   0.025  0.00  0.00    +0.000 A 
ATOM      3  C   UNL     1       3.360  -1.309   0.023  0.00  0.00    +0.000 A 
ATOM      4  C   UNL     1       2.920  -2.682   0.026  0.00  0.00    +0.000 A 
ATOM      5  C   UNL     1       3.950  -3.593   0.023  0.00  0.00    +0.000 A 
ATOM      6  S   UNL     1       5.461  -2.817   0.017  0.00  0.00    +0.000 S 
ATOM      7  C   UNL     1       4.761  -1.232   0.018  0.00  0.00    +0.000 A 
ATOM      8  C   UNL     1       5.450   0.007   0.015  0.00  0.00    +0.000 A 
ATOM      9  C   UNL     1       4.674   1.177   0.017  0.00  0.00    +0.000 A 
ATOM     10  C   UNL     1       3.288   1.126   0.022  0.00  0.00    +0.000 A 
ATOM     11  C   UNL     1       6.949   0.154   0.010  0.00  0.00    +0.000 C 
ATOM     12  C   UNL     1       3.874  -5.080   0.024  0.00  0.00    +0.000 C 
ENDROOT
TORSDOF 0
