REMARK  Name = *****
REMARK  4 active torsions:
REMARK  status: ('A' for Active; 'I' for Inactive)
REMARK    1  A    between atoms: C_1  and  C_2
REMARK    2  A    between atoms: C_7  and  C_8
REMARK    3  A    between atoms: C_10  and  O_13
REMARK    4  A    between atoms: O_13  and  C_14
REMARK                            x       y       z     vdW  Elec       q    Type
REMARK                         _______ _______ _______ _____ _____    ______ ____
ROOT
ATOM      1  C   UNL     1       0.834  -0.037   0.133  0.00  0.00    +0.000 C 
ATOM      2  C   UNL     1       2.337  -0.006   0.079  0.00  0.00    +0.000 A 
ATOM      3  C   UNL     1       3.050  -1.216   0.057  0.00  0.00    +0.000 A 
ATOM      4  C   UNL     1       4.453  -1.242   0.005  0.00  0.00    +0.000 A 
ATOM      5  C   UNL     1       5.162  -0.026  -0.026  0.00  0.00    +0.000 A 
ATOM      6  C   UNL     1       4.449   1.184  -0.004  0.00  0.00    +0.000 A 
ATOM      7  C   UNL     1       3.045   1.209   0.047  0.00  0.00    +0.000 A 
ATOM      8  C   UNL     1       2.333   2.534   0.068  0.00  0.00    +0.000 C 
ATOM      9  C   UNL     1       6.566  -0.052  -0.078  0.00  0.00    +0.000 A 
ATOM     10  C   UNL     1       7.271  -1.259  -0.101  0.00  0.00    +0.000 A 
ATOM     11  C   UNL     1       6.565  -2.460  -0.070  0.00  0.00    +0.000 A 
ATOM     12  C   UNL     1       5.167  -2.450  -0.017  0.00  0.00    +0.000 A 
ENDROOT
BRANCH  10  13
ATOM     13  O   UNL     1       8.631  -1.126  -0.154  0.00  0.00    +0.000 OA
ATOM     14  C   UNL     1       9.393  -2.326  -0.197  0.00  0.00    +0.000 C 
ENDBRANCH  10  13
TORSDOF 1
