REMARK  Name = *****
REMARK  0 active torsions:
REMARK  status: ('A' for Active; 'I' for Inactive)
REMARK                            x       y       z     vdW  Elec       q    Type
REMARK                         _______ _______ _______ _____ _____    ______ ____
ROOT
ATOM      1  C   UNL     1       1.204   1.389  -0.007  0.00  0.00    +0.000 A 
ATOM      2  C   UNL     1       2.418   0.709  -0.020  0.00  0.00    +0.000 A 
ATOM      3  C   UNL     1       2.451  -0.683  -0.017  0.00  0.00    +0.000 A 
ATOM      4  C   UNL     1       1.254  -1.407  -0.001  0.00  0.00    +0.000 A 
ATOM      5  C   UNL     1       0.015  -0.744   0.013  0.00  0.00    +0.000 A 
ATOM      6  C   UNL     1       0.013   0.662   0.010  0.00  0.00    +0.000 A 
ATOM      7  N   UNL     1      -1.204   1.354   0.024  0.00  0.00    +0.000 N 
ATOM      8  C   UNL     1      -2.435   0.747   0.042  0.00  0.00    +0.000 A 
ATOM      9  O   UNL     1      -3.458   1.424   0.055  0.00  0.00    +0.000 OA
ATOM     10  C   UNL     1      -2.442  -0.751   0.046  0.00  0.00    +0.000 A 
ATOM     11  C   UNL     1      -1.285  -1.431   0.032  0.00  0.00    +0.000 A 
ATOM     12 BR   UNL     1      -4.092  -1.627   0.071  0.00  0.00    +0.000 Br
ATOM     13 CL   UNL     1       1.379  -3.133   0.002  0.00  0.00    +0.000 Cl
ATOM     14 CL   UNL     1       3.891   1.597  -0.039  0.00  0.00    +0.000 Cl
ATOM     15  H   UNL     1      -1.175   2.338   0.020  0.00  0.00    +0.000 HD
ENDROOT
TORSDOF 0
