REMARK  Name = *****
REMARK  2 active torsions:
REMARK  status: ('A' for Active; 'I' for Inactive)
REMARK    1  A    between atoms: C_1  and  O_2
REMARK    2  A    between atoms: O_2  and  C_3
REMARK                            x       y       z     vdW  Elec       q    Type
REMARK                         _______ _______ _______ _____ _____    ______ ____
ROOT
ATOM      1  C   UNL     1       3.090  -1.228   0.619  0.00  0.00    +0.000 A 
ATOM      2  C   UNL     1       4.172  -1.054   1.488  0.00  0.00    +0.000 A 
ATOM      3  C   UNL     1       4.843  -2.154   2.047  0.00  0.00    +0.000 A 
ATOM      4  C   UNL     1       5.929  -1.985   2.921  0.00  0.00    +0.000 A 
ATOM      5  C   UNL     1       6.584  -3.090   3.468  0.00  0.00    +0.000 A 
ATOM      6  C   UNL     1       6.161  -4.377   3.149  0.00  0.00    +0.000 A 
ATOM      7  C   UNL     1       5.083  -4.562   2.282  0.00  0.00    +0.000 A 
ATOM      8  C   UNL     1       4.414  -3.460   1.724  0.00  0.00    +0.000 A 
ATOM      9  C   UNL     1       3.328  -3.625   0.851  0.00  0.00    +0.000 A 
ATOM     10  C   UNL     1       2.671  -2.518   0.302  0.00  0.00    +0.000 A 
ENDROOT
BRANCH   1  12
ATOM     11  C   UNL     1       1.425  -0.188  -0.723  0.00  0.00    +0.000 C 
ATOM     12  O   UNL     1       2.538  -0.066   0.154  0.00  0.00    +0.000 OA
ENDBRANCH   1  12
TORSDOF 1
