REMARK  Name = *****
REMARK  3 active torsions:
REMARK  status: ('A' for Active; 'I' for Inactive)
REMARK    1  A    between atoms: C_1  and  C_2
REMARK    2  A    between atoms: C_9  and  O_11
REMARK    3  A    between atoms: O_11  and  C_12
REMARK                            x       y       z     vdW  Elec       q    Type
REMARK                         _______ _______ _______ _____ _____    ______ ____
ROOT
ATOM      1  C   UNL     1       1.047  -0.031   0.063  0.00  0.00    +0.000 C 
ATOM      2  C   UNL     1       2.538   0.049   0.063  0.00  0.00    +0.000 A 
ATOM      3  C   UNL     1       3.251   1.231   0.064  0.00  0.00    +0.000 A 
ATOM      4  S   UNL     1       4.936   0.988   0.064  0.00  0.00    +0.000 S 
ATOM      5  C   UNL     1       4.763  -0.723   0.064  0.00  0.00    +0.000 A 
ATOM      6  C   UNL     1       3.418  -1.100   0.063  0.00  0.00    +0.000 A 
ATOM      7  C   UNL     1       3.127  -2.487   0.061  0.00  0.00    +0.000 A 
ATOM      8  C   UNL     1       4.155  -3.440   0.062  0.00  0.00    +0.000 A 
ATOM      9  C   UNL     1       5.484  -3.040   0.064  0.00  0.00    +0.000 A 
ATOM     10  C   UNL     1       5.799  -1.678   0.064  0.00  0.00    +0.000 A 
ENDROOT
BRANCH   9  11
ATOM     11  O   UNL     1       6.572  -3.871   0.065  0.00  0.00    +0.000 OA
ATOM     12  C   UNL     1       6.316  -5.270   0.065  0.00  0.00    +0.000 C 
ENDBRANCH   9  11
TORSDOF 1
