REMARK  Name = *****
REMARK  0 active torsions:
REMARK  status: ('A' for Active; 'I' for Inactive)
REMARK                            x       y       z     vdW  Elec       q    Type
REMARK                         _______ _______ _______ _____ _____    ______ ____
ROOT
ATOM      1  C   UNL     1       0.926   1.432  -0.033  0.00  0.00    +0.000 A 
ATOM      2  C   UNL     1      -0.233   0.697   0.016  0.00  0.00    +0.000 A 
ATOM      3  C   UNL     1      -0.233  -0.697   0.016  0.00  0.00    +0.000 A 
ATOM      4  C   UNL     1       0.926  -1.432  -0.033  0.00  0.00    +0.000 A 
ATOM      5  C   UNL     1       2.127  -0.710  -0.084  0.00  0.00    +0.000 A 
ATOM      6  C   UNL     1       2.127   0.710  -0.084  0.00  0.00    +0.000 A 
ATOM      7 CL   UNL     1       3.595   1.623  -0.147  0.00  0.00    +0.000 Cl
ATOM      8 CL   UNL     1       3.595  -1.623  -0.147  0.00  0.00    +0.000 Cl
ATOM      9  N   UNL     1      -1.554  -1.125   0.071  0.00  0.00    +0.000 N 
ATOM     10  C   UNL     1      -2.393   0.000   0.105  0.00  0.00    +0.000 A 
ATOM     11  O   UNL     1      -3.609   0.000   0.155  0.00  0.00    +0.000 OA
ATOM     12  N   UNL     1      -1.554   1.125   0.071  0.00  0.00    +0.000 N 
ATOM     13  H   UNL     1      -1.853  -2.063   0.083  0.00  0.00    +0.000 HD
ATOM     14  H   UNL     1      -1.853   2.063   0.083  0.00  0.00    +0.000 HD
ENDROOT
TORSDOF 0
