REMARK  Name = *****
REMARK  2 active torsions:
REMARK  status: ('A' for Active; 'I' for Inactive)
REMARK    1  A    between atoms: C_1  and  O_2
REMARK    2  A    between atoms: O_2  and  N_3
REMARK                            x       y       z     vdW  Elec       q    Type
REMARK                         _______ _______ _______ _____ _____    ______ ____
ROOT
ATOM      1  N   UNL     1       3.309  -0.627  -0.957  0.00  0.00    +0.000 NA
ATOM      2  C   UNL     1       4.601  -0.591  -0.892  0.00  0.00    +0.000 C 
ATOM      3  C   UNL     1       5.534  -0.049   0.107  0.00  0.00    +0.000 A 
ATOM      4  C   UNL     1       6.821  -0.308  -0.373  0.00  0.00    +0.000 A 
ATOM      5  C   UNL     1       7.953   0.075   0.333  0.00  0.00    +0.000 A 
ATOM      6  C   UNL     1       7.764   0.736   1.555  0.00  0.00    +0.000 A 
ATOM      7  C   UNL     1       6.464   0.996   2.036  0.00  0.00    +0.000 A 
ATOM      8  C   UNL     1       5.334   0.602   1.310  0.00  0.00    +0.000 A 
ATOM      9 CL   UNL     1       9.091   1.264   2.529  0.00  0.00    +0.000 Cl
ATOM     10 CL   UNL     1       9.516  -0.272  -0.310  0.00  0.00    +0.000 Cl
ATOM     11  N   UNL     1       6.775  -0.973  -1.600  0.00  0.00    +0.000 N 
ATOM     12  C   UNL     1       5.478  -1.193  -2.003  0.00  0.00    +0.000 C 
ATOM     13  O   UNL     1       5.091  -1.740  -3.010  0.00  0.00    +0.000 OA
ATOM     14  H   UNL     1       7.570  -1.249  -2.112  0.00  0.00    +0.000 HD
ENDROOT
BRANCH   1  16
ATOM     15  C   UNL     1       1.290  -0.117  -0.014  0.00  0.00    +0.000 C 
ATOM     16  O   UNL     1       2.702  -0.027   0.150  0.00  0.00    +0.000 OA
ENDBRANCH   1  16
TORSDOF 1
