REMARK  Name = *****
REMARK  2 active torsions:
REMARK  status: ('A' for Active; 'I' for Inactive)
REMARK    1  A    between atoms: C_1  and  O_2
REMARK    2  A    between atoms: O_2  and  C_3
REMARK                            x       y       z     vdW  Elec       q    Type
REMARK                         _______ _______ _______ _____ _____    ______ ____
ROOT
ATOM      1  C   UNL     1       3.063  -1.263   0.351  0.00  0.00    +0.000 A 
ATOM      2  C   UNL     1       4.216  -1.154   1.134  0.00  0.00    +0.000 A 
ATOM      3  C   UNL     1       4.995  -2.280   1.424  0.00  0.00    +0.000 A 
ATOM      4  C   UNL     1       4.614  -3.534   0.920  0.00  0.00    +0.000 A 
ATOM      5  C   UNL     1       5.493  -4.736   1.165  0.00  0.00    +0.000 C 
ATOM      6  C   UNL     1       6.292  -4.636   2.472  0.00  0.00    +0.000 C 
ATOM      7  C   UNL     1       6.808  -3.247   2.733  0.00  0.00    +0.000 C 
ATOM      8  C   UNL     1       6.209  -2.154   2.238  0.00  0.00    +0.000 C 
ATOM      9 BR   UNL     1       8.329  -3.138   3.810  0.00  0.00    +0.000 Br
ATOM     10  C   UNL     1       3.467  -3.640   0.126  0.00  0.00    +0.000 A 
ATOM     11  C   UNL     1       2.691  -2.511  -0.151  0.00  0.00    +0.000 A 
ENDROOT
BRANCH   1  13
ATOM     12  C   UNL     1       1.223  -0.138  -0.652  0.00  0.00    +0.000 C 
ATOM     13  O   UNL     1       2.397  -0.085   0.150  0.00  0.00    +0.000 OA
ENDBRANCH   1  13
TORSDOF 1
