REMARK  Name = *****
REMARK  0 active torsions:
REMARK  status: ('A' for Active; 'I' for Inactive)
REMARK                            x       y       z     vdW  Elec       q    Type
REMARK                         _______ _______ _______ _____ _____    ______ ____
ROOT
ATOM      1  C   UNL     1       1.206  -1.244  -0.008  0.00  0.00    +0.000 A 
ATOM      2  C   UNL     1       2.238  -0.301   0.001  0.00  0.00    +0.000 A 
ATOM      3  C   UNL     1       1.970   1.079   0.009  0.00  0.00    +0.000 A 
ATOM      4  C   UNL     1       0.649   1.534   0.009  0.00  0.00    +0.000 A 
ATOM      5  C   UNL     1      -0.366   0.594   0.001  0.00  0.00    +0.000 A 
ATOM      6  C   UNL     1      -0.098  -0.775  -0.008  0.00  0.00    +0.000 A 
ATOM      7  C   UNL     1      -1.390  -1.549  -0.017  0.00  0.00    +0.000 C 
ATOM      8  C   UNL     1      -2.442  -0.399  -0.009  0.00  0.00    +0.000 C 
ATOM      9  O   UNL     1      -3.661  -0.486  -0.010  0.00  0.00    +0.000 OA
ATOM     10  N   UNL     1      -1.740   0.808  -0.000  0.00  0.00    +0.000 N 
ATOM     11  F   UNL     1      -1.511  -2.347  -1.115  0.00  0.00    +0.000 F 
ATOM     12  F   UNL     1      -1.514  -2.365   1.068  0.00  0.00    +0.000 F 
ATOM     13 BR   UNL     1       0.285   3.385   0.020  0.00  0.00    +0.000 Br
ATOM     14 BR   UNL     1       4.034  -0.895   0.002  0.00  0.00    +0.000 Br
ATOM     15  H   UNL     1      -2.163   1.696   0.005  0.00  0.00    +0.000 HD
ENDROOT
TORSDOF 0
