REMARK  Name = *****
REMARK  2 active torsions:
REMARK  status: ('A' for Active; 'I' for Inactive)
REMARK    1  A    between atoms: C_1  and  C_2
REMARK    2  A    between atoms: C_2  and  N_3
REMARK                            x       y       z     vdW  Elec       q    Type
REMARK                         _______ _______ _______ _____ _____    ______ ____
ROOT
ATOM      1  N   UNL     1       2.901  -1.024  -0.972  0.00  0.00    +0.000 N 
ATOM      2  C   UNL     1       2.670  -2.406  -0.979  0.00  0.00    +0.000 A 
ATOM      3  C   UNL     1       2.078  -3.226  -0.044  0.00  0.00    +0.000 A 
ATOM      4  C   UNL     1       1.995  -4.594  -0.351  0.00  0.00    +0.000 A 
ATOM      5  C   UNL     1       2.500  -5.098  -1.576  0.00  0.00    +0.000 A 
ATOM      6  C   UNL     1       3.095  -4.242  -2.513  0.00  0.00    +0.000 A 
ATOM      7  C   UNL     1       3.163  -2.909  -2.183  0.00  0.00    +0.000 A 
ATOM      8  N   UNL     1       3.682  -1.850  -2.918  0.00  0.00    +0.000 N 
ATOM      9  C   UNL     1       3.516  -0.661  -2.189  0.00  0.00    +0.000 A 
ATOM     10  O   UNL     1       3.841   0.453  -2.562  0.00  0.00    +0.000 OA
ATOM     11 BR   UNL     1       2.412  -6.940  -2.041  0.00  0.00    +0.000 Br
ATOM     12 BR   UNL     1       1.175  -5.709   0.955  0.00  0.00    +0.000 Br
ATOM     13  H   UNL     1       4.099  -1.922  -3.807  0.00  0.00    +0.000 HD
ENDROOT
BRANCH   1  15
ATOM     14  C   UNL     1       1.063   0.381  -0.153  0.00  0.00    +0.000 C 
ATOM     15  C   UNL     1       2.491  -0.098   0.052  0.00  0.00    +0.000 C 
ENDBRANCH   1  15
TORSDOF 1
