REMARK  Name = *****
REMARK  0 active torsions:
REMARK  status: ('A' for Active; 'I' for Inactive)
REMARK                            x       y       z     vdW  Elec       q    Type
REMARK                         _______ _______ _______ _____ _____    ______ ____
ROOT
ATOM      1  C   UNL     1       2.205   0.707   0.000  0.00  0.00    +0.000 A 
ATOM      2  C   UNL     1       2.230  -0.679  -0.000  0.00  0.00    +0.000 A 
ATOM      3  C   UNL     1       1.037  -1.411   0.000  0.00  0.00    +0.000 A 
ATOM      4  C   UNL     1      -0.206  -0.732   0.001  0.00  0.00    +0.000 A 
ATOM      5  C   UNL     1      -0.261   0.673   0.001  0.00  0.00    +0.000 A 
ATOM      6  C   UNL     1       0.977   1.364   0.001  0.00  0.00    +0.000 A 
ATOM      7 CL   UNL     1       0.901   3.076   0.001  0.00  0.00    +0.000 Cl
ATOM      8  C   UNL     1      -1.627   1.135   0.001  0.00  0.00    +0.000 A 
ATOM      9  C   UNL     1      -2.545   0.114   0.001  0.00  0.00    +0.000 A 
ATOM     10  S   UNL     1      -1.797  -1.413   0.001  0.00  0.00    +0.000 S 
ATOM     11 CL   UNL     1       1.130  -3.134   0.000  0.00  0.00    +0.000 Cl
ENDROOT
TORSDOF 0
