REMARK  Name = *****
REMARK  3 active torsions:
REMARK  status: ('A' for Active; 'I' for Inactive)
REMARK    1  A    between atoms: C_1  and  O_2
REMARK    2  A    between atoms: O_2  and  C_3
REMARK    3  A    between atoms: C_3  and  C_5
REMARK                            x       y       z     vdW  Elec       q    Type
REMARK                         _______ _______ _______ _____ _____    ______ ____
ROOT
ATOM      1  C   UNL     1       4.650   0.591  -1.193  0.00  0.00    +0.000 A 
ATOM      2  C   UNL     1       5.531   1.596  -1.554  0.00  0.00    +0.000 A 
ATOM      3  C   UNL     1       6.854   1.151  -1.285  0.00  0.00    +0.000 A 
ATOM      4  C   UNL     1       6.753  -0.136  -0.758  0.00  0.00    +0.000 A 
ATOM      5  N   UNL     1       5.415  -0.448  -0.713  0.00  0.00    +0.000 N 
ATOM      6  C   UNL     1       7.872  -0.887  -0.377  0.00  0.00    +0.000 A 
ATOM      7  C   UNL     1       9.127  -0.295  -0.543  0.00  0.00    +0.000 A 
ATOM      8  C   UNL     1       9.263   0.988  -1.067  0.00  0.00    +0.000 A 
ATOM      9  C   UNL     1       8.131   1.724  -1.442  0.00  0.00    +0.000 A 
ATOM     10 CL   UNL     1      10.537  -1.176  -0.090  0.00  0.00    +0.000 Cl
ATOM     11  H   UNL     1       5.052  -1.301  -0.381  0.00  0.00    +0.000 HD
ENDROOT
BRANCH   1  12
ATOM     12  C   UNL     1       3.212   0.518  -1.255  0.00  0.00    +0.000 C 
ATOM     13  O   UNL     1       2.554  -0.448  -0.892  0.00  0.00    +0.000 OA
BRANCH  12  15
ATOM     14  C   UNL     1       1.279   1.681  -1.868  0.00  0.00    +0.000 C 
ATOM     15  O   UNL     1       2.703   1.670  -1.770  0.00  0.00    +0.000 OA
ENDBRANCH  12  15
ENDBRANCH   1  12
TORSDOF 2
