REMARK  Name = *****
REMARK  0 active torsions:
REMARK  status: ('A' for Active; 'I' for Inactive)
REMARK                            x       y       z     vdW  Elec       q    Type
REMARK                         _______ _______ _______ _____ _____    ______ ____
ROOT
ATOM      1  C   UNL     1      -0.819   1.127  -0.078  0.00  0.00    +0.000 A 
ATOM      2  C   UNL     1      -1.354  -0.144  -0.116  0.00  0.00    +0.000 A 
ATOM      3  C   UNL     1      -0.567  -1.292  -0.112  0.00  0.00    +0.000 A 
ATOM      4  C   UNL     1       0.809  -1.215  -0.068  0.00  0.00    +0.000 A 
ATOM      5  C   UNL     1       1.384   0.066  -0.029  0.00  0.00    +0.000 A 
ATOM      6  C   UNL     1       0.575   1.229  -0.034  0.00  0.00    +0.000 A 
ATOM      7 CL   UNL     1       1.247   2.821   0.013  0.00  0.00    +0.000 Cl
ATOM      8 BR   UNL     1       3.283   0.152   0.030  0.00  0.00    +0.000 Br
ATOM      9  N   UNL     1      -1.345  -2.445  -0.156  0.00  0.00    +0.000 N 
ATOM     10  C   UNL     1      -2.691  -2.134  -0.193  0.00  0.00    +0.000 C 
ATOM     11  O   UNL     1      -3.633  -2.892  -0.237  0.00  0.00    +0.000 OA
ATOM     12  C   UNL     1      -2.751  -0.580  -0.168  0.00  0.00    +0.000 C 
ATOM     13  O   UNL     1      -3.732   0.125  -0.185  0.00  0.00    +0.000 OA
ATOM     14  H   UNL     1      -0.985  -3.361  -0.161  0.00  0.00    +0.000 HD
ENDROOT
TORSDOF 0
