REMARK  Name = *****
REMARK  0 active torsions:
REMARK  status: ('A' for Active; 'I' for Inactive)
REMARK                            x       y       z     vdW  Elec       q    Type
REMARK                         _______ _______ _______ _____ _____    ______ ____
ROOT
ATOM      1  C   UNL     1      -2.107  -1.009  -0.238  0.00  0.00    +0.000 C 
ATOM      2  C   UNL     1      -2.300   0.455   0.184  0.00  0.00    +0.000 C 
ATOM      3  C   UNL     1      -1.126   1.354  -0.225  0.00  0.00    +0.000 C 
ATOM      4  C   UNL     1       0.176   0.748   0.276  0.00  0.00    +0.000 C 
ATOM      5  C   UNL     1       1.468   1.432  -0.145  0.00  0.00    +0.000 C 
ATOM      6  C   UNL     1       2.535   0.338   0.023  0.00  0.00    +0.000 C 
ATOM      7  C   UNL     1       1.780  -0.994   0.161  0.00  0.00    +0.000 C 
ATOM      8  C   UNL     1       0.364  -0.660  -0.284  0.00  0.00    +0.000 C 
ATOM      9  C   UNL     1      -0.749  -1.579   0.193  0.00  0.00    +0.000 C 
ENDROOT
TORSDOF 0
