REMARK  Name = *****
REMARK  5 active torsions:
REMARK  status: ('A' for Active; 'I' for Inactive)
REMARK    1  A    between atoms: C_1  and  C_2
REMARK    2  A    between atoms: C_3  and  O_14
REMARK    3  A    between atoms: C_10  and  O_12
REMARK    4  A    between atoms: O_12  and  C_13
REMARK    5  A    between atoms: O_14  and  C_15
REMARK                            x       y       z     vdW  Elec       q    Type
REMARK                         _______ _______ _______ _____ _____    ______ ____
ROOT
ATOM      1  C   UNL     1       1.458  -2.769   0.605  0.00  0.00    +0.000 C 
ATOM      2  C   UNL     1       1.217  -1.295   0.394  0.00  0.00    +0.000 A 
ATOM      3  C   UNL     1       2.303  -0.404   0.348  0.00  0.00    +0.000 A 
ATOM      4  C   UNL     1       2.102   0.966   0.195  0.00  0.00    +0.000 A 
ATOM      5  C   UNL     1       0.812   1.464   0.037  0.00  0.00    +0.000 A 
ATOM      6  C   UNL     1      -0.293   0.603   0.041  0.00  0.00    +0.000 A 
ATOM      7  C   UNL     1      -0.104  -0.790   0.222  0.00  0.00    +0.000 A 
ATOM      8  C   UNL     1      -1.258  -1.605   0.221  0.00  0.00    +0.000 A 
ATOM      9  C   UNL     1      -2.543  -1.074   0.049  0.00  0.00    +0.000 A 
ATOM     10  C   UNL     1      -2.713   0.294  -0.127  0.00  0.00    +0.000 A 
ATOM     11  C   UNL     1      -1.589   1.121  -0.129  0.00  0.00    +0.000 A 
ENDROOT
BRANCH  10  12
ATOM     12  O   UNL     1      -3.903   0.943  -0.304  0.00  0.00    +0.000 OA
ATOM     13  C   UNL     1      -5.078   0.142  -0.303  0.00  0.00    +0.000 C 
ENDBRANCH  10  12
BRANCH   3  14
ATOM     14  O   UNL     1       3.577  -0.882   0.529  0.00  0.00    +0.000 OA
ATOM     15  C   UNL     1       4.347  -0.753  -0.667  0.00  0.00    +0.000 C 
ENDBRANCH   3  14
TORSDOF 2
