REMARK  Name = *****
REMARK  0 active torsions:
REMARK  status: ('A' for Active; 'I' for Inactive)
REMARK                            x       y       z     vdW  Elec       q    Type
REMARK                         _______ _______ _______ _____ _____    ______ ____
ROOT
ATOM      1  C   UNL     1       0.912  -1.384  -0.000  0.00  0.00    +0.000 A 
ATOM      2  C   UNL     1      -0.257  -0.657  -0.000  0.00  0.00    +0.000 A 
ATOM      3  C   UNL     1      -0.249   0.720  -0.000  0.00  0.00    +0.000 A 
ATOM      4  C   UNL     1       0.918   1.460   0.000  0.00  0.00    +0.000 A 
ATOM      5  C   UNL     1       2.133   0.752   0.001  0.00  0.00    +0.000 A 
ATOM      6  C   UNL     1       2.119  -0.668   0.000  0.00  0.00    +0.000 A 
ATOM      7 BR   UNL     1       3.716  -1.705  -0.001  0.00  0.00    +0.000 Br
ATOM      8 CL   UNL     1       3.637   1.619   0.002  0.00  0.00    +0.000 Cl
ATOM      9 CL   UNL     1       0.819   3.182  -0.000  0.00  0.00    +0.000 Cl
ATOM     10  N   UNL     1      -1.565   1.100  -0.000  0.00  0.00    +0.000 N 
ATOM     11  C   UNL     1      -2.337  -0.035  -0.000  0.00  0.00    +0.000 A 
ATOM     12  O   UNL     1      -3.558  -0.053  -0.000  0.00  0.00    +0.000 OA
ATOM     13  O   UNL     1      -1.538  -1.186  -0.000  0.00  0.00    +0.000 OA
ATOM     14  H   UNL     1      -1.899   2.026  -0.001  0.00  0.00    +0.000 HD
ENDROOT
TORSDOF 0
