REMARK  Name = *****
REMARK  1 active torsions:
REMARK  status: ('A' for Active; 'I' for Inactive)
REMARK    1  A    between atoms: C_1  and  C_2
REMARK                            x       y       z     vdW  Elec       q    Type
REMARK                         _______ _______ _______ _____ _____    ______ ____
ROOT
ATOM      1  C   UNL     1       0.921  -0.004  -0.040  0.00  0.00    +0.000 C 
ATOM      2  C   UNL     1       2.407  -0.006  -0.041  0.00  0.00    +0.000 A 
ATOM      3  C   UNL     1       3.231   1.102  -0.040  0.00  0.00    +0.000 A 
ATOM      4  N   UNL     1       4.530   0.674  -0.042  0.00  0.00    +0.000 N 
ATOM      5  C   UNL     1       4.578  -0.702  -0.043  0.00  0.00    +0.000 A 
ATOM      6  C   UNL     1       3.259  -1.157  -0.043  0.00  0.00    +0.000 A 
ATOM      7  C   UNL     1       3.027  -2.548  -0.044  0.00  0.00    +0.000 A 
ATOM      8  C   UNL     1       4.120  -3.422  -0.045  0.00  0.00    +0.000 A 
ATOM      9  C   UNL     1       5.428  -2.948  -0.045  0.00  0.00    +0.000 A 
ATOM     10  C   UNL     1       5.672  -1.576  -0.044  0.00  0.00    +0.000 A 
ATOM     11 CL   UNL     1       7.283  -0.977  -0.044  0.00  0.00    +0.000 Cl
ATOM     12 CL   UNL     1       3.836  -5.122  -0.046  0.00  0.00    +0.000 Cl
ATOM     13  H   UNL     1       5.318   1.265  -0.042  0.00  0.00    +0.000 HD
ENDROOT
TORSDOF 0
