REMARK  Name = *****
REMARK  1 active torsions:
REMARK  status: ('A' for Active; 'I' for Inactive)
REMARK    1  A    between atoms: C_1  and  C_2
REMARK                            x       y       z     vdW  Elec       q    Type
REMARK                         _______ _______ _______ _____ _____    ______ ____
ROOT
ATOM      1  C   UNL     1       1.079  -0.027   0.006  0.00  0.00    +0.000 C 
ATOM      2  C   UNL     1       2.579  -0.059   0.063  0.00  0.00    +0.000 A 
ATOM      3  N   UNL     1       3.211  -1.196   0.107  0.00  0.00    +0.000 NA
ATOM      4  C   UNL     1       4.615  -1.173   0.161  0.00  0.00    +0.000 A 
ATOM      5  C   UNL     1       5.302  -2.386   0.209  0.00  0.00    +0.000 A 
ATOM      6  C   UNL     1       6.699  -2.407   0.263  0.00  0.00    +0.000 A 
ATOM      7  C   UNL     1       7.418  -1.205   0.270  0.00  0.00    +0.000 A 
ATOM      8  C   UNL     1       6.740   0.017   0.223  0.00  0.00    +0.000 A 
ATOM      9  C   UNL     1       5.347   0.025   0.169  0.00  0.00    +0.000 A 
ATOM     10  N   UNL     1       4.660   1.242   0.121  0.00  0.00    +0.000 N 
ATOM     11  C   UNL     1       3.289   1.292   0.068  0.00  0.00    +0.000 A 
ATOM     12  O   UNL     1       2.655   2.334   0.026  0.00  0.00    +0.000 OA
ATOM     13 CL   UNL     1       9.144  -1.159   0.337  0.00  0.00    +0.000 Cl
ATOM     14 CL   UNL     1       7.477  -3.949   0.321  0.00  0.00    +0.000 Cl
ATOM     15  H   UNL     1       5.172   2.083   0.126  0.00  0.00    +0.000 HD
ENDROOT
TORSDOF 0
