REMARK  Name = *****
REMARK  0 active torsions:
REMARK  status: ('A' for Active; 'I' for Inactive)
REMARK                            x       y       z     vdW  Elec       q    Type
REMARK                         _______ _______ _______ _____ _____    ______ ____
ROOT
ATOM      1  C   UNL     1       0.955   0.001  -0.081  0.00  0.00    +0.000 C 
ATOM      2  C   UNL     1       2.294   0.017   0.028  0.00  0.00    +0.000 C 
ATOM      3  C   UNL     1       3.140  -1.182  -0.128  0.00  0.00    +0.000 A 
ATOM      4  C   UNL     1       4.462  -1.074  -0.591  0.00  0.00    +0.000 A 
ATOM      5  C   UNL     1       5.242  -2.218  -0.807  0.00  0.00    +0.000 A 
ATOM      6  C   UNL     1       4.729  -3.483  -0.524  0.00  0.00    +0.000 A 
ATOM      7  C   UNL     1       3.437  -3.600  -0.025  0.00  0.00    +0.000 A 
ATOM      8  C   UNL     1       2.648  -2.466   0.174  0.00  0.00    +0.000 A 
ATOM      9 CL   UNL     1       2.803  -5.156   0.344  0.00  0.00    +0.000 Cl
ATOM     10  N   UNL     1       5.052   0.164  -0.865  0.00  0.00    +0.000 N 
ATOM     11  C   UNL     1       4.565   1.406  -0.563  0.00  0.00    +0.000 C 
ATOM     12  O   UNL     1       5.190   2.412  -0.882  0.00  0.00    +0.000 OA
ATOM     13  S   UNL     1       3.086   1.517   0.354  0.00  0.00    +0.000 S 
ATOM     14  H   UNL     1       5.920   0.139  -1.329  0.00  0.00    +0.000 HD
ENDROOT
TORSDOF 0
