REMARK  Name = *****
REMARK  1 active torsions:
REMARK  status: ('A' for Active; 'I' for Inactive)
REMARK    1  A    between atoms: C_1  and  C_2
REMARK                            x       y       z     vdW  Elec       q    Type
REMARK                         _______ _______ _______ _____ _____    ______ ____
ROOT
ATOM      1  C   UNL     1       2.655  -1.031  -0.880  0.00  0.00    +0.000 C 
ATOM      2  C   UNL     1       3.796  -1.810  -1.582  0.00  0.00    +0.000 C 
ATOM      3  C   UNL     1       3.184  -2.755  -2.646  0.00  0.00    +0.000 C 
ATOM      4  C   UNL     1       2.398  -3.917  -2.036  0.00  0.00    +0.000 C 
ATOM      5  C   UNL     1       3.227  -4.700  -1.022  0.00  0.00    +0.000 C 
ATOM      6  C   UNL     1       3.843  -3.801   0.048  0.00  0.00    +0.000 C 
ATOM      7  C   UNL     1       4.641  -2.651  -0.583  0.00  0.00    +0.000 C 
ATOM      8  C   UNL     1       5.310  -1.773   0.491  0.00  0.00    +0.000 C 
ATOM      9  C   UNL     1       5.925  -0.528  -0.084  0.00  0.00    +0.000 C 
ATOM     10  C   UNL     1       5.681  -0.094  -1.330  0.00  0.00    +0.000 C 
ATOM     11  C   UNL     1       4.741  -0.790  -2.278  0.00  0.00    +0.000 C 
ENDROOT
TORSDOF 0
