REMARK  Name = *****
REMARK  2 active torsions:
REMARK  status: ('A' for Active; 'I' for Inactive)
REMARK    1  A    between atoms: C_7  and  N_11
REMARK    2  A    between atoms: C_8  and  O_10
REMARK                            x       y       z     vdW  Elec       q    Type
REMARK                         _______ _______ _______ _____ _____    ______ ____
ROOT
ATOM      1  C   UNL     1       0.944  -1.425   0.001  0.00  0.00    +0.000 A 
ATOM      2  C   UNL     1       2.126  -0.676   0.000  0.00  0.00    +0.000 A 
ATOM      3  C   UNL     1       2.104   0.715  -0.000  0.00  0.00    +0.000 A 
ATOM      4  C   UNL     1       0.886   1.395  -0.000  0.00  0.00    +0.000 A 
ATOM      5  C   UNL     1      -0.298   0.648   0.000  0.00  0.00    +0.000 A 
ATOM      6  C   UNL     1      -0.298  -0.752   0.001  0.00  0.00    +0.000 A 
ATOM      7  C   UNL     1      -1.663  -1.156   0.001  0.00  0.00    +0.000 A 
ATOM      8  C   UNL     1      -2.455  -0.026   0.000  0.00  0.00    +0.000 A 
ATOM      9  N   UNL     1      -1.615   1.055   0.000  0.00  0.00    +0.000 N 
ATOM     10 CL   UNL     1       0.847   3.113  -0.001  0.00  0.00    +0.000 Cl
ATOM     11 CL   UNL     1       3.640  -1.497   0.000  0.00  0.00    +0.000 Cl
ATOM     12  H   UNL     1      -1.911   1.994  -0.000  0.00  0.00    +0.000 HD
ENDROOT
BRANCH   8  13
ATOM     13  O   UNL     1      -3.769   0.168   0.000  0.00  0.00    +0.000 OA
ATOM     14  H   UNL     1      -4.351  -0.566   0.001  0.00  0.00    +0.000 HD
ENDBRANCH   8  13
BRANCH   7  15
ATOM     15  N   UNL     1      -2.089  -2.491   0.001  0.00  0.00    +0.000 NA
ATOM     16  O   UNL     1      -3.315  -2.655   0.002  0.00  0.00    +0.000 OA
ENDBRANCH   7  15
TORSDOF 2
