REMARK  Name = *****
REMARK  0 active torsions:
REMARK  status: ('A' for Active; 'I' for Inactive)
REMARK                            x       y       z     vdW  Elec       q    Type
REMARK                         _______ _______ _______ _____ _____    ______ ____
ROOT
ATOM      1  C   UNL     1       1.973   1.105   0.008  0.00  0.00    +0.000 A 
ATOM      2  C   UNL     1       0.647   1.546   0.013  0.00  0.00    +0.000 A 
ATOM      3  C   UNL     1      -0.342   0.585  -0.001  0.00  0.00    +0.000 A 
ATOM      4  C   UNL     1      -0.062  -0.784  -0.018  0.00  0.00    +0.000 A 
ATOM      5  C   UNL     1       1.251  -1.231  -0.022  0.00  0.00    +0.000 A 
ATOM      6  C   UNL     1       2.267  -0.271  -0.009  0.00  0.00    +0.000 A 
ATOM      7 BR   UNL     1       4.074  -0.832  -0.013  0.00  0.00    +0.000 Br
ATOM      8  C   UNL     1      -1.356  -1.554  -0.030  0.00  0.00    +0.000 C 
ATOM      9  C   UNL     1      -2.410  -0.415  -0.014  0.00  0.00    +0.000 C 
ATOM     10  O   UNL     1      -3.629  -0.501  -0.015  0.00  0.00    +0.000 OA
ATOM     11  N   UNL     1      -1.711   0.796   0.002  0.00  0.00    +0.000 N 
ATOM     12 CL   UNL     1      -1.534  -2.499  -1.513  0.00  0.00    +0.000 Cl
ATOM     13 CL   UNL     1      -1.536  -2.541   1.425  0.00  0.00    +0.000 Cl
ATOM     14  H   UNL     1      -2.137   1.683   0.013  0.00  0.00    +0.000 HD
ENDROOT
TORSDOF 0
