REMARK  Name = *****
REMARK  0 active torsions:
REMARK  status: ('A' for Active; 'I' for Inactive)
REMARK                            x       y       z     vdW  Elec       q    Type
REMARK                         _______ _______ _______ _____ _____    ______ ____
ROOT
ATOM      1  C   UNL     1       2.134   0.733  -0.001  0.00  0.00    +0.000 A 
ATOM      2  C   UNL     1       2.199  -0.670   0.000  0.00  0.00    +0.000 A 
ATOM      3  C   UNL     1       1.028  -1.437   0.000  0.00  0.00    +0.000 A 
ATOM      4  C   UNL     1      -0.200  -0.789  -0.000  0.00  0.00    +0.000 A 
ATOM      5  C   UNL     1      -0.258   0.606  -0.001  0.00  0.00    +0.000 A 
ATOM      6  C   UNL     1       0.897   1.378  -0.002  0.00  0.00    +0.000 A 
ATOM      7 CL   UNL     1       0.827   3.096  -0.003  0.00  0.00    +0.000 Cl
ATOM      8  N   UNL     1      -1.567   1.099  -0.002  0.00  0.00    +0.000 N 
ATOM      9  C   UNL     1      -2.565   0.157  -0.001  0.00  0.00    +0.000 A 
ATOM     10  O   UNL     1      -3.763   0.382  -0.000  0.00  0.00    +0.000 OA
ATOM     11  S   UNL     1      -1.849  -1.458  -0.000  0.00  0.00    +0.000 S 
ATOM     12 CL   UNL     1       1.157  -3.153   0.001  0.00  0.00    +0.000 Cl
ATOM     13  H   UNL     1      -1.760   2.064  -0.002  0.00  0.00    +0.000 HD
ENDROOT
TORSDOF 0
