REMARK  Name = *****
REMARK  3 active torsions:
REMARK  status: ('A' for Active; 'I' for Inactive)
REMARK    1  A    between atoms: C_1  and  O_2
REMARK    2  A    between atoms: O_2  and  C_3
REMARK    3  A    between atoms: C_10  and  C_12
REMARK                            x       y       z     vdW  Elec       q    Type
REMARK                         _______ _______ _______ _____ _____    ______ ____
ROOT
ATOM      1  C   UNL     1       3.032   0.769  -0.932  0.00  0.00    +0.000 A 
ATOM      2  C   UNL     1       4.212   0.154  -1.375  0.00  0.00    +0.000 A 
ATOM      3  C   UNL     1       5.061   0.829  -2.273  0.00  0.00    +0.000 A 
ATOM      4  C   UNL     1       4.702   2.102  -2.702  0.00  0.00    +0.000 A 
ATOM      5  C   UNL     1       3.531   2.738  -2.277  0.00  0.00    +0.000 A 
ATOM      6  C   UNL     1       2.702   2.046  -1.383  0.00  0.00    +0.000 A 
ATOM      7  N   UNL     1       5.686   2.530  -3.559  0.00  0.00    +0.000 N 
ATOM      8  C   UNL     1       6.672   1.576  -3.698  0.00  0.00    +0.000 A 
ATOM      9  C   UNL     1       6.295   0.507  -2.902  0.00  0.00    +0.000 A 
ATOM     10  H   UNL     1       5.688   3.404  -4.014  0.00  0.00    +0.000 HD
ENDROOT
BRANCH   8  11
ATOM     11  C   UNL     1       7.826   1.793  -4.553  0.00  0.00    +0.000 C 
ATOM     12  O   UNL     1       7.953   2.842  -5.178  0.00  0.00    +0.000 OA
ATOM     13 CL   UNL     1       8.974   0.479  -4.609  0.00  0.00    +0.000 Cl
ENDBRANCH   8  11
BRANCH   1  15
ATOM     14  C   UNL     1       1.097   0.586   0.442  0.00  0.00    +0.000 C 
ATOM     15  O   UNL     1       2.296   0.010  -0.061  0.00  0.00    +0.000 OA
ENDBRANCH   1  15
TORSDOF 2
