REMARK  Name = *****
REMARK  2 active torsions:
REMARK  status: ('A' for Active; 'I' for Inactive)
REMARK    1  A    between atoms: C_1  and  O_2
REMARK    2  A    between atoms: O_2  and  C_3
REMARK                            x       y       z     vdW  Elec       q    Type
REMARK                         _______ _______ _______ _____ _____    ______ ____
ROOT
ATOM      1  C   UNL     1       2.867   1.162  -0.702  0.00  0.00    +0.000 A 
ATOM      2  C   UNL     1       3.921   0.981  -1.607  0.00  0.00    +0.000 A 
ATOM      3  C   UNL     1       4.590   2.066  -2.198  0.00  0.00    +0.000 A 
ATOM      4  C   UNL     1       4.185   3.378  -1.863  0.00  0.00    +0.000 A 
ATOM      5  C   UNL     1       3.132   3.557  -0.953  0.00  0.00    +0.000 A 
ATOM      6  C   UNL     1       2.478   2.461  -0.377  0.00  0.00    +0.000 A 
ATOM      7  C   UNL     1       4.844   4.473  -2.447  0.00  0.00    +0.000 A 
ATOM      8  C   UNL     1       5.888   4.268  -3.350  0.00  0.00    +0.000 A 
ATOM      9  C   UNL     1       6.292   2.979  -3.684  0.00  0.00    +0.000 A 
ATOM     10  C   UNL     1       5.646   1.884  -3.110  0.00  0.00    +0.000 A 
ATOM     11 BR   UNL     1       6.760   5.755  -4.126  0.00  0.00    +0.000 Br
ATOM     12  F   UNL     1       4.302  -0.270  -1.923  0.00  0.00    +0.000 F 
ENDROOT
BRANCH   1  14
ATOM     13  C   UNL     1       1.198   0.160   0.671  0.00  0.00    +0.000 C 
ATOM     14  O   UNL     1       2.306   0.016  -0.206  0.00  0.00    +0.000 OA
ENDBRANCH   1  14
TORSDOF 1
