REMARK  Name = *****
REMARK  4 active torsions:
REMARK  status: ('A' for Active; 'I' for Inactive)
REMARK    1  A    between atoms: C_1  and  C_2
REMARK    2  A    between atoms: C_9  and  O_13
REMARK    3  A    between atoms: C_10  and  C_12
REMARK    4  A    between atoms: O_13  and  C_14
REMARK                            x       y       z     vdW  Elec       q    Type
REMARK                         _______ _______ _______ _____ _____    ______ ____
ROOT
ATOM      1  C   UNL     1       0.874  -0.251   0.522  0.00  0.00    +0.000 C 
ATOM      2  C   UNL     1       2.347  -0.281   0.097  0.00  0.00    +0.000 C 
ATOM      3  C   UNL     1       3.027   1.081   0.359  0.00  0.00    +0.000 C 
ATOM      4  C   UNL     1       3.521   1.247   1.768  0.00  0.00    +0.000 C 
ATOM      5  C   UNL     1       3.865   0.197   2.527  0.00  0.00    +0.000 C 
ATOM      6  C   UNL     1       3.782  -1.165   1.989  0.00  0.00    +0.000 A 
ATOM      7  C   UNL     1       3.064  -1.417   0.807  0.00  0.00    +0.000 A 
ATOM      8  C   UNL     1       2.977  -2.729   0.315  0.00  0.00    +0.000 A 
ATOM      9  C   UNL     1       3.594  -3.784   0.993  0.00  0.00    +0.000 A 
ATOM     10  C   UNL     1       4.340  -3.532   2.155  0.00  0.00    +0.000 A 
ATOM     11  C   UNL     1       4.415  -2.222   2.652  0.00  0.00    +0.000 A 
ATOM     12  C   UNL     1       5.038  -4.651   2.877  0.00  0.00    +0.000 C 
ENDROOT
BRANCH   9  13
ATOM     13  O   UNL     1       3.553  -5.086   0.561  0.00  0.00    +0.000 OA
ATOM     14  C   UNL     1       2.328  -5.479  -0.048  0.00  0.00    +0.000 C 
ENDBRANCH   9  13
TORSDOF 1
