REMARK  Name = *****
REMARK  1 active torsions:
REMARK  status: ('A' for Active; 'I' for Inactive)
REMARK    1  A    between atoms: C_1  and  C_2
REMARK                            x       y       z     vdW  Elec       q    Type
REMARK                         _______ _______ _______ _____ _____    ______ ____
ROOT
ATOM      1  C   UNL     1       0.941   0.031  -0.065  0.00  0.00    +0.000 C 
ATOM      2  C   UNL     1       2.442  -0.055  -0.065  0.00  0.00    +0.000 A 
ATOM      3  C   UNL     1       3.143  -1.296  -0.064  0.00  0.00    +0.000 A 
ATOM      4  C   UNL     1       2.652  -2.624  -0.064  0.00  0.00    +0.000 A 
ATOM      5  C   UNL     1       3.537  -3.726  -0.063  0.00  0.00    +0.000 A 
ATOM      6  C   UNL     1       4.932  -3.560  -0.062  0.00  0.00    +0.000 A 
ATOM      7  C   UNL     1       5.405  -2.251  -0.062  0.00  0.00    +0.000 A 
ATOM      8  C   UNL     1       4.504  -1.197  -0.063  0.00  0.00    +0.000 A 
ATOM      9  C   UNL     1       5.214  -0.019  -0.062  0.00  0.00    +0.000 A 
ATOM     10  C   UNL     1       4.584   1.208  -0.063  0.00  0.00    +0.000 A 
ATOM     11  C   UNL     1       3.175   1.166  -0.065  0.00  0.00    +0.000 A 
ATOM     12  N   UNL     1       6.557  -0.348  -0.061  0.00  0.00    +0.000 N 
ATOM     13  C   UNL     1       6.759  -1.735  -0.060  0.00  0.00    +0.000 C 
ATOM     14  O   UNL     1       7.854  -2.280  -0.059  0.00  0.00    +0.000 OA
ATOM     15  H   UNL     1       7.286   0.314  -0.060  0.00  0.00    +0.000 HD
ENDROOT
TORSDOF 0
