REMARK  Name = *****
REMARK  0 active torsions:
REMARK  status: ('A' for Active; 'I' for Inactive)
REMARK                            x       y       z     vdW  Elec       q    Type
REMARK                         _______ _______ _______ _____ _____    ______ ____
ROOT
ATOM      1  C   UNL     1       2.126   0.741  -0.001  0.00  0.00    +0.000 A 
ATOM      2  C   UNL     1       2.194  -0.661   0.001  0.00  0.00    +0.000 A 
ATOM      3  C   UNL     1       1.024  -1.431   0.002  0.00  0.00    +0.000 A 
ATOM      4  C   UNL     1      -0.205  -0.786   0.001  0.00  0.00    +0.000 A 
ATOM      5  C   UNL     1      -0.267   0.610  -0.001  0.00  0.00    +0.000 A 
ATOM      6  C   UNL     1       0.887   1.384  -0.002  0.00  0.00    +0.000 A 
ATOM      7 BR   UNL     1       0.814   3.272  -0.005  0.00  0.00    +0.000 Br
ATOM      8  N   UNL     1      -1.576   1.099  -0.001  0.00  0.00    +0.000 N 
ATOM      9  C   UNL     1      -2.572   0.156   0.000  0.00  0.00    +0.000 A 
ATOM     10  O   UNL     1      -3.771   0.378   0.001  0.00  0.00    +0.000 OA
ATOM     11  S   UNL     1      -1.853  -1.458   0.002  0.00  0.00    +0.000 S 
ATOM     12 BR   UNL     1       1.176  -3.316   0.003  0.00  0.00    +0.000 Br
ATOM     13  H   UNL     1      -1.772   2.063  -0.002  0.00  0.00    +0.000 HD
ENDROOT
TORSDOF 0
