REMARK  Name = *****
REMARK  1 active torsions:
REMARK  status: ('A' for Active; 'I' for Inactive)
REMARK    1  A    between atoms: C_4  and  C_11
REMARK                            x       y       z     vdW  Elec       q    Type
REMARK                         _______ _______ _______ _____ _____    ______ ____
ROOT
ATOM      1  C   UNL     1       1.702   1.471   1.698  0.00  0.00    +0.000 C 
ATOM      2  C   UNL     1       1.322   2.913   1.372  0.00  0.00    +0.000 C 
ATOM      3  C   UNL     1       1.207   3.172  -0.123  0.00  0.00    +0.000 C 
ATOM      4  C   UNL     1       0.268   2.193  -0.893  0.00  0.00    +0.000 C 
ATOM      5  C   UNL     1      -1.009   2.923  -1.385  0.00  0.00    +0.000 C 
ATOM      6  C   UNL     1      -2.057   3.128  -0.303  0.00  0.00    +0.000 C 
ATOM      7  C   UNL     1      -2.484   1.786   0.268  0.00  0.00    +0.000 C 
ATOM      8  C   UNL     1      -1.302   1.061   0.892  0.00  0.00    +0.000 C 
ATOM      9  C   UNL     1      -0.091   0.921  -0.057  0.00  0.00    +0.000 C 
ATOM     10  C   UNL     1       1.132   0.428   0.733  0.00  0.00    +0.000 C 
ATOM     11  C   UNL     1       1.030   1.759  -2.175  0.00  0.00    +0.000 C 
ENDROOT
TORSDOF 0
