REMARK  Name = *****
REMARK  3 active torsions:
REMARK  status: ('A' for Active; 'I' for Inactive)
REMARK    1  A    between atoms: C_1  and  C_2
REMARK    2  A    between atoms: C_8  and  O_10
REMARK    3  A    between atoms: O_10  and  C_11
REMARK                            x       y       z     vdW  Elec       q    Type
REMARK                         _______ _______ _______ _____ _____    ______ ____
ROOT
ATOM      1  C   UNL     1       0.899  -0.034   0.183  0.00  0.00    +0.000 C 
ATOM      2  C   UNL     1       2.396  -0.097   0.114  0.00  0.00    +0.000 A 
ATOM      3  C   UNL     1       3.168   1.069   0.072  0.00  0.00    +0.000 A 
ATOM      4  C   UNL     1       4.571   1.019  -0.003  0.00  0.00    +0.000 A 
ATOM      5  C   UNL     1       5.232  -0.231  -0.039  0.00  0.00    +0.000 A 
ATOM      6  C   UNL     1       6.645  -0.225  -0.118  0.00  0.00    +0.000 A 
ATOM      7  C   UNL     1       7.376   0.968  -0.163  0.00  0.00    +0.000 A 
ATOM      8  C   UNL     1       6.716   2.190  -0.128  0.00  0.00    +0.000 A 
ATOM      9  C   UNL     1       5.322   2.206  -0.046  0.00  0.00    +0.000 A 
ATOM     10  C   UNL     1       4.438  -1.404   0.006  0.00  0.00    +0.000 A 
ATOM     11  C   UNL     1       3.043  -1.334   0.080  0.00  0.00    +0.000 A 
ATOM     12 CL   UNL     1       5.141  -2.989  -0.030  0.00  0.00    +0.000 Cl
ENDROOT
BRANCH   8  13
ATOM     13  O   UNL     1       7.302   3.425  -0.165  0.00  0.00    +0.000 OA
ATOM     14  C   UNL     1       8.716   3.461  -0.313  0.00  0.00    +0.000 C 
ENDBRANCH   8  13
TORSDOF 1
