REMARK  Name = *****
REMARK  2 active torsions:
REMARK  status: ('A' for Active; 'I' for Inactive)
REMARK    1  A    between atoms: C_1  and  C_2
REMARK    2  A    between atoms: N_3  and  C_4
REMARK                            x       y       z     vdW  Elec       q    Type
REMARK                         _______ _______ _______ _____ _____    ______ ____
ROOT
ATOM      1  C   UNL     1       4.634   0.160  -1.288  0.00  0.00    +0.000 A 
ATOM      2  C   UNL     1       5.236   1.384  -1.589  0.00  0.00    +0.000 A 
ATOM      3  C   UNL     1       6.632   1.535  -1.543  0.00  0.00    +0.000 A 
ATOM      4  C   UNL     1       7.247   2.763  -1.836  0.00  0.00    +0.000 A 
ATOM      5  C   UNL     1       8.635   2.896  -1.785  0.00  0.00    +0.000 A 
ATOM      6  C   UNL     1       9.427   1.804  -1.442  0.00  0.00    +0.000 A 
ATOM      7  C   UNL     1       8.832   0.576  -1.150  0.00  0.00    +0.000 A 
ATOM      8  C   UNL     1       7.437   0.425  -1.196  0.00  0.00    +0.000 A 
ATOM      9  C   UNL     1       6.824  -0.805  -0.913  0.00  0.00    +0.000 A 
ATOM     10  C   UNL     1       5.434  -0.935  -0.964  0.00  0.00    +0.000 A 
ENDROOT
BRANCH   1  13
ATOM     11  C   UNL     1       1.118   0.111  -0.174  0.00  0.00    +0.000 C 
ATOM     12  C   UNL     1       2.609   0.227  -0.237  0.00  0.00    +0.000 C 
ATOM     13  N   UNL     1       3.240   0.025  -1.347  0.00  0.00    +0.000 NA
ENDBRANCH   1  13
TORSDOF 1
