REMARK  Name = *****
REMARK  2 active torsions:
REMARK  status: ('A' for Active; 'I' for Inactive)
REMARK    1  A    between atoms: C_1  and  C_2
REMARK    2  A    between atoms: C_3  and  C_11
REMARK                            x       y       z     vdW  Elec       q    Type
REMARK                         _______ _______ _______ _____ _____    ______ ____
ROOT
ATOM      1  C   UNL     1       1.094   0.216   0.003  0.00  0.00    +0.000 C 
ATOM      2  C   UNL     1       2.578   0.034   0.002  0.00  0.00    +0.000 A 
ATOM      3  C   UNL     1       3.264  -1.180   0.007  0.00  0.00    +0.000 A 
ATOM      4  S   UNL     1       4.980  -0.965   0.004  0.00  0.00    +0.000 S 
ATOM      5  C   UNL     1       4.820   0.710  -0.003  0.00  0.00    +0.000 A 
ATOM      6  C   UNL     1       3.515   1.106  -0.003  0.00  0.00    +0.000 A 
ATOM      7  S   UNL     1       3.231   2.832  -0.009  0.00  0.00    +0.000 S 
ATOM      8  C   UNL     1       4.954   3.281  -0.010  0.00  0.00    +0.000 A 
ATOM      9  S   UNL     1       5.467   4.872  -0.012  0.00  0.00    +0.000 S 
ATOM     10  S   UNL     1       6.088   1.908  -0.009  0.00  0.00    +0.000 S 
ATOM     11  C   UNL     1       2.740  -2.580   0.015  0.00  0.00    +0.000 C 
ENDROOT
TORSDOF 0
