REMARK  Name = *****
REMARK  0 active torsions:
REMARK  status: ('A' for Active; 'I' for Inactive)
REMARK                            x       y       z     vdW  Elec       q    Type
REMARK                         _______ _______ _______ _____ _____    ______ ____
ROOT
ATOM      1  C   UNL     1      -2.466   0.631  -0.024  0.00  0.00    +0.000 A 
ATOM      2  C   UNL     1      -1.280   1.373  -0.017  0.00  0.00    +0.000 A 
ATOM      3  C   UNL     1      -0.034   0.730  -0.000  0.00  0.00    +0.000 A 
ATOM      4  C   UNL     1      -0.012  -0.677   0.009  0.00  0.00    +0.000 A 
ATOM      5  C   UNL     1      -1.193  -1.423   0.003  0.00  0.00    +0.000 A 
ATOM      6  C   UNL     1      -2.417  -0.761  -0.013  0.00  0.00    +0.000 A 
ATOM      7 CL   UNL     1      -3.878  -1.668  -0.021  0.00  0.00    +0.000 Cl
ATOM      8  N   UNL     1       1.217  -1.349   0.025  0.00  0.00    +0.000 N 
ATOM      9  C   UNL     1       2.428  -0.718   0.031  0.00  0.00    +0.000 A 
ATOM     10  O   UNL     1       3.486  -1.335   0.042  0.00  0.00    +0.000 OA
ATOM     11  C   UNL     1       2.413   0.757   0.022  0.00  0.00    +0.000 A 
ATOM     12  C   UNL     1       1.259   1.436   0.008  0.00  0.00    +0.000 A 
ATOM     13 CL   UNL     1       1.308   3.164   0.000  0.00  0.00    +0.000 Cl
ATOM     14  H   UNL     1       1.207  -2.334   0.032  0.00  0.00    +0.000 HD
ENDROOT
TORSDOF 0
