REMARK  Name = *****
REMARK  0 active torsions:
REMARK  status: ('A' for Active; 'I' for Inactive)
REMARK                            x       y       z     vdW  Elec       q    Type
REMARK                         _______ _______ _______ _____ _____    ______ ____
ROOT
ATOM      1  C   UNL     1      -2.429   0.665  -0.025  0.00  0.00    +0.000 A 
ATOM      2  C   UNL     1      -1.221   1.362  -0.025  0.00  0.00    +0.000 A 
ATOM      3  C   UNL     1      -0.027   0.646  -0.010  0.00  0.00    +0.000 A 
ATOM      4  C   UNL     1      -0.006  -0.747   0.007  0.00  0.00    +0.000 A 
ATOM      5  C   UNL     1      -1.218  -1.441   0.008  0.00  0.00    +0.000 A 
ATOM      6  C   UNL     1      -2.422  -0.732  -0.009  0.00  0.00    +0.000 A 
ATOM      7 CL   UNL     1      -3.914  -1.589  -0.009  0.00  0.00    +0.000 Cl
ATOM      8  C   UNL     1       1.277  -1.431   0.022  0.00  0.00    +0.000 A 
ATOM      9  C   UNL     1       2.410  -0.720   0.019  0.00  0.00    +0.000 A 
ATOM     10  C   UNL     1       2.421   0.766  -0.000  0.00  0.00    +0.000 A 
ATOM     11  O   UNL     1       3.452   1.429  -0.005  0.00  0.00    +0.000 OA
ATOM     12  O   UNL     1       1.171   1.385  -0.012  0.00  0.00    +0.000 OA
ATOM     13 CL   UNL     1       3.936  -1.530   0.036  0.00  0.00    +0.000 Cl
ENDROOT
TORSDOF 0
