REMARK  Name = *****
REMARK  2 active torsions:
REMARK  status: ('A' for Active; 'I' for Inactive)
REMARK    1  A    between atoms: C_1  and  C_2
REMARK    2  A    between atoms: C_3  and  C_12
REMARK                            x       y       z     vdW  Elec       q    Type
REMARK                         _______ _______ _______ _____ _____    ______ ____
ROOT
ATOM      1  C   UNL     1       2.982   1.183   0.790  0.00  0.00    +0.000 C 
ATOM      2  C   UNL     1       2.577   0.023  -0.123  0.00  0.00    +0.000 C 
ATOM      3  C   UNL     1       3.072   0.184  -1.570  0.00  0.00    +0.000 C 
ATOM      4  S   UNL     1       2.240  -1.034  -2.645  0.00  0.00    +0.000 S 
ATOM      5  C   UNL     1       2.522  -2.539  -1.831  0.00  0.00    +0.000 A 
ATOM      6  C   UNL     1       2.917  -2.717  -0.556  0.00  0.00    +0.000 A 
ATOM      7  S   UNL     1       3.290  -1.489   0.610  0.00  0.00    +0.000 S 
ATOM      8  S   UNL     1       3.108  -4.374  -0.020  0.00  0.00    +0.000 S 
ATOM      9  C   UNL     1       2.639  -5.144  -1.519  0.00  0.00    +0.000 A 
ATOM     10  S   UNL     1       2.591  -6.795  -1.734  0.00  0.00    +0.000 S 
ATOM     11  S   UNL     1       2.228  -3.990  -2.769  0.00  0.00    +0.000 S 
ATOM     12  C   UNL     1       2.776   1.564  -2.164  0.00  0.00    +0.000 C 
ENDROOT
TORSDOF 0
