REMARK  Name = *****
REMARK  1 active torsions:
REMARK  status: ('A' for Active; 'I' for Inactive)
REMARK    1  A    between atoms: C_9  and  O_13
REMARK                            x       y       z     vdW  Elec       q    Type
REMARK                         _______ _______ _______ _____ _____    ______ ____
ROOT
ATOM      1  C   UNL     1       2.434   0.698  -0.029  0.00  0.00    +0.000 A 
ATOM      2  C   UNL     1       2.424  -0.697  -0.040  0.00  0.00    +0.000 A 
ATOM      3  C   UNL     1       1.209  -1.378  -0.020  0.00  0.00    +0.000 A 
ATOM      4  C   UNL     1       0.000  -0.665   0.010  0.00  0.00    +0.000 A 
ATOM      5  C   UNL     1      -0.003   0.742   0.021  0.00  0.00    +0.000 A 
ATOM      6  C   UNL     1       1.232   1.415   0.001  0.00  0.00    +0.000 A 
ATOM      7 CL   UNL     1       1.347   3.141   0.012  0.00  0.00    +0.000 Cl
ATOM      8  C   UNL     1      -1.305   1.430   0.054  0.00  0.00    +0.000 A 
ATOM      9  C   UNL     1      -2.463   0.751   0.073  0.00  0.00    +0.000 A 
ATOM     10  C   UNL     1      -2.453  -0.753   0.060  0.00  0.00    +0.000 A 
ATOM     11  O   UNL     1      -3.483  -1.419   0.076  0.00  0.00    +0.000 OA
ATOM     12  N   UNL     1      -1.224  -1.354   0.029  0.00  0.00    +0.000 N 
ATOM     13 CL   UNL     1       1.232  -3.105  -0.035  0.00  0.00    +0.000 Cl
ATOM     14  H   UNL     1      -1.196  -2.338   0.020  0.00  0.00    +0.000 HD
ENDROOT
BRANCH   9  15
ATOM     15  O   UNL     1      -3.688   1.392   0.105  0.00  0.00    +0.000 OA
ATOM     16  H   UNL     1      -3.727   2.328   0.113  0.00  0.00    +0.000 HD
ENDBRANCH   9  15
TORSDOF 1
