REMARK  Name = *****
REMARK  2 active torsions:
REMARK  status: ('A' for Active; 'I' for Inactive)
REMARK    1  A    between atoms: C_2  and  O_3
REMARK    2  A    between atoms: O_3  and  C_4
REMARK                            x       y       z     vdW  Elec       q    Type
REMARK                         _______ _______ _______ _____ _____    ______ ____
ROOT
ATOM      1  C   UNL     1       4.337  -0.951   0.744  0.00  0.00    +0.000 C 
ATOM      2  C   UNL     1       4.844  -0.981  -0.703  0.00  0.00    +0.000 C 
ATOM      3  C   UNL     1       4.468  -2.277  -1.425  0.00  0.00    +0.000 C 
ATOM      4  C   UNL     1       4.957  -3.507  -0.652  0.00  0.00    +0.000 C 
ATOM      5  C   UNL     1       4.566  -4.804  -1.372  0.00  0.00    +0.000 C 
ATOM      6  C   UNL     1       5.040  -6.034  -0.599  0.00  0.00    +0.000 C 
ATOM      7  C   UNL     1       4.542  -6.025   0.843  0.00  0.00    +0.000 C 
ATOM      8  C   UNL     1       4.909  -4.729   1.563  0.00  0.00    +0.000 C 
ATOM      9  C   UNL     1       4.411  -3.500   0.790  0.00  0.00    +0.000 C 
ATOM     10  C   UNL     1       4.799  -2.199   1.511  0.00  0.00    +0.000 C 
ENDROOT
BRANCH   1  11
ATOM     11  O   UNL     1       2.900  -0.935   0.766  0.00  0.00    +0.000 OA
BRANCH  11  13
ATOM     12  C   UNL     1       1.058   0.516   0.961  0.00  0.00    +0.000 C 
ATOM     13  C   UNL     1       2.349   0.313   0.700  0.00  0.00    +0.000 C 
ENDBRANCH  11  13
ENDBRANCH   1  11
TORSDOF 2
