REMARK  Name = *****
REMARK  0 active torsions:
REMARK  status: ('A' for Active; 'I' for Inactive)
REMARK                            x       y       z     vdW  Elec       q    Type
REMARK                         _______ _______ _______ _____ _____    ______ ____
ROOT
ATOM      1  C   UNL     1       0.608   1.478  -0.000  0.00  0.00    +0.000 A 
ATOM      2  C   UNL     1       1.932   1.036  -0.002  0.00  0.00    +0.000 A 
ATOM      3  C   UNL     1       2.245  -0.342  -0.002  0.00  0.00    +0.000 A 
ATOM      4  C   UNL     1       1.228  -1.317  -0.001  0.00  0.00    +0.000 A 
ATOM      5  C   UNL     1      -0.081  -0.854  -0.000  0.00  0.00    +0.000 A 
ATOM      6  C   UNL     1      -0.377   0.515   0.000  0.00  0.00    +0.000 A 
ATOM      7  N   UNL     1      -1.745   0.757   0.001  0.00  0.00    +0.000 N 
ATOM      8  C   UNL     1      -2.456  -0.421   0.001  0.00  0.00    +0.000 C 
ATOM      9  O   UNL     1      -3.657  -0.567   0.001  0.00  0.00    +0.000 OA
ATOM     10  C   UNL     1      -1.387  -1.544   0.001  0.00  0.00    +0.000 C 
ATOM     11  O   UNL     1      -1.620  -2.730   0.002  0.00  0.00    +0.000 OA
ATOM     12  I   UNL     1       1.653  -3.368  -0.002  0.00  0.00    +0.000 I 
ATOM     13 CL   UNL     1       3.933  -0.733  -0.004  0.00  0.00    +0.000 Cl
ATOM     14  H   UNL     1      -2.152   1.653   0.001  0.00  0.00    +0.000 HD
ENDROOT
TORSDOF 0
