REMARK  Name = *****
REMARK  0 active torsions:
REMARK  status: ('A' for Active; 'I' for Inactive)
REMARK                            x       y       z     vdW  Elec       q    Type
REMARK                         _______ _______ _______ _____ _____    ______ ____
ROOT
ATOM      1  C   UNL     1       1.119  -1.213  -0.001  0.00  0.00    +0.000 A 
ATOM      2  C   UNL     1       2.183  -0.308  -0.001  0.00  0.00    +0.000 A 
ATOM      3  C   UNL     1       1.963   1.082  -0.001  0.00  0.00    +0.000 A 
ATOM      4  C   UNL     1       0.660   1.593  -0.001  0.00  0.00    +0.000 A 
ATOM      5  C   UNL     1      -0.384   0.692  -0.001  0.00  0.00    +0.000 A 
ATOM      6  C   UNL     1      -0.157  -0.686  -0.001  0.00  0.00    +0.000 A 
ATOM      7  N   UNL     1      -1.347  -1.405  -0.000  0.00  0.00    +0.000 N 
ATOM      8  C   UNL     1      -2.436  -0.558  -0.000  0.00  0.00    +0.000 C 
ATOM      9  O   UNL     1      -3.609  -0.854   0.000  0.00  0.00    +0.000 OA
ATOM     10  C   UNL     1      -1.841   0.876  -0.001  0.00  0.00    +0.000 C 
ATOM     11  O   UNL     1      -2.467   1.909  -0.001  0.00  0.00    +0.000 OA
ATOM     12 CL   UNL     1       0.426   3.292  -0.002  0.00  0.00    +0.000 Cl
ATOM     13 CL   UNL     1       3.797  -0.906  -0.001  0.00  0.00    +0.000 Cl
ATOM     14  H   UNL     1      -1.405  -2.387   0.000  0.00  0.00    +0.000 HD
ENDROOT
TORSDOF 0
