REMARK  Name = *****
REMARK  0 active torsions:
REMARK  status: ('A' for Active; 'I' for Inactive)
REMARK                            x       y       z     vdW  Elec       q    Type
REMARK                         _______ _______ _______ _____ _____    ______ ____
ROOT
ATOM      1  C   UNL     1      -1.245   1.357  -0.027  0.00  0.00    +0.000 A 
ATOM      2  C   UNL     1      -2.441   0.636  -0.027  0.00  0.00    +0.000 A 
ATOM      3  C   UNL     1      -2.425  -0.764   0.002  0.00  0.00    +0.000 A 
ATOM      4  C   UNL     1      -1.204  -1.453   0.031  0.00  0.00    +0.000 A 
ATOM      5  C   UNL     1      -0.002  -0.725   0.030  0.00  0.00    +0.000 A 
ATOM      6  C   UNL     1      -0.030   0.675   0.002  0.00  0.00    +0.000 A 
ATOM      7  N   UNL     1       1.163   1.401   0.002  0.00  0.00    +0.000 N 
ATOM      8  C   UNL     1       2.410   0.817   0.029  0.00  0.00    +0.000 A 
ATOM      9  O   UNL     1       3.433   1.488   0.029  0.00  0.00    +0.000 OA
ATOM     10  C   UNL     1       2.452  -0.730   0.059  0.00  0.00    +0.000 A 
ATOM     11  O   UNL     1       3.512  -1.340   0.083  0.00  0.00    +0.000 OA
ATOM     12  N   UNL     1       1.240  -1.381   0.058  0.00  0.00    +0.000 N 
ATOM     13 CL   UNL     1      -1.147  -3.187   0.067  0.00  0.00    +0.000 Cl
ATOM     14 CL   UNL     1      -3.950  -1.576  -0.000  0.00  0.00    +0.000 Cl
ATOM     15  H   UNL     1       1.109   2.384  -0.018  0.00  0.00    +0.000 HD
ATOM     16  H   UNL     1       1.243  -2.365   0.079  0.00  0.00    +0.000 HD
ENDROOT
TORSDOF 0
