REMARK  Name = *****
REMARK  3 active torsions:
REMARK  status: ('A' for Active; 'I' for Inactive)
REMARK    1  A    between atoms: C_1  and  O_2
REMARK    2  A    between atoms: O_2  and  C_3
REMARK    3  A    between atoms: C_13  and  S_14
REMARK                            x       y       z     vdW  Elec       q    Type
REMARK                         _______ _______ _______ _____ _____    ______ ____
ROOT
ATOM      1  C   UNL     1       2.757   0.804  -0.932  0.00  0.00    +0.000 A 
ATOM      2  C   UNL     1       3.743   0.333  -1.811  0.00  0.00    +0.000 A 
ATOM      3  C   UNL     1       4.487   1.207  -2.621  0.00  0.00    +0.000 A 
ATOM      4  C   UNL     1       4.207   2.580  -2.520  0.00  0.00    +0.000 A 
ATOM      5  C   UNL     1       3.228   3.061  -1.648  0.00  0.00    +0.000 A 
ATOM      6  C   UNL     1       2.503   2.171  -0.854  0.00  0.00    +0.000 A 
ATOM      7  N   UNL     1       4.917   3.499  -3.304  0.00  0.00    +0.000 N 
ATOM      8  C   UNL     1       5.895   3.144  -4.191  0.00  0.00    +0.000 A 
ATOM      9  S   UNL     1       6.669   4.338  -5.071  0.00  0.00    +0.000 S 
ATOM     10  C   UNL     1       6.198   1.697  -4.305  0.00  0.00    +0.000 A 
ATOM     11  C   UNL     1       5.541   0.783  -3.572  0.00  0.00    +0.000 A 
ATOM     12  H   UNL     1       4.699   4.455  -3.211  0.00  0.00    +0.000 HD
ENDROOT
BRANCH   1  14
ATOM     13  C   UNL     1       1.101   0.245   0.683  0.00  0.00    +0.000 C 
ATOM     14  O   UNL     1       2.122  -0.172  -0.214  0.00  0.00    +0.000 OA
ENDBRANCH   1  14
BRANCH  11  15
ATOM     15  S   UNL     1       5.924  -0.904  -3.733  0.00  0.00    +0.000 S 
ATOM     16  H   UNL     1       5.135  -1.630  -2.896  0.00  0.00    +0.000 HD
ENDBRANCH  11  15
TORSDOF 2
