REMARK  Name = *****
REMARK  2 active torsions:
REMARK  status: ('A' for Active; 'I' for Inactive)
REMARK    1  A    between atoms: C_2  and  O_3
REMARK    2  A    between atoms: O_3  and  C_4
REMARK                            x       y       z     vdW  Elec       q    Type
REMARK                         _______ _______ _______ _____ _____    ______ ____
ROOT
ATOM      1  C   UNL     1       4.361   0.581  -0.921  0.00  0.00    +0.000 A 
ATOM      2  C   UNL     1       5.546   0.016  -1.400  0.00  0.00    +0.000 A 
ATOM      3  C   UNL     1       6.370   0.717  -2.295  0.00  0.00    +0.000 A 
ATOM      4  C   UNL     1       7.558   0.156  -2.792  0.00  0.00    +0.000 A 
ATOM      5  C   UNL     1       8.366   0.867  -3.681  0.00  0.00    +0.000 A 
ATOM      6  C   UNL     1       7.998   2.148  -4.084  0.00  0.00    +0.000 A 
ATOM      7  C   UNL     1       6.821   2.720  -3.599  0.00  0.00    +0.000 A 
ATOM      8  C   UNL     1       5.997   2.018  -2.704  0.00  0.00    +0.000 A 
ATOM      9  C   UNL     1       4.814   2.582  -2.202  0.00  0.00    +0.000 A 
ATOM     10  C   UNL     1       4.004   1.872  -1.311  0.00  0.00    +0.000 A 
ENDROOT
BRANCH   1  11
ATOM     11  O   UNL     1       3.651  -0.183  -0.026  0.00  0.00    +0.000 OA
BRANCH  11  13
ATOM     12  C   UNL     1       1.135   0.095  -0.100  0.00  0.00    +0.000 C 
ATOM     13  C   UNL     1       2.330  -0.025  -0.074  0.00  0.00    +0.000 C 
ENDBRANCH  11  13
ENDBRANCH   1  11
TORSDOF 2
