REMARK  Name = *****
REMARK  0 active torsions:
REMARK  status: ('A' for Active; 'I' for Inactive)
REMARK                            x       y       z     vdW  Elec       q    Type
REMARK                         _______ _______ _______ _____ _____    ______ ____
ROOT
ATOM      1  C   UNL     1       2.123  -0.707  -0.072  0.00  0.00    +0.000 A 
ATOM      2  C   UNL     1       2.124   0.707  -0.072  0.00  0.00    +0.000 A 
ATOM      3  C   UNL     1       0.921   1.422  -0.031  0.00  0.00    +0.000 A 
ATOM      4  C   UNL     1      -0.251   0.697   0.007  0.00  0.00    +0.000 A 
ATOM      5  C   UNL     1      -0.251  -0.697   0.008  0.00  0.00    +0.000 A 
ATOM      6  C   UNL     1       0.921  -1.421  -0.031  0.00  0.00    +0.000 A 
ATOM      7 BR   UNL     1       0.928  -3.305  -0.031  0.00  0.00    +0.000 Br
ATOM      8  N   UNL     1      -1.579  -1.122   0.051  0.00  0.00    +0.000 N 
ATOM      9  C   UNL     1      -2.415   0.000   0.078  0.00  0.00    +0.000 A 
ATOM     10  O   UNL     1      -3.632   0.000   0.118  0.00  0.00    +0.000 OA
ATOM     11  N   UNL     1      -1.579   1.123   0.051  0.00  0.00    +0.000 N 
ATOM     12 BR   UNL     1       0.928   3.306  -0.032  0.00  0.00    +0.000 Br
ATOM     13  H   UNL     1      -1.879  -2.060   0.061  0.00  0.00    +0.000 HD
ATOM     14  H   UNL     1      -1.879   2.060   0.061  0.00  0.00    +0.000 HD
ENDROOT
TORSDOF 0
