REMARK  Name = *****
REMARK  1 active torsions:
REMARK  status: ('A' for Active; 'I' for Inactive)
REMARK    1  A    between atoms: C_7  and  C_11
REMARK                            x       y       z     vdW  Elec       q    Type
REMARK                         _______ _______ _______ _____ _____    ______ ____
ROOT
ATOM      1  C   UNL     1       0.984  -1.411  -0.001  0.00  0.00    +0.000 A 
ATOM      2  C   UNL     1       2.160  -0.652  -0.002  0.00  0.00    +0.000 A 
ATOM      3  C   UNL     1       2.124   0.739  -0.002  0.00  0.00    +0.000 A 
ATOM      4  C   UNL     1       0.899   1.406  -0.002  0.00  0.00    +0.000 A 
ATOM      5  C   UNL     1      -0.277   0.646  -0.001  0.00  0.00    +0.000 A 
ATOM      6  C   UNL     1      -0.266  -0.754  -0.001  0.00  0.00    +0.000 A 
ATOM      7  C   UNL     1      -1.630  -1.200   0.001  0.00  0.00    +0.000 A 
ATOM      8  C   UNL     1      -2.396  -0.061   0.001  0.00  0.00    +0.000 A 
ATOM      9  N   UNL     1      -1.597   1.039  -0.000  0.00  0.00    +0.000 N 
ATOM     10 CL   UNL     1      -4.075   0.201   0.002  0.00  0.00    +0.000 Cl
ATOM     11 CL   UNL     1       0.839   3.123  -0.002  0.00  0.00    +0.000 Cl
ATOM     12 CL   UNL     1       3.683  -1.457  -0.003  0.00  0.00    +0.000 Cl
ATOM     13  H   UNL     1      -1.913   1.971  -0.000  0.00  0.00    +0.000 HD
ENDROOT
BRANCH   7  14
ATOM     14  C   UNL     1      -2.136  -2.558   0.002  0.00  0.00    +0.000 C 
ATOM     15  O   UNL     1      -1.415  -3.551   0.002  0.00  0.00    +0.000 OA
ENDBRANCH   7  14
TORSDOF 1
