REMARK  Name = *****
REMARK  0 active torsions:
REMARK  status: ('A' for Active; 'I' for Inactive)
REMARK                            x       y       z     vdW  Elec       q    Type
REMARK                         _______ _______ _______ _____ _____    ______ ____
ROOT
ATOM      1  C   UNL     1       2.547  -0.859   0.001  0.00  0.00    +0.000 A 
ATOM      2  C   UNL     1       1.458  -1.758   0.001  0.00  0.00    +0.000 A 
ATOM      3  C   UNL     1       0.121  -1.285   0.000  0.00  0.00    +0.000 A 
ATOM      4  C   UNL     1      -1.120  -1.982   0.000  0.00  0.00    +0.000 A 
ATOM      5  C   UNL     1      -2.352  -1.281   0.000  0.00  0.00    +0.000 A 
ATOM      6  C   UNL     1      -2.406   0.127  -0.000  0.00  0.00    +0.000 A 
ATOM      7  C   UNL     1      -1.184   0.770   0.000  0.00  0.00    +0.000 A 
ATOM      8  C   UNL     1       0.004   0.074   0.001  0.00  0.00    +0.000 A 
ATOM      9  C   UNL     1       1.046   0.988   0.001  0.00  0.00    +0.000 A 
ATOM     10  C   UNL     1       2.361   0.534   0.001  0.00  0.00    +0.000 A 
ATOM     11  C   UNL     1       0.513   2.336   0.001  0.00  0.00    +0.000 C 
ATOM     12  O   UNL     1       1.044   3.438   0.002  0.00  0.00    +0.000 OA
ATOM     13  N   UNL     1      -0.871   2.117   0.001  0.00  0.00    +0.000 N 
ATOM     14  I   UNL     1      -1.207  -4.077   0.001  0.00  0.00    +0.000 I 
ATOM     15  H   UNL     1      -1.542   2.837   0.001  0.00  0.00    +0.000 HD
ENDROOT
TORSDOF 0
