REMARK  Name = *****
REMARK  4 active torsions:
REMARK  status: ('A' for Active; 'I' for Inactive)
REMARK    1  A    between atoms: C_1  and  C_2
REMARK    2  A    between atoms: C_3  and  C_13
REMARK    3  A    between atoms: C_8  and  O_11
REMARK    4  A    between atoms: O_11  and  C_12
REMARK                            x       y       z     vdW  Elec       q    Type
REMARK                         _______ _______ _______ _____ _____    ______ ____
ROOT
ATOM      1  C   UNL     1       0.936  -0.036   0.196  0.00  0.00    +0.000 C 
ATOM      2  C   UNL     1       2.456  -0.015   0.085  0.00  0.00    +0.000 C 
ATOM      3  C   UNL     1       2.982   1.135  -0.766  0.00  0.00    +0.000 C 
ATOM      4  C   UNL     1       3.689   0.708  -1.828  0.00  0.00    +0.000 C 
ATOM      5  C   UNL     1       3.710  -0.743  -1.796  0.00  0.00    +0.000 A 
ATOM      6  C   UNL     1       2.993  -1.194  -0.683  0.00  0.00    +0.000 A 
ATOM      7  C   UNL     1       2.871  -2.549  -0.415  0.00  0.00    +0.000 A 
ATOM      8  C   UNL     1       3.470  -3.466  -1.286  0.00  0.00    +0.000 A 
ATOM      9  C   UNL     1       4.186  -3.006  -2.406  0.00  0.00    +0.000 A 
ATOM     10  C   UNL     1       4.310  -1.635  -2.665  0.00  0.00    +0.000 A 
ATOM     11  C   UNL     1       2.737   2.553  -0.388  0.00  0.00    +0.000 C 
ENDROOT
BRANCH   8  12
ATOM     12  O   UNL     1       3.288  -4.778  -0.937  0.00  0.00    +0.000 OA
ATOM     13  C   UNL     1       3.853  -5.757  -1.799  0.00  0.00    +0.000 C 
ENDBRANCH   8  12
TORSDOF 1
