REMARK  Name = *****
REMARK  2 active torsions:
REMARK  status: ('A' for Active; 'I' for Inactive)
REMARK    1  A    between atoms: C_1  and  C_2
REMARK    2  A    between atoms: C_3  and  C_13
REMARK                            x       y       z     vdW  Elec       q    Type
REMARK                         _______ _______ _______ _____ _____    ______ ____
ROOT
ATOM      1  C   UNL     1       1.000  -0.080   0.087  0.00  0.00    +0.000 C 
ATOM      2  C   UNL     1       2.488  -0.020   0.087  0.00  0.00    +0.000 A 
ATOM      3  C   UNL     1       3.291   1.110   0.088  0.00  0.00    +0.000 A 
ATOM      4  N   UNL     1       4.599   0.691   0.088  0.00  0.00    +0.000 N 
ATOM      5  C   UNL     1       4.671  -0.682   0.087  0.00  0.00    +0.000 A 
ATOM      6  C   UNL     1       3.361  -1.157   0.087  0.00  0.00    +0.000 A 
ATOM      7  C   UNL     1       3.152  -2.552   0.086  0.00  0.00    +0.000 A 
ATOM      8  C   UNL     1       4.259  -3.409   0.085  0.00  0.00    +0.000 A 
ATOM      9  C   UNL     1       5.559  -2.913   0.086  0.00  0.00    +0.000 A 
ATOM     10  C   UNL     1       5.780  -1.537   0.087  0.00  0.00    +0.000 A 
ATOM     11 CL   UNL     1       7.380  -0.911   0.087  0.00  0.00    +0.000 Cl
ATOM     12 CL   UNL     1       4.003  -5.113   0.084  0.00  0.00    +0.000 Cl
ATOM     13  C   UNL     1       2.967   2.561   0.088  0.00  0.00    +0.000 C 
ATOM     14  H   UNL     1       5.379   1.292   0.089  0.00  0.00    +0.000 HD
ENDROOT
TORSDOF 0
