REMARK  Name = *****
REMARK  2 active torsions:
REMARK  status: ('A' for Active; 'I' for Inactive)
REMARK    1  A    between atoms: C_1  and  O_2
REMARK    2  A    between atoms: O_2  and  C_3
REMARK                            x       y       z     vdW  Elec       q    Type
REMARK                         _______ _______ _______ _____ _____    ______ ____
ROOT
ATOM      1  C   UNL     1       2.783   0.744  -1.031  0.00  0.00    +0.000 A 
ATOM      2  C   UNL     1       3.795   0.268  -1.870  0.00  0.00    +0.000 A 
ATOM      3  C   UNL     1       4.508   1.134  -2.718  0.00  0.00    +0.000 A 
ATOM      4  C   UNL     1       5.524   0.673  -3.571  0.00  0.00    +0.000 A 
ATOM      5  C   UNL     1       6.223   1.535  -4.410  0.00  0.00    +0.000 A 
ATOM      6  C   UNL     1       5.908   2.887  -4.403  0.00  0.00    +0.000 A 
ATOM      7  C   UNL     1       4.903   3.379  -3.567  0.00  0.00    +0.000 A 
ATOM      8  C   UNL     1       4.195   2.511  -2.719  0.00  0.00    +0.000 A 
ATOM      9  C   UNL     1       3.180   2.980  -1.870  0.00  0.00    +0.000 A 
ATOM     10  C   UNL     1       2.480   2.103  -1.033  0.00  0.00    +0.000 A 
ATOM     11 BR   UNL     1       6.846   4.074  -5.537  0.00  0.00    +0.000 Br
ATOM     12  F   UNL     1       5.843  -0.631  -3.591  0.00  0.00    +0.000 F 
ENDROOT
BRANCH   1  14
ATOM     13  C   UNL     1       1.095   0.204   0.554  0.00  0.00    +0.000 C 
ATOM     14  O   UNL     1       2.177  -0.215  -0.268  0.00  0.00    +0.000 OA
ENDBRANCH   1  14
TORSDOF 1
