REMARK  Name = *****
REMARK  4 active torsions:
REMARK  status: ('A' for Active; 'I' for Inactive)
REMARK    1  A    between atoms: C_1  and  C_2
REMARK    2  A    between atoms: C_4  and  O_13
REMARK    3  A    between atoms: C_5  and  C_12
REMARK    4  A    between atoms: O_13  and  C_14
REMARK                            x       y       z     vdW  Elec       q    Type
REMARK                         _______ _______ _______ _____ _____    ______ ____
ROOT
ATOM      1  C   UNL     1       1.099   2.913   0.012  0.00  0.00    +0.000 C 
ATOM      2  C   UNL     1       1.027   1.406   0.007  0.00  0.00    +0.000 A 
ATOM      3  C   UNL     1       2.232   0.686  -0.006  0.00  0.00    +0.000 A 
ATOM      4  C   UNL     1       2.244  -0.708  -0.011  0.00  0.00    +0.000 A 
ATOM      5  C   UNL     1       1.024  -1.413   0.000  0.00  0.00    +0.000 A 
ATOM      6  C   UNL     1      -0.215  -0.705   0.011  0.00  0.00    +0.000 A 
ATOM      7  C   UNL     1      -1.468  -1.364   0.019  0.00  0.00    +0.000 A 
ATOM      8  C   UNL     1      -2.677  -0.667   0.029  0.00  0.00    +0.000 A 
ATOM      9  C   UNL     1      -2.668   0.717   0.033  0.00  0.00    +0.000 A 
ATOM     10  C   UNL     1      -1.451   1.397   0.025  0.00  0.00    +0.000 A 
ATOM     11  C   UNL     1      -0.211   0.716   0.015  0.00  0.00    +0.000 A 
ATOM     12  C   UNL     1       1.031  -2.927  -0.002  0.00  0.00    +0.000 C 
ENDROOT
BRANCH   4  13
ATOM     13  O   UNL     1       3.387  -1.465  -0.024  0.00  0.00    +0.000 OA
ATOM     14  C   UNL     1       4.635  -0.788  -0.071  0.00  0.00    +0.000 C 
ENDBRANCH   4  13
TORSDOF 1
