REMARK  Name = *****
REMARK  0 active torsions:
REMARK  status: ('A' for Active; 'I' for Inactive)
REMARK                            x       y       z     vdW  Elec       q    Type
REMARK                         _______ _______ _______ _____ _____    ______ ____
ROOT
ATOM      1  C   UNL     1       1.942   1.120   0.191  0.00  0.00    +0.000 A 
ATOM      2  C   UNL     1       0.626   1.563   0.078  0.00  0.00    +0.000 A 
ATOM      3  C   UNL     1      -0.387   0.637  -0.043  0.00  0.00    +0.000 A 
ATOM      4  C   UNL     1      -0.105  -0.738  -0.065  0.00  0.00    +0.000 A 
ATOM      5  C   UNL     1       1.191  -1.190   0.034  0.00  0.00    +0.000 A 
ATOM      6  C   UNL     1       2.215  -0.253   0.168  0.00  0.00    +0.000 A 
ATOM      7  F   UNL     1       3.486  -0.664   0.270  0.00  0.00    +0.000 F 
ATOM      8  F   UNL     1       1.460  -2.500  -0.002  0.00  0.00    +0.000 F 
ATOM      9  C   UNL     1      -1.376  -1.506  -0.251  0.00  0.00    +0.000 C 
ATOM     10  C   UNL     1      -2.394  -0.497   0.303  0.00  0.00    +0.000 C 
ATOM     11  C   UNL     1      -1.861   0.848  -0.214  0.00  0.00    +0.000 C 
ATOM     12  F   UNL     1      -2.188   1.022  -1.522  0.00  0.00    +0.000 F 
ATOM     13  F   UNL     1      -2.389   1.892   0.466  0.00  0.00    +0.000 F 
ATOM     14  F   UNL     1      -3.669  -0.754  -0.057  0.00  0.00    +0.000 F 
ATOM     15  F   UNL     1      -2.366  -0.513   1.672  0.00  0.00    +0.000 F 
ATOM     16  F   UNL     1      -1.616  -1.755  -1.565  0.00  0.00    +0.000 F 
ATOM     17  F   UNL     1      -1.445  -2.694   0.394  0.00  0.00    +0.000 F 
ATOM     18  F   UNL     1       0.357   2.871   0.084  0.00  0.00    +0.000 F 
ENDROOT
TORSDOF 0
