REMARK  Name = *****
REMARK  5 active torsions:
REMARK  status: ('A' for Active; 'I' for Inactive)
REMARK    1  A    between atoms: C_1  and  C_2
REMARK    2  A    between atoms: C_2  and  C_3
REMARK    3  A    between atoms: C_4  and  O_14
REMARK    4  A    between atoms: C_11  and  C_13
REMARK    5  A    between atoms: O_14  and  C_15
REMARK                            x       y       z     vdW  Elec       q    Type
REMARK                         _______ _______ _______ _____ _____    ______ ____
ROOT
ATOM      1  C   UNL     1       2.926  -1.363  -0.190  0.00  0.00    +0.000 A 
ATOM      2  C   UNL     1       4.294  -1.617  -0.514  0.00  0.00    +0.000 A 
ATOM      3  C   UNL     1       4.772  -2.919  -0.628  0.00  0.00    +0.000 A 
ATOM      4  C   UNL     1       3.916  -3.993  -0.425  0.00  0.00    +0.000 A 
ATOM      5  C   UNL     1       2.572  -3.795  -0.103  0.00  0.00    +0.000 A 
ATOM      6  C   UNL     1       2.041  -2.480   0.026  0.00  0.00    +0.000 A 
ATOM      7  C   UNL     1       0.664  -2.424   0.362  0.00  0.00    +0.000 A 
ATOM      8  C   UNL     1      -0.130  -3.565   0.553  0.00  0.00    +0.000 A 
ATOM      9  C   UNL     1       0.417  -4.832   0.417  0.00  0.00    +0.000 A 
ATOM     10  C   UNL     1       1.769  -4.934   0.090  0.00  0.00    +0.000 A 
ATOM     11  C   UNL     1      -0.409  -6.066   0.615  0.00  0.00    +0.000 C 
ENDROOT
BRANCH   1  13
ATOM     12  C   UNL     1       1.182   0.655   0.184  0.00  0.00    +0.000 C 
ATOM     13  C   UNL     1       2.573   0.123  -0.110  0.00  0.00    +0.000 C 
ENDBRANCH   1  13
BRANCH   2  14
ATOM     14  O   UNL     1       5.086  -0.506  -0.700  0.00  0.00    +0.000 OA
ATOM     15  C   UNL     1       6.460  -0.706  -1.006  0.00  0.00    +0.000 C 
ENDBRANCH   2  14
TORSDOF 2
