REMARK  Name = *****
REMARK  0 active torsions:
REMARK  status: ('A' for Active; 'I' for Inactive)
REMARK                            x       y       z     vdW  Elec       q    Type
REMARK                         _______ _______ _______ _____ _____    ______ ____
ROOT
ATOM      1  C   UNL     1      -2.221   1.079   0.345  0.00  0.00    +0.000 C 
ATOM      2  C   UNL     1      -2.484  -0.206  -0.416  0.00  0.00    +0.000 C 
ATOM      3  S   UNL     1      -1.396  -1.534   0.152  0.00  0.00    +0.000 S 
ATOM      4  C   UNL     1       0.178  -0.804   0.073  0.00  0.00    +0.000 A 
ATOM      5  C   UNL     1       0.467   0.508  -0.034  0.00  0.00    +0.000 A 
ATOM      6  S   UNL     1      -0.655   1.829  -0.159  0.00  0.00    +0.000 S 
ATOM      7  S   UNL     1       2.166   0.934  -0.085  0.00  0.00    +0.000 S 
ATOM      8  C   UNL     1       2.802  -0.691   0.057  0.00  0.00    +0.000 A 
ATOM      9  S   UNL     1       4.429  -1.047   0.078  0.00  0.00    +0.000 S 
ATOM     10  S   UNL     1       1.542  -1.900   0.174  0.00  0.00    +0.000 S 
ENDROOT
TORSDOF 0
