REMARK  Name = *****
REMARK  1 active torsions:
REMARK  status: ('A' for Active; 'I' for Inactive)
REMARK    1  A    between atoms: C_4  and  C_11
REMARK                            x       y       z     vdW  Elec       q    Type
REMARK                         _______ _______ _______ _____ _____    ______ ____
ROOT
ATOM      1  C   UNL     1       1.492  19.758  -2.071  0.00  0.00    +0.000 C 
ATOM      2  C   UNL     1       0.540  18.578  -1.881  0.00  0.00    +0.000 C 
ATOM      3  C   UNL     1      -0.851  19.029  -1.449  0.00  0.00    +0.000 C 
ATOM      4  C   UNL     1      -0.842  19.800  -0.098  0.00  0.00    +0.000 C 
ATOM      5  C   UNL     1      -0.939  18.779   1.070  0.00  0.00    +0.000 C 
ATOM      6  C   UNL     1      -0.558  19.385   2.417  0.00  0.00    +0.000 C 
ATOM      7  C   UNL     1       0.868  19.932   2.428  0.00  0.00    +0.000 C 
ATOM      8  C   UNL     1       1.457  20.135   1.034  0.00  0.00    +0.000 C 
ATOM      9  C   UNL     1       0.423  20.712   0.052  0.00  0.00    +0.000 C 
ATOM     10  C   UNL     1       1.068  21.014  -1.309  0.00  0.00    +0.000 C 
ATOM     11  C   UNL     1      -2.106  20.693  -0.080  0.00  0.00    +0.000 C 
ENDROOT
TORSDOF 0
