REMARK  Name = *****
REMARK  4 active torsions:
REMARK  status: ('A' for Active; 'I' for Inactive)
REMARK    1  A    between atoms: C_3  and  C_14
REMARK    2  A    between atoms: C_8  and  C_13
REMARK    3  A    between atoms: C_9  and  O_11
REMARK    4  A    between atoms: O_11  and  C_12
REMARK                            x       y       z     vdW  Elec       q    Type
REMARK                         _______ _______ _______ _____ _____    ______ ____
ROOT
ATOM      1  C   UNL     1       2.112  -0.181  -0.167  0.00  0.00    +0.000 A 
ATOM      2  C   UNL     1       2.709  -1.421   0.068  0.00  0.00    +0.000 A 
ATOM      3  C   UNL     1       4.015  -1.493   0.558  0.00  0.00    +0.000 A 
ATOM      4  C   UNL     1       4.711  -0.304   0.812  0.00  0.00    +0.000 A 
ATOM      5  C   UNL     1       4.119   0.951   0.581  0.00  0.00    +0.000 A 
ATOM      6  C   UNL     1       2.807   1.013   0.085  0.00  0.00    +0.000 A 
ATOM      7  C   UNL     1       2.227   2.272  -0.142  0.00  0.00    +0.000 A 
ATOM      8  C   UNL     1       2.912   3.484   0.114  0.00  0.00    +0.000 A 
ATOM      9  C   UNL     1       4.221   3.414   0.610  0.00  0.00    +0.000 A 
ATOM     10  C   UNL     1       4.801   2.150   0.835  0.00  0.00    +0.000 A 
ATOM     11  C   UNL     1       2.149   4.747  -0.164  0.00  0.00    +0.000 C 
ATOM     12  C   UNL     1       4.674  -2.815   0.816  0.00  0.00    +0.000 C 
ENDROOT
BRANCH   9  13
ATOM     13  O   UNL     1       5.090   4.411   0.952  0.00  0.00    +0.000 OA
ATOM     14  C   UNL     1       4.790   5.769   0.697  0.00  0.00    +0.000 C 
ENDBRANCH   9  13
TORSDOF 1
