REMARK  Name = *****
REMARK  1 active torsions:
REMARK  status: ('A' for Active; 'I' for Inactive)
REMARK    1  A    between atoms: C_1  and  C_2
REMARK                            x       y       z     vdW  Elec       q    Type
REMARK                         _______ _______ _______ _____ _____    ______ ____
ROOT
ATOM      1  C   UNL     1       0.991   0.012  -0.014  0.00  0.00    +0.000 C 
ATOM      2  C   UNL     1       2.487   0.069  -0.018  0.00  0.00    +0.000 A 
ATOM      3  C   UNL     1       3.159   1.302  -0.023  0.00  0.00    +0.000 A 
ATOM      4  C   UNL     1       4.564   1.360  -0.028  0.00  0.00    +0.000 A 
ATOM      5  C   UNL     1       5.334   0.198  -0.027  0.00  0.00    +0.000 A 
ATOM      6  C   UNL     1       4.669  -1.014  -0.023  0.00  0.00    +0.000 A 
ATOM      7  C   UNL     1       3.273  -1.078  -0.019  0.00  0.00    +0.000 A 
ATOM      8  N   UNL     1       2.796  -2.392  -0.015  0.00  0.00    +0.000 N 
ATOM      9  C   UNL     1       3.759  -3.378  -0.016  0.00  0.00    +0.000 A 
ATOM     10  S   UNL     1       3.415  -4.997  -0.013  0.00  0.00    +0.000 S 
ATOM     11  S   UNL     1       5.366  -2.645  -0.022  0.00  0.00    +0.000 S 
ATOM     12 CL   UNL     1       5.346   2.894  -0.033  0.00  0.00    +0.000 Cl
ATOM     13  H   UNL     1       1.834  -2.600  -0.012  0.00  0.00    +0.000 HD
ENDROOT
TORSDOF 0
