REMARK  Name = *****
REMARK  0 active torsions:
REMARK  status: ('A' for Active; 'I' for Inactive)
REMARK                            x       y       z     vdW  Elec       q    Type
REMARK                         _______ _______ _______ _____ _____    ______ ____
ROOT
ATOM      1  C   UNL     1       2.140  -0.659  -0.001  0.00  0.00    +0.000 A 
ATOM      2  C   UNL     1       0.954  -1.404  -0.001  0.00  0.00    +0.000 A 
ATOM      3  C   UNL     1      -0.291  -0.737  -0.002  0.00  0.00    +0.000 A 
ATOM      4  C   UNL     1      -0.295   0.664  -0.003  0.00  0.00    +0.000 A 
ATOM      5  C   UNL     1       0.886   1.415  -0.003  0.00  0.00    +0.000 A 
ATOM      6  C   UNL     1       2.105   0.734  -0.002  0.00  0.00    +0.000 A 
ATOM      7 CL   UNL     1       0.843   3.132  -0.005  0.00  0.00    +0.000 Cl
ATOM      8  N   UNL     1      -1.615   1.066  -0.004  0.00  0.00    +0.000 N 
ATOM      9  C   UNL     1      -2.421  -0.029  -0.002  0.00  0.00    +0.000 A 
ATOM     10  C   UNL     1      -1.654  -1.162  -0.002  0.00  0.00    +0.000 A 
ATOM     11 CL   UNL     1      -2.183  -2.777  -0.000  0.00  0.00    +0.000 Cl
ATOM     12 CL   UNL     1      -4.099   0.232  -0.001  0.00  0.00    +0.000 Cl
ATOM     13  H   UNL     1      -1.925   2.000  -0.005  0.00  0.00    +0.000 HD
ENDROOT
TORSDOF 0
