REMARK  Name = *****
REMARK  3 active torsions:
REMARK  status: ('A' for Active; 'I' for Inactive)
REMARK    1  A    between atoms: C_1  and  C_2
REMARK    2  A    between atoms: C_9  and  O_11
REMARK    3  A    between atoms: O_11  and  C_12
REMARK                            x       y       z     vdW  Elec       q    Type
REMARK                         _______ _______ _______ _____ _____    ______ ____
ROOT
ATOM      1  C   UNL     1       1.014   0.054   0.061  0.00  0.00    +0.000 C 
ATOM      2  C   UNL     1       2.505   0.175   0.061  0.00  0.00    +0.000 A 
ATOM      3  C   UNL     1       3.242   1.340   0.062  0.00  0.00    +0.000 A 
ATOM      4  S   UNL     1       4.915   1.096   0.062  0.00  0.00    +0.000 S 
ATOM      5  C   UNL     1       4.735  -0.612   0.061  0.00  0.00    +0.000 A 
ATOM      6  C   UNL     1       3.388  -0.981   0.060  0.00  0.00    +0.000 A 
ATOM      7  C   UNL     1       3.091  -2.367   0.058  0.00  0.00    +0.000 A 
ATOM      8  C   UNL     1       4.114  -3.326   0.058  0.00  0.00    +0.000 A 
ATOM      9  C   UNL     1       5.445  -2.933   0.060  0.00  0.00    +0.000 A 
ATOM     10  C   UNL     1       5.766  -1.572   0.061  0.00  0.00    +0.000 A 
ATOM     11 BR   UNL     1       2.522   3.078   0.064  0.00  0.00    +0.000 Br
ENDROOT
BRANCH   9  12
ATOM     12  O   UNL     1       6.530  -3.768   0.061  0.00  0.00    +0.000 OA
ATOM     13  C   UNL     1       6.268  -5.166   0.061  0.00  0.00    +0.000 C 
ENDBRANCH   9  12
TORSDOF 1
