REMARK  Name = *****
REMARK  0 active torsions:
REMARK  status: ('A' for Active; 'I' for Inactive)
REMARK                            x       y       z     vdW  Elec       q    Type
REMARK                         _______ _______ _______ _____ _____    ______ ____
ROOT
ATOM      1  C   UNL     1       0.689   1.578   0.000  0.00  0.00    +0.000 A 
ATOM      2  C   UNL     1       1.988   1.062   0.000  0.00  0.00    +0.000 A 
ATOM      3  C   UNL     1       2.217  -0.333  -0.001  0.00  0.00    +0.000 A 
ATOM      4  C   UNL     1       1.142  -1.238  -0.002  0.00  0.00    +0.000 A 
ATOM      5  C   UNL     1      -0.140  -0.711  -0.002  0.00  0.00    +0.000 A 
ATOM      6  C   UNL     1      -0.347   0.667  -0.001  0.00  0.00    +0.000 A 
ATOM      7  C   UNL     1      -1.795   0.890  -0.001  0.00  0.00    +0.000 C 
ATOM      8  O   UNL     1      -2.365   1.956  -0.000  0.00  0.00    +0.000 OA
ATOM      9  C   UNL     1      -2.427  -0.529  -0.001  0.00  0.00    +0.000 C 
ATOM     10  O   UNL     1      -3.608  -0.791  -0.001  0.00  0.00    +0.000 OA
ATOM     11  N   UNL     1      -1.357  -1.400  -0.002  0.00  0.00    +0.000 N 
ATOM     12 CL   UNL     1       1.358  -2.949  -0.003  0.00  0.00    +0.000 Cl
ATOM     13 CL   UNL     1       3.862  -0.865  -0.001  0.00  0.00    +0.000 Cl
ATOM     14  H   UNL     1      -1.440  -2.381  -0.003  0.00  0.00    +0.000 HD
ENDROOT
TORSDOF 0
