REMARK  Name = *****
REMARK  0 active torsions:
REMARK  status: ('A' for Active; 'I' for Inactive)
REMARK                            x       y       z     vdW  Elec       q    Type
REMARK                         _______ _______ _______ _____ _____    ______ ____
ROOT
ATOM      1  C   UNL     1      -0.958   1.442   0.002  0.00  0.00    +0.000 A 
ATOM      2  C   UNL     1       0.223   0.731   0.000  0.00  0.00    +0.000 A 
ATOM      3  C   UNL     1       0.211  -0.662  -0.000  0.00  0.00    +0.000 A 
ATOM      4  N   UNL     1      -0.898  -1.414   0.000  0.00  0.00    +0.000 NA
ATOM      5  C   UNL     1      -2.058  -0.707   0.001  0.00  0.00    +0.000 A 
ATOM      6  C   UNL     1      -2.141   0.697   0.002  0.00  0.00    +0.000 A 
ATOM      7 CL   UNL     1      -3.640   1.548   0.003  0.00  0.00    +0.000 Cl
ATOM      8 CL   UNL     1      -3.449  -1.722   0.002  0.00  0.00    +0.000 Cl
ATOM      9  N   UNL     1       1.540  -1.097  -0.002  0.00  0.00    +0.000 N 
ATOM     10  C   UNL     1       2.403   0.024  -0.002  0.00  0.00    +0.000 A 
ATOM     11  O   UNL     1       3.625   0.020  -0.003  0.00  0.00    +0.000 OA
ATOM     12  N   UNL     1       1.551   1.160  -0.001  0.00  0.00    +0.000 N 
ATOM     13 BR   UNL     1       2.119   2.924   0.000  0.00  0.00    +0.000 Br
ATOM     14 BR   UNL     1       2.066  -2.872  -0.003  0.00  0.00    +0.000 Br
ENDROOT
TORSDOF 0
