REMARK  Name = *****
REMARK  3 active torsions:
REMARK  status: ('A' for Active; 'I' for Inactive)
REMARK    1  A    between atoms: C_1  and  C_2
REMARK    2  A    between atoms: C_5  and  O_13
REMARK    3  A    between atoms: O_13  and  C_14
REMARK                            x       y       z     vdW  Elec       q    Type
REMARK                         _______ _______ _______ _____ _____    ______ ____
ROOT
ATOM      1  C   UNL     1       0.922   0.024   0.085  0.00  0.00    +0.000 C 
ATOM      2  C   UNL     1       2.421   0.004   0.086  0.00  0.00    +0.000 A 
ATOM      3  C   UNL     1       3.201  -1.165   0.089  0.00  0.00    +0.000 A 
ATOM      4  C   UNL     1       4.618  -1.117   0.089  0.00  0.00    +0.000 A 
ATOM      5  C   UNL     1       5.301   0.101   0.088  0.00  0.00    +0.000 A 
ATOM      6  C   UNL     1       4.528   1.248   0.086  0.00  0.00    +0.000 A 
ATOM      7  C   UNL     1       3.134   1.197   0.085  0.00  0.00    +0.000 A 
ATOM      8  C   UNL     1       2.670   2.594   0.083  0.00  0.00    +0.000 C 
ATOM      9  O   UNL     1       1.528   2.992   0.082  0.00  0.00    +0.000 OA
ATOM     10  C   UNL     1       3.956   3.463   0.083  0.00  0.00    +0.000 C 
ATOM     11  O   UNL     1       4.007   4.672   0.081  0.00  0.00    +0.000 OA
ATOM     12  N   UNL     1       4.996   2.562   0.084  0.00  0.00    +0.000 N 
ATOM     13 CL   UNL     1       2.482  -2.739   0.091  0.00  0.00    +0.000 Cl
ATOM     14  H   UNL     1       5.948   2.812   0.084  0.00  0.00    +0.000 HD
ENDROOT
BRANCH   5  15
ATOM     15  O   UNL     1       6.653   0.277   0.088  0.00  0.00    +0.000 OA
ATOM     16  C   UNL     1       7.457  -0.898   0.090  0.00  0.00    +0.000 C 
ENDBRANCH   5  15
TORSDOF 1
