REMARK  Name = *****
REMARK  0 active torsions:
REMARK  status: ('A' for Active; 'I' for Inactive)
REMARK                            x       y       z     vdW  Elec       q    Type
REMARK                         _______ _______ _______ _____ _____    ______ ____
ROOT
ATOM      1  C   UNL     1       1.260  -1.234  -0.038  0.00  0.00    +0.000 A 
ATOM      2  C   UNL     1       2.274  -0.279  -0.013  0.00  0.00    +0.000 A 
ATOM      3  C   UNL     1       1.976   1.085  -0.011  0.00  0.00    +0.000 A 
ATOM      4  C   UNL     1       0.644   1.502  -0.035  0.00  0.00    +0.000 A 
ATOM      5  C   UNL     1      -0.390   0.561  -0.052  0.00  0.00    +0.000 A 
ATOM      6  C   UNL     1      -0.063  -0.803  -0.065  0.00  0.00    +0.000 A 
ATOM      7  S   UNL     1      -1.468  -1.884  -0.041  0.00  0.00    +0.000 S 
ATOM      8  S   UNL     1      -2.828  -0.388  -0.100  0.00  0.00    +0.000 S 
ATOM      9  O   UNL     1      -3.415  -0.489   1.273  0.00  0.00    +0.000 OA
ATOM     10  N   UNL     1      -1.759   0.902  -0.148  0.00  0.00    +0.000 N 
ATOM     11 CL   UNL     1       0.299   3.193  -0.036  0.00  0.00    +0.000 Cl
ATOM     12 CL   UNL     1       3.918  -0.788   0.019  0.00  0.00    +0.000 Cl
ATOM     13  H   UNL     1      -2.064   1.834  -0.236  0.00  0.00    +0.000 HD
ENDROOT
TORSDOF 0
