REMARK  Name = *****
REMARK  6 active torsions:
REMARK  status: ('A' for Active; 'I' for Inactive)
REMARK    1  A    between atoms: C_1  and  C_2
REMARK    2  A    between atoms: C_3  and  C_16
REMARK    3  A    between atoms: C_4  and  C_15
REMARK    4  A    between atoms: C_7  and  O_13
REMARK    5  A    between atoms: C_11  and  C_12
REMARK    6  A    between atoms: O_13  and  C_14
REMARK                            x       y       z     vdW  Elec       q    Type
REMARK                         _______ _______ _______ _____ _____    ______ ____
ROOT
ATOM      1  C   UNL     1       0.906  -0.025  -0.115  0.00  0.00    +0.000 C 
ATOM      2  C   UNL     1       2.419  -0.027  -0.075  0.00  0.00    +0.000 A 
ATOM      3  C   UNL     1       3.129   1.196  -0.022  0.00  0.00    +0.000 A 
ATOM      4  C   UNL     1       4.543   1.194  -0.143  0.00  0.00    +0.000 A 
ATOM      5  C   UNL     1       5.264  -0.037  -0.171  0.00  0.00    +0.000 A 
ATOM      6  C   UNL     1       6.682  -0.090  -0.219  0.00  0.00    +0.000 A 
ATOM      7  C   UNL     1       7.401  -1.286  -0.266  0.00  0.00    +0.000 A 
ATOM      8  C   UNL     1       6.705  -2.480  -0.267  0.00  0.00    +0.000 A 
ATOM      9  C   UNL     1       5.308  -2.464  -0.204  0.00  0.00    +0.000 A 
ATOM     10  C   UNL     1       4.555  -1.264  -0.140  0.00  0.00    +0.000 A 
ATOM     11  C   UNL     1       3.131  -1.254  -0.058  0.00  0.00    +0.000 A 
ATOM     12  C   UNL     1       2.374  -2.566   0.022  0.00  0.00    +0.000 C 
ATOM     13  C   UNL     1       5.298   2.507  -0.220  0.00  0.00    +0.000 C 
ATOM     14  C   UNL     1       2.380   2.502   0.129  0.00  0.00    +0.000 C 
ENDROOT
BRANCH   7  15
ATOM     15  O   UNL     1       8.759  -1.142  -0.312  0.00  0.00    +0.000 OA
ATOM     16  C   UNL     1       9.531  -2.335  -0.362  0.00  0.00    +0.000 C 
ENDBRANCH   7  15
TORSDOF 1
