REMARK  Name = *****
REMARK  2 active torsions:
REMARK  status: ('A' for Active; 'I' for Inactive)
REMARK    1  A    between atoms: C_1  and  O_2
REMARK    2  A    between atoms: O_2  and  C_3
REMARK                            x       y       z     vdW  Elec       q    Type
REMARK                         _______ _______ _______ _____ _____    ______ ____
ROOT
ATOM      1  C   UNL     1       2.307  -0.725  -1.408  0.00  0.00    +0.000 C 
ATOM      2  S   UNL     1       1.851  -2.469  -1.747  0.00  0.00    +0.000 S 
ATOM      3  C   UNL     1       3.469  -3.020  -1.976  0.00  0.00    +0.000 A 
ATOM      4  C   UNL     1       4.442  -2.111  -2.092  0.00  0.00    +0.000 A 
ATOM      5  S   UNL     1       4.019  -0.442  -2.005  0.00  0.00    +0.000 S 
ATOM      6  S   UNL     1       6.049  -2.683  -2.355  0.00  0.00    +0.000 S 
ATOM      7  C   UNL     1       5.625  -4.391  -2.343  0.00  0.00    +0.000 A 
ATOM      8  O   UNL     1       6.443  -5.285  -2.495  0.00  0.00    +0.000 OA
ATOM      9  S   UNL     1       3.907  -4.685  -2.099  0.00  0.00    +0.000 S 
ENDROOT
BRANCH   1  11
ATOM     10  C   UNL     1       0.982   0.076   0.381  0.00  0.00    +0.000 C 
ATOM     11  O   UNL     1       2.243  -0.447  -0.012  0.00  0.00    +0.000 OA
ENDBRANCH   1  11
TORSDOF 1
