REMARK  Name = *****
REMARK  0 active torsions:
REMARK  status: ('A' for Active; 'I' for Inactive)
REMARK                            x       y       z     vdW  Elec       q    Type
REMARK                         _______ _______ _______ _____ _____    ______ ____
ROOT
ATOM      1  C   UNL     1       0.919  -1.415  -0.028  0.00  0.00    +0.000 A 
ATOM      2  C   UNL     1       2.115  -0.691  -0.040  0.00  0.00    +0.000 A 
ATOM      3  C   UNL     1       2.131   0.720  -0.040  0.00  0.00    +0.000 A 
ATOM      4  C   UNL     1       0.932   1.437  -0.027  0.00  0.00    +0.000 A 
ATOM      5  C   UNL     1      -0.242   0.717  -0.015  0.00  0.00    +0.000 A 
ATOM      6  C   UNL     1      -0.242  -0.678  -0.015  0.00  0.00    +0.000 A 
ATOM      7  N   UNL     1      -1.566  -1.112  -0.003  0.00  0.00    +0.000 N 
ATOM      8  C   UNL     1      -2.399   0.014   0.005  0.00  0.00    +0.000 A 
ATOM      9  S   UNL     1      -4.046   0.007   0.020  0.00  0.00    +0.000 S 
ATOM     10  N   UNL     1      -1.573   1.143  -0.002  0.00  0.00    +0.000 N 
ATOM     11 CL   UNL     1       0.939   3.153  -0.026  0.00  0.00    +0.000 Cl
ATOM     12 CL   UNL     1       3.612  -1.545  -0.057  0.00  0.00    +0.000 Cl
ATOM     13  H   UNL     1      -1.865  -2.050   0.000  0.00  0.00    +0.000 HD
ATOM     14  H   UNL     1      -1.878   2.079   0.002  0.00  0.00    +0.000 HD
ENDROOT
TORSDOF 0
