REMARK  Name = *****
REMARK  1 active torsions:
REMARK  status: ('A' for Active; 'I' for Inactive)
REMARK    1  A    between atoms: C_8  and  N_10
REMARK                            x       y       z     vdW  Elec       q    Type
REMARK                         _______ _______ _______ _____ _____    ______ ____
ROOT
ATOM      1  C   UNL     1      -2.493  -0.463  -0.231  0.00  0.00    +0.000 A 
ATOM      2  C   UNL     1      -2.350   0.904  -0.033  0.00  0.00    +0.000 A 
ATOM      3  C   UNL     1      -1.089   1.460   0.196  0.00  0.00    +0.000 A 
ATOM      4  C   UNL     1       0.035   0.612   0.219  0.00  0.00    +0.000 A 
ATOM      5  C   UNL     1      -0.083  -0.764   0.019  0.00  0.00    +0.000 A 
ATOM      6  C   UNL     1      -1.374  -1.300  -0.206  0.00  0.00    +0.000 A 
ATOM      7  C   UNL     1       1.196  -1.408   0.089  0.00  0.00    +0.000 A 
ATOM      8  C   UNL     1       2.249  -0.539   0.308  0.00  0.00    +0.000 A 
ATOM      9  S   UNL     1       1.671   1.067   0.491  0.00  0.00    +0.000 S 
ENDROOT
BRANCH   8  10
ATOM     10  N   UNL     1       3.577  -0.806   0.446  0.00  0.00    +0.000 NA
ATOM     11  C   UNL     1       4.121  -0.931  -0.588  0.00  0.00    +0.000 C 
ATOM     12  S   UNL     1       4.890  -1.109  -1.973  0.00  0.00    +0.000 S 
ENDBRANCH   8  10
TORSDOF 1
