REMARK  Name = *****
REMARK  3 active torsions:
REMARK  status: ('A' for Active; 'I' for Inactive)
REMARK    1  A    between atoms: C_1  and  C_2
REMARK    2  A    between atoms: C_9  and  C_11
REMARK    3  A    between atoms: C_11  and  C_13
REMARK                            x       y       z     vdW  Elec       q    Type
REMARK                         _______ _______ _______ _____ _____    ______ ____
ROOT
ATOM      1  C   UNL     1       3.354  -0.596  -0.096  0.00  0.00    +0.000 C 
ATOM      2  C   UNL     1       1.912  -0.184  -0.037  0.00  0.00    +0.000 A 
ATOM      3  C   UNL     1       0.891  -1.148  -0.085  0.00  0.00    +0.000 A 
ATOM      4  C   UNL     1      -0.458  -0.741  -0.035  0.00  0.00    +0.000 A 
ATOM      5  C   UNL     1      -0.746   0.618   0.061  0.00  0.00    +0.000 A 
ATOM      6  C   UNL     1       0.249   1.600   0.109  0.00  0.00    +0.000 A 
ATOM      7  C   UNL     1       1.581   1.173   0.056  0.00  0.00    +0.000 A 
ATOM      8  N   UNL     1      -2.117   0.737   0.100  0.00  0.00    +0.000 N 
ATOM      9  C   UNL     1      -2.718  -0.497   0.009  0.00  0.00    +0.000 A 
ATOM     10  C   UNL     1      -1.701  -1.430  -0.052  0.00  0.00    +0.000 A 
ATOM     11  H   UNL     1      -2.601   1.590   0.182  0.00  0.00    +0.000 HD
ENDROOT
BRANCH   9  12
ATOM     12  C   UNL     1      -4.140  -0.623   0.059  0.00  0.00    +0.000 C 
ATOM     13  C   UNL     1      -4.893   0.284  -0.591  0.00  0.00    +0.000 C 
ATOM     14  C   UNL     1      -4.825  -1.768   0.773  0.00  0.00    +0.000 C 
ENDBRANCH   9  12
TORSDOF 1
