REMARK  Name = *****
REMARK  1 active torsions:
REMARK  status: ('A' for Active; 'I' for Inactive)
REMARK    1  A    between atoms: C_1  and  C_2
REMARK                            x       y       z     vdW  Elec       q    Type
REMARK                         _______ _______ _______ _____ _____    ______ ____
ROOT
ATOM      1  C   UNL     1       0.914  -0.003   0.202  0.00  0.00    +0.000 C 
ATOM      2  C   UNL     1       2.386  -0.088  -0.107  0.00  0.00    +0.000 C 
ATOM      3  C   UNL     1       3.057  -1.238   0.070  0.00  0.00    +0.000 C 
ATOM      4  S   UNL     1       4.729  -1.509  -0.277  0.00  0.00    +0.000 S 
ATOM      5  C   UNL     1       5.353   0.058   0.125  0.00  0.00    +0.000 A 
ATOM      6  C   UNL     1       4.699   1.218  -0.062  0.00  0.00    +0.000 A 
ATOM      7  S   UNL     1       3.111   1.365  -0.744  0.00  0.00    +0.000 S 
ATOM      8  S   UNL     1       5.545   2.680   0.380  0.00  0.00    +0.000 S 
ATOM      9  C   UNL     1       7.020   1.906   0.928  0.00  0.00    +0.000 A 
ATOM     10  S   UNL     1       8.332   2.742   1.525  0.00  0.00    +0.000 S 
ATOM     11  S   UNL     1       6.966   0.160   0.785  0.00  0.00    +0.000 S 
ENDROOT
TORSDOF 0
