REMARK  Name = *****
REMARK  4 active torsions:
REMARK  status: ('A' for Active; 'I' for Inactive)
REMARK    1  A    between atoms: C_1  and  C_2
REMARK    2  A    between atoms: C_2  and  O_3
REMARK    3  A    between atoms: O_3  and  C_4
REMARK    4  A    between atoms: C_5  and  C_14
REMARK                            x       y       z     vdW  Elec       q    Type
REMARK                         _______ _______ _______ _____ _____    ______ ____
ROOT
ATOM      1  C   UNL     1       4.373  -1.095  -1.027  0.00  0.00    +0.000 A 
ATOM      2  C   UNL     1       5.233  -1.153   0.089  0.00  0.00    +0.000 A 
ATOM      3  C   UNL     1       6.636  -1.330  -0.104  0.00  0.00    +0.000 A 
ATOM      4  C   UNL     1       7.577  -1.347   0.953  0.00  0.00    +0.000 A 
ATOM      5  C   UNL     1       8.944  -1.521   0.721  0.00  0.00    +0.000 A 
ATOM      6  C   UNL     1       9.411  -1.685  -0.575  0.00  0.00    +0.000 A 
ATOM      7  C   UNL     1       8.511  -1.672  -1.639  0.00  0.00    +0.000 A 
ATOM      8  C   UNL     1       7.134  -1.494  -1.420  0.00  0.00    +0.000 A 
ATOM      9  C   UNL     1       6.250  -1.477  -2.504  0.00  0.00    +0.000 A 
ATOM     10  C   UNL     1       4.883  -1.280  -2.312  0.00  0.00    +0.000 A 
ATOM     11  C   UNL     1       4.672  -0.985   1.482  0.00  0.00    +0.000 C 
ENDROOT
BRANCH   1  12
ATOM     12  O   UNL     1       3.040  -0.891  -0.774  0.00  0.00    +0.000 OA
BRANCH  12  14
ATOM     13  C   UNL     1       0.992   0.248  -1.200  0.00  0.00    +0.000 C 
ATOM     14  C   UNL     1       2.288  -0.258  -1.809  0.00  0.00    +0.000 C 
ENDBRANCH  12  14
ENDBRANCH   1  12
TORSDOF 2
