REMARK  Name = *****
REMARK  0 active torsions:
REMARK  status: ('A' for Active; 'I' for Inactive)
REMARK                            x       y       z     vdW  Elec       q    Type
REMARK                         _______ _______ _______ _____ _____    ______ ____
ROOT
ATOM      1  C   UNL     1      -1.211  -1.412   0.042  0.00  0.00    +0.000 A 
ATOM      2  C   UNL     1      -0.006  -0.712   0.012  0.00  0.00    +0.000 A 
ATOM      3  C   UNL     1       0.018   0.693   0.011  0.00  0.00    +0.000 A 
ATOM      4  C   UNL     1      -1.191   1.390   0.041  0.00  0.00    +0.000 A 
ATOM      5  C   UNL     1      -2.406   0.699   0.072  0.00  0.00    +0.000 A 
ATOM      6  C   UNL     1      -2.415  -0.702   0.072  0.00  0.00    +0.000 A 
ATOM      7 CL   UNL     1      -3.881  -1.618   0.109  0.00  0.00    +0.000 Cl
ATOM      8 CL   UNL     1      -3.860   1.632   0.109  0.00  0.00    +0.000 Cl
ATOM      9  N   UNL     1       1.218   1.426  -0.019  0.00  0.00    +0.000 NA
ATOM     10  C   UNL     1       2.330   0.756  -0.044  0.00  0.00    +0.000 A 
ATOM     11  C   UNL     1       2.409  -0.754  -0.045  0.00  0.00    +0.000 A 
ATOM     12  O   UNL     1       3.498  -1.305  -0.069  0.00  0.00    +0.000 OA
ATOM     13  N   UNL     1       1.206  -1.412  -0.017  0.00  0.00    +0.000 N 
ATOM     14  H   UNL     1       1.194  -2.397  -0.017  0.00  0.00    +0.000 HD
ENDROOT
TORSDOF 0
