REMARK  Name = *****
REMARK  4 active torsions:
REMARK  status: ('A' for Active; 'I' for Inactive)
REMARK    1  A    between atoms: C_1  and  C_2
REMARK    2  A    between atoms: C_2  and  O_3
REMARK    3  A    between atoms: O_3  and  C_4
REMARK    4  A    between atoms: C_11  and  C_14
REMARK                            x       y       z     vdW  Elec       q    Type
REMARK                         _______ _______ _______ _____ _____    ______ ____
ROOT
ATOM      1  C   UNL     1       4.329   0.030   1.497  0.00  0.00    +0.000 A 
ATOM      2  C   UNL     1       4.847  -0.894   2.409  0.00  0.00    +0.000 A 
ATOM      3  C   UNL     1       6.226  -0.960   2.677  0.00  0.00    +0.000 A 
ATOM      4  C   UNL     1       7.100  -0.074   2.012  0.00  0.00    +0.000 A 
ATOM      5  C   UNL     1       6.571   0.849   1.098  0.00  0.00    +0.000 A 
ATOM      6  C   UNL     1       5.197   0.901   0.841  0.00  0.00    +0.000 A 
ATOM      7  C   UNL     1       8.479  -0.133   2.278  0.00  0.00    +0.000 A 
ATOM      8  C   UNL     1       9.001  -1.058   3.191  0.00  0.00    +0.000 A 
ATOM      9  C   UNL     1       8.128  -1.933   3.845  0.00  0.00    +0.000 A 
ATOM     10  C   UNL     1       6.755  -1.885   3.591  0.00  0.00    +0.000 A 
ATOM     11  C   UNL     1      10.473  -1.115   3.475  0.00  0.00    +0.000 C 
ENDROOT
BRANCH   1  12
ATOM     12  O   UNL     1       2.970  -0.018   1.339  0.00  0.00    +0.000 OA
BRANCH  12  14
ATOM     13  C   UNL     1       0.894   0.677   0.390  0.00  0.00    +0.000 C 
ATOM     14  C   UNL     1       2.397   0.889   0.398  0.00  0.00    +0.000 C 
ENDBRANCH  12  14
ENDBRANCH   1  12
TORSDOF 2
