REMARK  Name = *****
REMARK  1 active torsions:
REMARK  status: ('A' for Active; 'I' for Inactive)
REMARK    1  A    between atoms: C_9  and  S_11
REMARK                            x       y       z     vdW  Elec       q    Type
REMARK                         _______ _______ _______ _____ _____    ______ ____
ROOT
ATOM      1  N   UNL     1       2.841  -0.177  -0.078  0.00  0.00    +0.000 N 
ATOM      2  C   UNL     1       3.796  -1.175  -0.075  0.00  0.00    +0.000 C 
ATOM      3  O   UNL     1       3.600  -2.376  -0.117  0.00  0.00    +0.000 OA
ATOM      4  C   UNL     1       5.126  -0.458  -0.029  0.00  0.00    +0.000 C 
ATOM      5  C   UNL     1       4.827   0.982  -0.049  0.00  0.00    +0.000 A 
ATOM      6  C   UNL     1       3.426   1.083  -0.067  0.00  0.00    +0.000 A 
ATOM      7  C   UNL     1       2.749   2.289  -0.086  0.00  0.00    +0.000 A 
ATOM      8  C   UNL     1       3.513   3.456  -0.092  0.00  0.00    +0.000 A 
ATOM      9  C   UNL     1       4.917   3.372  -0.088  0.00  0.00    +0.000 A 
ATOM     10  C   UNL     1       5.585   2.137  -0.066  0.00  0.00    +0.000 A 
ATOM     11  C   UNL     1       6.244  -1.199   0.028  0.00  0.00    +0.000 C 
ATOM     12  N   UNL     1       6.336  -2.586   0.035  0.00  0.00    +0.000 N 
ATOM     13  C   UNL     1       7.661  -2.986  -0.048  0.00  0.00    +0.000 A 
ATOM     14  C   UNL     1       8.177  -4.263  -0.079  0.00  0.00    +0.000 A 
ATOM     15  C   UNL     1       9.571  -4.412  -0.091  0.00  0.00    +0.000 A 
ATOM     16  C   UNL     1      10.424  -3.291  -0.053  0.00  0.00    +0.000 A 
ATOM     17  C   UNL     1       9.898  -2.000   0.002  0.00  0.00    +0.000 A 
ATOM     18  C   UNL     1       8.522  -1.886   0.008  0.00  0.00    +0.000 A 
ATOM     19  C   UNL     1       7.673  -0.682   0.073  0.00  0.00    +0.000 C 
ATOM     20  O   UNL     1       8.088   0.454   0.148  0.00  0.00    +0.000 OA
ATOM     21  H   UNL     1       1.870  -0.339  -0.086  0.00  0.00    +0.000 HD
ATOM     22  H   UNL     1       5.568  -3.199   0.091  0.00  0.00    +0.000 HD
ENDROOT
BRANCH   9  23
ATOM     23  S   UNL     1       5.889   4.859  -0.093  0.00  0.00    +0.000 S 
ATOM     24  O   UNL     1       6.988   4.621   1.063  0.00  0.00    +0.000 OA
ATOM     25  O   UNL     1       6.620   4.888  -1.340  0.00  0.00    +0.000 OA
ATOM     26  O   UNL     1       5.042   5.952   0.328  0.00  0.00    +0.000 OA
ENDBRANCH   9  23
TORSDOF 1
