REMARK  Name = *****
REMARK  3 active torsions:
REMARK  status: ('A' for Active; 'I' for Inactive)
REMARK    1  A    between atoms: O_1  and  N_2
REMARK    2  A    between atoms: N_6  and  C_7
REMARK    3  A    between atoms: C_7  and  C_8
REMARK                            x       y       z     vdW  Elec       q    Type
REMARK                         _______ _______ _______ _____ _____    ______ ____
ROOT
ATOM      1  N   UNL     1       1.852   1.235  -1.445  0.00  0.00    +0.000 NA
ATOM      2  C   UNL     1       2.664   0.228  -1.524  0.00  0.00    +0.000 C 
ATOM      3  C   UNL     1       3.744   0.160  -2.613  0.00  0.00    +0.000 C 
ATOM      4  O   UNL     1       3.923   0.994  -3.474  0.00  0.00    +0.000 OA
ATOM      5  N   UNL     1       4.434  -1.014  -2.374  0.00  0.00    +0.000 N 
ATOM      6  C   UNL     1       3.899  -1.694  -1.269  0.00  0.00    +0.000 A 
ATOM      7  C   UNL     1       2.820  -0.989  -0.720  0.00  0.00    +0.000 A 
ATOM      8  C   UNL     1       2.124  -1.463   0.377  0.00  0.00    +0.000 A 
ATOM      9  C   UNL     1       2.539  -2.675   0.918  0.00  0.00    +0.000 A 
ATOM     10  F   UNL     1       1.892  -3.173   1.979  0.00  0.00    +0.000 F 
ATOM     11  C   UNL     1       3.620  -3.390   0.384  0.00  0.00    +0.000 A 
ATOM     12  C   UNL     1       4.317  -2.898  -0.724  0.00  0.00    +0.000 A 
ENDROOT
BRANCH   1  13
ATOM     13  O   UNL     1       0.957   1.125  -0.380  0.00  0.00    +0.000 OA
ATOM     14  H   UNL     1       0.323   1.798  -0.229  0.00  0.00    +0.000 HD
ENDBRANCH   1  13
BRANCH   5  15
ATOM     15  C   UNL     1       5.564  -1.447  -3.164  0.00  0.00    +0.000 C 
BRANCH  15  16
ATOM     16  C   UNL     1       6.925  -1.027  -2.644  0.00  0.00    +0.000 A 
ATOM     17  C   UNL     1       7.090  -0.173  -1.541  0.00  0.00    +0.000 A 
ATOM     18  C   UNL     1       8.364   0.210  -1.132  0.00  0.00    +0.000 A 
ATOM     19  F   UNL     1       8.498   1.026  -0.079  0.00  0.00    +0.000 F 
ATOM     20  C   UNL     1       9.498  -0.233  -1.799  0.00  0.00    +0.000 A 
ATOM     21  C   UNL     1       9.362  -1.087  -2.896  0.00  0.00    +0.000 A 
ATOM     22  C   UNL     1       8.081  -1.468  -3.319  0.00  0.00    +0.000 A 
ATOM     23  O   UNL     1       7.900  -2.300  -4.395  0.00  0.00    +0.000 OA
ATOM     24  C   UNL     1       9.083  -2.505  -5.169  0.00  0.00    +0.000 C 
ATOM     25  O   UNL     1      10.248  -2.734  -4.388  0.00  0.00    +0.000 OA
ATOM     26  C   UNL     1      10.565  -1.561  -3.651  0.00  0.00    +0.000 C 
ENDBRANCH  15  16
ENDBRANCH   5  15
TORSDOF 3
