REMARK  Name = *****
REMARK  7 active torsions:
REMARK  status: ('A' for Active; 'I' for Inactive)
REMARK    1  A    between atoms: C_1  and  C_2
REMARK    2  A    between atoms: C_2  and  O_3
REMARK    3  A    between atoms: O_3  and  C_4
REMARK    4  A    between atoms: C_4  and  C_6
REMARK    5  A    between atoms: C_7  and  C_8
REMARK    6  A    between atoms: C_10  and  C_11
REMARK    7  A    between atoms: C_22  and  C_23
REMARK                            x       y       z     vdW  Elec       q    Type
REMARK                         _______ _______ _______ _____ _____    ______ ____
ROOT
ATOM      1  C   UNL     1       4.956  -1.302   2.407  0.00  0.00    +0.000 A 
ATOM      2  C   UNL     1       5.020  -2.684   2.288  0.00  0.00    +0.000 A 
ATOM      3  C   UNL     1       4.152  -3.662   1.577  0.00  0.00    +0.000 C 
ATOM      4  N   UNL     1       6.117  -3.119   2.988  0.00  0.00    +0.000 N 
ATOM      5  C   UNL     1       6.780  -2.072   3.573  0.00  0.00    +0.000 A 
ATOM      6  C   UNL     1       6.081  -0.917   3.229  0.00  0.00    +0.000 A 
ATOM      7  C   UNL     1       6.409   0.487   3.621  0.00  0.00    +0.000 C 
ATOM      8  H   UNL     1       6.392  -4.062   3.062  0.00  0.00    +0.000 HD
ENDROOT
BRANCH   5   9
ATOM      9  C   UNL     1       7.951  -2.261   4.363  0.00  0.00    +0.000 C 
ATOM     10  C   UNL     1       8.633  -3.386   4.638  0.00  0.00    +0.000 C 
ATOM     11  C   UNL     1       8.402  -4.818   4.216  0.00  0.00    +0.000 C 
ATOM     12  O   UNL     1       7.507  -5.269   3.526  0.00  0.00    +0.000 OA
ATOM     13  N   UNL     1       9.432  -5.545   4.788  0.00  0.00    +0.000 N 
ATOM     14  C   UNL     1      10.280  -4.730   5.527  0.00  0.00    +0.000 A 
ATOM     15  C   UNL     1       9.848  -3.402   5.478  0.00  0.00    +0.000 A 
ATOM     16  C   UNL     1      10.554  -2.419   6.154  0.00  0.00    +0.000 A 
ATOM     17  C   UNL     1      11.695  -2.798   6.873  0.00  0.00    +0.000 A 
ATOM     18  C   UNL     1      12.114  -4.140   6.909  0.00  0.00    +0.000 A 
ATOM     19  C   UNL     1      11.401  -5.127   6.228  0.00  0.00    +0.000 A 
ATOM     20  H   UNL     1       9.549  -6.517   4.685  0.00  0.00    +0.000 HD
ENDBRANCH   5   9
BRANCH   1  21
ATOM     21  C   UNL     1       3.953  -0.401   1.822  0.00  0.00    +0.000 C 
ATOM     22  O   UNL     1       3.959   0.813   1.996  0.00  0.00    +0.000 OA
BRANCH  21  23
ATOM     23  O   UNL     1       3.017  -1.052   1.070  0.00  0.00    +0.000 OA
BRANCH  23  25
ATOM     24  C   UNL     1       0.862  -0.010   1.429  0.00  0.00    +0.000 C 
ATOM     25  C   UNL     1       2.012  -0.229   0.464  0.00  0.00    +0.000 C 
ENDBRANCH  23  25
ENDBRANCH  21  23
ENDBRANCH   1  21
TORSDOF 4
