REMARK  Name = *****
REMARK  5 active torsions:
REMARK  status: ('A' for Active; 'I' for Inactive)
REMARK    1  A    between atoms: C_1  and  C_2
REMARK    2  A    between atoms: C_5  and  C_6
REMARK    3  A    between atoms: C_17  and  C_18
REMARK    4  A    between atoms: C_18  and  C_19
REMARK    5  A    between atoms: C_19  and  C_20
REMARK                            x       y       z     vdW  Elec       q    Type
REMARK                         _______ _______ _______ _____ _____    ______ ____
ROOT
ATOM      1  C   UNL     1       2.216  -0.027   0.313  0.00  0.00    +0.000 C 
ATOM      2  C   UNL     1       0.737   0.027   0.144  0.00  0.00    +0.000 A 
ATOM      3  C   UNL     1      -0.096  -1.066   0.262  0.00  0.00    +0.000 A 
ATOM      4  N   UNL     1      -1.385  -0.648   0.115  0.00  0.00    +0.000 N 
ATOM      5  C   UNL     1      -1.417   0.709  -0.087  0.00  0.00    +0.000 A 
ATOM      6  C   UNL     1      -0.101   1.164  -0.144  0.00  0.00    +0.000 A 
ATOM      7  H   UNL     1      -2.176  -1.233   0.149  0.00  0.00    +0.000 HD
ENDROOT
BRANCH   5   8
ATOM      8  C   UNL     1      -2.702   1.306  -0.107  0.00  0.00    +0.000 C 
ATOM      9  C   UNL     1      -3.234   1.975  -1.139  0.00  0.00    +0.000 C 
ATOM     10  C   UNL     1      -2.632   2.260  -2.490  0.00  0.00    +0.000 C 
ATOM     11  O   UNL     1      -1.509   2.012  -2.885  0.00  0.00    +0.000 OA
ATOM     12  N   UNL     1      -3.625   2.915  -3.200  0.00  0.00    +0.000 N 
ATOM     13  C   UNL     1      -4.769   3.091  -2.430  0.00  0.00    +0.000 A 
ATOM     14  C   UNL     1      -5.937   3.715  -2.815  0.00  0.00    +0.000 A 
ATOM     15  C   UNL     1      -6.964   3.791  -1.872  0.00  0.00    +0.000 A 
ATOM     16  C   UNL     1      -6.799   3.248  -0.584  0.00  0.00    +0.000 A 
ATOM     17  C   UNL     1      -5.605   2.618  -0.216  0.00  0.00    +0.000 A 
ATOM     18  C   UNL     1      -4.591   2.543  -1.156  0.00  0.00    +0.000 A 
ATOM     19  H   UNL     1      -3.532   3.218  -4.132  0.00  0.00    +0.000 HD
ENDBRANCH   5   8
BRANCH   6  20
ATOM     20  C   UNL     1       0.309   2.594  -0.357  0.00  0.00    +0.000 C 
BRANCH  20  21
ATOM     21  C   UNL     1       1.617   2.873  -1.080  0.00  0.00    +0.000 C 
BRANCH  21  22
ATOM     22  C   UNL     1       1.981   2.102  -2.325  0.00  0.00    +0.000 C 
ATOM     23  O   UNL     1       0.990   1.707  -3.134  0.00  0.00    +0.000 OA
ATOM     24  O   UNL     1       3.155   1.923  -2.636  0.00  0.00    +0.000 OA
ENDBRANCH  21  22
ENDBRANCH  20  21
ENDBRANCH   6  20
TORSDOF 4
