REMARK  Name = *****
REMARK  4 active torsions:
REMARK  status: ('A' for Active; 'I' for Inactive)
REMARK    1  A    between atoms: C_10  and  C_11
REMARK    2  A    between atoms: N_12  and  C_13
REMARK    3  A    between atoms: C_16  and  S_19
REMARK    4  A    between atoms: S_19  and  N_22
REMARK                            x       y       z     vdW  Elec       q    Type
REMARK                         _______ _______ _______ _____ _____    ______ ____
ROOT
ATOM      1  C   UNL     1      -4.084  -3.283   0.182  0.00  0.00    +0.000 A 
ATOM      2  C   UNL     1      -3.609  -4.441   0.813  0.00  0.00    +0.000 A 
ATOM      3  C   UNL     1      -4.396  -5.596   0.895  0.00  0.00    +0.000 A 
ATOM      4  C   UNL     1      -5.676  -5.601   0.340  0.00  0.00    +0.000 A 
ATOM      5  C   UNL     1      -6.169  -4.464  -0.299  0.00  0.00    +0.000 A 
ATOM      6  C   UNL     1      -5.376  -3.314  -0.368  0.00  0.00    +0.000 A 
ENDROOT
BRANCH   1   8
ATOM      7  C   UNL     1      -1.952  -1.961   0.109  0.00  0.00    +0.000 C 
ATOM      8  N   UNL     1      -3.312  -2.124   0.007  0.00  0.00    +0.000 N 
ATOM      9  H   UNL     1      -3.818  -1.311  -0.221  0.00  0.00    +0.000 HD
BRANCH   7  19
ATOM     10  O   UNL     1      -3.055   0.686  -0.748  0.00  0.00    +0.000 OA
ATOM     11  C   UNL     1      -1.873   0.455  -0.573  0.00  0.00    +0.000 C 
ATOM     12  N   UNL     1      -0.803   1.322  -0.733  0.00  0.00    +0.000 N 
ATOM     13  C   UNL     1       0.407   0.688  -0.453  0.00  0.00    +0.000 A 
ATOM     14  C   UNL     1       1.668   1.242  -0.523  0.00  0.00    +0.000 A 
ATOM     15  C   UNL     1       2.749   0.415  -0.207  0.00  0.00    +0.000 A 
ATOM     16  C   UNL     1       2.545  -0.928   0.167  0.00  0.00    +0.000 A 
ATOM     17  C   UNL     1       1.256  -1.469   0.231  0.00  0.00    +0.000 A 
ATOM     18  C   UNL     1       0.192  -0.644  -0.083  0.00  0.00    +0.000 A 
ATOM     19  C   UNL     1      -1.255  -0.845  -0.142  0.00  0.00    +0.000 C 
ATOM     20  H   UNL     1      -0.887   2.263  -1.009  0.00  0.00    +0.000 HD
ENDBRANCH   7  19
ENDBRANCH   1   8
BRANCH   4  21
ATOM     21  S   UNL     1      -6.635  -7.096   0.331  0.00  0.00    +0.000 S 
ATOM     22  O   UNL     1      -7.416  -7.079  -0.892  0.00  0.00    +0.000 OA
ATOM     23  O   UNL     1      -5.774  -8.224   0.615  0.00  0.00    +0.000 OA
BRANCH  21  24
ATOM     24  N   UNL     1      -7.736  -6.872   1.549  0.00  0.00    +0.000 N 
ATOM     25  C   UNL     1      -7.349  -7.059   2.880  0.00  0.00    +0.000 A 
ATOM     26  N   UNL     1      -6.106  -7.018   3.287  0.00  0.00    +0.000 NA
ATOM     27  C   UNL     1      -6.059  -7.239   4.650  0.00  0.00    +0.000 A 
ATOM     28  C   UNL     1      -7.278  -7.419   5.265  0.00  0.00    +0.000 A 
ATOM     29  S   UNL     1      -8.529  -7.299   4.099  0.00  0.00    +0.000 S 
ATOM     30  H   UNL     1      -8.660  -6.607   1.336  0.00  0.00    +0.000 HD
ENDBRANCH  21  24
ENDBRANCH   4  21
TORSDOF 4
