REMARK  Name = *****
REMARK  8 active torsions:
REMARK  status: ('A' for Active; 'I' for Inactive)
REMARK    1  A    between atoms: N_1  and  C_2
REMARK    2  A    between atoms: C_2  and  C_3
REMARK    3  A    between atoms: N_9  and  C_10
REMARK    4  A    between atoms: C_10  and  C_11
REMARK    5  A    between atoms: C_11  and  C_12
REMARK    6  A    between atoms: C_12  and  C_13
REMARK    7  A    between atoms: C_17  and  C_18
REMARK    8  A    between atoms: C_18  and  N_19
REMARK                            x       y       z     vdW  Elec       q    Type
REMARK                         _______ _______ _______ _____ _____    ______ ____
ROOT
ATOM      1  C   UNL     1       3.493  -2.247  -0.487  0.00  0.00    +0.000 A 
ATOM      2  C   UNL     1       3.358  -3.628  -0.719  0.00  0.00    +0.000 A 
ATOM      3  C   UNL     1       3.543  -4.525   0.345  0.00  0.00    +0.000 A 
ATOM      4  C   UNL     1       3.857  -4.040   1.608  0.00  0.00    +0.000 A 
ATOM      5  C   UNL     1       4.011  -2.674   1.871  0.00  0.00    +0.000 A 
ATOM      6  C   UNL     1       3.821  -1.792   0.800  0.00  0.00    +0.000 A 
ATOM      7  N   UNL     1       3.957  -5.170   2.390  0.00  0.00    +0.000 N 
ATOM      8  C   UNL     1       3.692  -6.268   1.596  0.00  0.00    +0.000 A 
ATOM      9  N   UNL     1       3.462  -5.892   0.350  0.00  0.00    +0.000 NA
ENDROOT
BRANCH   1  10
ATOM     10  C   UNL     1       3.284  -1.265  -1.611  0.00  0.00    +0.000 C 
BRANCH  10  11
ATOM     11  N   UNL     1       4.510  -0.539  -1.919  0.00  0.00    +0.000 N 
ATOM     12  H   UNL     1       4.335   0.116  -2.682  0.00  0.00    +0.000 HD
ATOM     13  H   UNL     1       5.236  -1.199  -2.198  0.00  0.00    +0.000 HD
ATOM     14  H   UNL     1       4.817  -0.025  -1.094  0.00  0.00    +0.000 HD
ENDBRANCH  10  11
ENDBRANCH   1  10
BRANCH   7  15
ATOM     15  C   UNL     1       4.296  -5.172   3.802  0.00  0.00    +0.000 C 
BRANCH  15  16
ATOM     16  C   UNL     1       5.799  -5.329   4.028  0.00  0.00    +0.000 C 
BRANCH  16  17
ATOM     17  C   UNL     1       6.136  -5.362   5.518  0.00  0.00    +0.000 C 
BRANCH  17  18
ATOM     18  C   UNL     1       7.620  -5.545   5.753  0.00  0.00    +0.000 C 
ATOM     19  F   UNL     1       8.057  -6.704   5.217  0.00  0.00    +0.000 F 
ATOM     20  F   UNL     1       8.329  -4.536   5.206  0.00  0.00    +0.000 F 
ATOM     21  F   UNL     1       7.892  -5.573   7.075  0.00  0.00    +0.000 F 
ENDBRANCH  17  18
ENDBRANCH  16  17
ENDBRANCH  15  16
ENDBRANCH   7  15
BRANCH   8  22
ATOM     22  C   UNL     1       3.680  -7.689   2.072  0.00  0.00    +0.000 C 
BRANCH  22  23
ATOM     23  N   UNL     1       2.320  -8.156   2.191  0.00  0.00    +0.000 N 
ATOM     24  C   UNL     1       1.580  -8.080   3.364  0.00  0.00    +0.000 C 
ATOM     25  O   UNL     1       1.935  -7.671   4.459  0.00  0.00    +0.000 OA
ATOM     26  C   UNL     1       0.203  -8.613   3.052  0.00  0.00    +0.000 C 
ATOM     27  C   UNL     1      -1.026  -8.001   3.671  0.00  0.00    +0.000 C 
ATOM     28  C   UNL     1      -0.592  -9.387   4.068  0.00  0.00    +0.000 C 
ATOM     29  C   UNL     1       0.262  -8.991   1.605  0.00  0.00    +0.000 A 
ATOM     30  C   UNL     1       1.551  -8.681   1.127  0.00  0.00    +0.000 A 
ATOM     31  C   UNL     1       1.921  -8.891  -0.188  0.00  0.00    +0.000 A 
ATOM     32  C   UNL     1       0.968  -9.445  -1.035  0.00  0.00    +0.000 A 
ATOM     33  F   UNL     1       1.285  -9.675  -2.317  0.00  0.00    +0.000 F 
ATOM     34  C   UNL     1      -0.317  -9.774  -0.585  0.00  0.00    +0.000 A 
ATOM     35  C   UNL     1      -0.679  -9.543   0.745  0.00  0.00    +0.000 A 
ENDBRANCH  22  23
ENDBRANCH   8  22
TORSDOF 8
