REMARK  Name = *****
REMARK  5 active torsions:
REMARK  status: ('A' for Active; 'I' for Inactive)
REMARK    1  A    between atoms: C_1  and  C_2
REMARK    2  A    between atoms: C_2  and  N_3
REMARK    3  A    between atoms: C_6  and  C_7
REMARK    4  A    between atoms: C_6  and  C_8
REMARK    5  A    between atoms: C_21  and  C_22
REMARK                            x       y       z     vdW  Elec       q    Type
REMARK                         _______ _______ _______ _____ _____    ______ ____
ROOT
ATOM      1  N   UNL     1       2.847   1.074  -1.067  0.00  0.00    +0.000 N 
ATOM      2  C   UNL     1       2.764   2.422  -0.707  0.00  0.00    +0.000 C 
ATOM      3  O   UNL     1       2.284   2.876   0.322  0.00  0.00    +0.000 OA
ATOM      4  C   UNL     1       3.391   3.246  -1.855  0.00  0.00    +0.000 C 
ATOM      5  C   UNL     1       2.351   4.213  -2.420  0.00  0.00    +0.000 C 
ATOM      6  C   UNL     1       4.626   3.984  -1.340  0.00  0.00    +0.000 C 
ATOM      7  C   UNL     1       3.758   2.168  -2.851  0.00  0.00    +0.000 A 
ATOM      8  C   UNL     1       4.345   2.307  -4.104  0.00  0.00    +0.000 A 
ATOM      9  C   UNL     1       4.561   1.117  -4.813  0.00  0.00    +0.000 A 
ATOM     10  C   UNL     1       4.219  -0.152  -4.327  0.00  0.00    +0.000 A 
ATOM     11  C   UNL     1       3.627  -0.257  -3.046  0.00  0.00    +0.000 A 
ATOM     12  C   UNL     1       3.413   0.919  -2.339  0.00  0.00    +0.000 A 
ATOM     13  C   UNL     1       4.584  -1.119  -5.331  0.00  0.00    +0.000 A 
ATOM     14  C   UNL     1       5.142  -0.404  -6.373  0.00  0.00    +0.000 A 
ATOM     15  N   UNL     1       5.117   0.925  -6.054  0.00  0.00    +0.000 N 
ATOM     16  C   UNL     1       5.693  -0.896  -7.657  0.00  0.00    +0.000 A 
ATOM     17  N   UNL     1       6.192  -0.027  -8.544  0.00  0.00    +0.000 NA
ATOM     18  N   UNL     1       6.589  -0.803  -9.562  0.00  0.00    +0.000 N 
ATOM     19  C   UNL     1       6.367  -2.136  -9.357  0.00  0.00    +0.000 A 
ATOM     20  C   UNL     1       6.740  -3.158 -10.362  0.00  0.00    +0.000 C 
ATOM     21  C   UNL     1       5.766  -2.235  -8.113  0.00  0.00    +0.000 A 
ATOM     22  C   UNL     1       5.327  -3.482  -7.424  0.00  0.00    +0.000 C 
ATOM     23  C   UNL     1       4.100  -3.322  -6.527  0.00  0.00    +0.000 C 
ATOM     24  C   UNL     1       4.405  -2.600  -5.214  0.00  0.00    +0.000 C 
ATOM     25  H   UNL     1       5.451   1.646  -6.634  0.00  0.00    +0.000 HD
ATOM     26  H   UNL     1       7.002  -0.446 -10.381  0.00  0.00    +0.000 HD
ENDROOT
BRANCH   1  28
ATOM     27  C   UNL     1       0.879  -0.332  -0.622  0.00  0.00    +0.000 C 
ATOM     28  C   UNL     1       2.318  -0.001  -0.259  0.00  0.00    +0.000 C 
ENDBRANCH   1  28
TORSDOF 1
