REMARK  Name = *****
REMARK  11 active torsions:
REMARK  status: ('A' for Active; 'I' for Inactive)
REMARK    1  A    between atoms: C_1  and  C_2
REMARK    2  A    between atoms: C_2  and  N_3
REMARK    3  A    between atoms: C_6  and  C_7
REMARK    4  A    between atoms: C_6  and  O_17
REMARK    5  A    between atoms: C_7  and  C_8
REMARK    6  A    between atoms: C_12  and  O_13
REMARK    7  A    between atoms: O_13  and  C_14
REMARK    8  A    between atoms: C_15  and  O_16
REMARK    9  A    between atoms: O_17  and  C_18
REMARK   10  A    between atoms: N_20  and  C_21
REMARK   11  A    between atoms: N_20  and  C_22
REMARK                            x       y       z     vdW  Elec       q    Type
REMARK                         _______ _______ _______ _____ _____    ______ ____
ROOT
ATOM      1  N   UNL     1       2.840  -1.281   0.801  0.00  0.00    +0.000 N 
ATOM      2  C   UNL     1       2.526  -2.496   0.177  0.00  0.00    +0.000 C 
ATOM      3  O   UNL     1       1.862  -2.648  -0.840  0.00  0.00    +0.000 OA
ATOM      4  C   UNL     1       3.159  -3.638   1.042  0.00  0.00    +0.000 C 
ATOM      5  C   UNL     1       3.948  -2.845   2.063  0.00  0.00    +0.000 A 
ATOM      6  C   UNL     1       4.831  -3.290   3.037  0.00  0.00    +0.000 A 
ATOM      7  C   UNL     1       5.440  -2.339   3.855  0.00  0.00    +0.000 A 
ATOM      8 CL   UNL     1       6.524  -2.853   5.091  0.00  0.00    +0.000 Cl
ATOM      9  C   UNL     1       5.184  -0.969   3.687  0.00  0.00    +0.000 A 
ATOM     10  C   UNL     1       4.313  -0.527   2.686  0.00  0.00    +0.000 A 
ATOM     11  C   UNL     1       3.707  -1.478   1.884  0.00  0.00    +0.000 A 
ENDROOT
BRANCH   1  13
ATOM     12  C   UNL     1       3.544   0.496  -0.749  0.00  0.00    +0.000 C 
ATOM     13  C   UNL     1       2.498   0.005   0.239  0.00  0.00    +0.000 C 
ENDBRANCH   1  13
BRANCH   4  14
ATOM     14  C   UNL     1       1.942  -4.390   1.646  0.00  0.00    +0.000 C 
BRANCH  14  15
ATOM     15  C   UNL     1       2.256  -5.454   2.677  0.00  0.00    +0.000 A 
ATOM     16  C   UNL     1       2.644  -6.737   2.270  0.00  0.00    +0.000 A 
ATOM     17  C   UNL     1       2.949  -7.722   3.213  0.00  0.00    +0.000 A 
ATOM     18  C   UNL     1       2.869  -7.443   4.580  0.00  0.00    +0.000 A 
ATOM     19  C   UNL     1       2.478  -6.176   5.008  0.00  0.00    +0.000 A 
ATOM     20  C   UNL     1       2.173  -5.198   4.049  0.00  0.00    +0.000 A 
BRANCH  19  21
ATOM     21  O   UNL     1       2.357  -5.765   6.311  0.00  0.00    +0.000 OA
ATOM     22  C   UNL     1       2.658  -6.729   7.314  0.00  0.00    +0.000 C 
ENDBRANCH  19  21
BRANCH  20  23
ATOM     23  O   UNL     1       1.793  -3.950   4.474  0.00  0.00    +0.000 OA
ATOM     24  H   UNL     1       1.586  -3.285   3.847  0.00  0.00    +0.000 HD
ENDBRANCH  20  23
ENDBRANCH  14  15
ENDBRANCH   4  14
BRANCH   4  25
ATOM     25  O   UNL     1       3.955  -4.578   0.306  0.00  0.00    +0.000 OA
BRANCH  25  26
ATOM     26  C   UNL     1       4.911  -4.096  -0.529  0.00  0.00    +0.000 C 
ATOM     27  O   UNL     1       5.175  -2.907  -0.658  0.00  0.00    +0.000 OA
ATOM     28  N   UNL     1       5.576  -5.104  -1.208  0.00  0.00    +0.000 N 
ATOM     29  C   UNL     1       5.305  -6.515  -1.007  0.00  0.00    +0.000 C 
ATOM     30  C   UNL     1       6.723  -4.769  -2.030  0.00  0.00    +0.000 C 
ENDBRANCH  25  26
ENDBRANCH   4  25
TORSDOF 7
