REMARK  Name = *****
REMARK  9 active torsions:
REMARK  status: ('A' for Active; 'I' for Inactive)
REMARK    1  A    between atoms: C_1  and  O_2
REMARK    2  A    between atoms: O_2  and  C_3
REMARK    3  A    between atoms: C_7  and  O_17
REMARK    4  A    between atoms: C_7  and  C_19
REMARK    5  A    between atoms: C_11  and  O_12
REMARK    6  A    between atoms: O_12  and  C_13
REMARK    7  A    between atoms: C_14  and  O_15
REMARK    8  A    between atoms: O_15  and  C_16
REMARK    9  A    between atoms: O_17  and  C_18
REMARK                            x       y       z     vdW  Elec       q    Type
REMARK                         _______ _______ _______ _____ _____    ______ ____
ROOT
ATOM      1  C   UNL     1       2.768   0.227   1.452  0.00  0.00    +0.000 A 
ATOM      2  C   UNL     1       2.375  -0.710   2.408  0.00  0.00    +0.000 A 
ATOM      3  C   UNL     1       3.236  -1.063   3.455  0.00  0.00    +0.000 A 
ATOM      4  O   UNL     1       2.740  -1.994   4.328  0.00  0.00    +0.000 OA
ATOM      5  C   UNL     1       3.458  -2.173   5.565  0.00  0.00    +0.000 C 
ATOM      6  C   UNL     1       4.972  -2.214   5.300  0.00  0.00    +0.000 C 
ATOM      7  C   UNL     1       5.425  -0.902   4.678  0.00  0.00    +0.000 C 
ATOM      8  C   UNL     1       4.510  -0.502   3.557  0.00  0.00    +0.000 A 
ATOM      9  C   UNL     1       4.894   0.473   2.624  0.00  0.00    +0.000 A 
ATOM     10  C   UNL     1       4.045   0.802   1.556  0.00  0.00    +0.000 A 
ENDROOT
BRANCH   5  11
ATOM     11  C   UNL     1       3.068  -3.523   6.192  0.00  0.00    +0.000 A 
ATOM     12  C   UNL     1       2.498  -4.553   5.423  0.00  0.00    +0.000 A 
ATOM     13  C   UNL     1       2.170  -5.782   6.001  0.00  0.00    +0.000 A 
ATOM     14  C   UNL     1       2.411  -6.005   7.354  0.00  0.00    +0.000 A 
ATOM     15  C   UNL     1       2.984  -5.003   8.132  0.00  0.00    +0.000 A 
ATOM     16  C   UNL     1       3.313  -3.774   7.556  0.00  0.00    +0.000 A 
ENDBRANCH   5  11
BRANCH   1  18
ATOM     17  C   UNL     1       0.682   0.115   0.300  0.00  0.00    +0.000 C 
ATOM     18  O   UNL     1       2.002   0.635   0.391  0.00  0.00    +0.000 OA
ENDBRANCH   1  18
BRANCH   9  19
ATOM     19  O   UNL     1       6.148   1.018   2.767  0.00  0.00    +0.000 OA
ATOM     20  C   UNL     1       6.105   2.437   2.920  0.00  0.00    +0.000 C 
ENDBRANCH   9  19
BRANCH  10  21
ATOM     21  O   UNL     1       4.446   1.730   0.622  0.00  0.00    +0.000 OA
ATOM     22  C   UNL     1       5.082   1.066  -0.470  0.00  0.00    +0.000 C 
ENDBRANCH  10  21
BRANCH   5  23
ATOM     23  O   UNL     1       3.203  -1.105   6.500  0.00  0.00    +0.000 OA
ATOM     24  C   UNL     1       1.826  -0.789   6.657  0.00  0.00    +0.000 C 
ENDBRANCH   5  23
TORSDOF 5
