MODEL 1
REMARK VINA RESULT:      -4.7      0.000      0.000
REMARK  Name = *****
REMARK  9 active torsions:
REMARK  status: ('A' for Active; 'I' for Inactive)
REMARK    1  A    between atoms: C_1  and  O_2
REMARK    2  A    between atoms: O_2  and  C_3
REMARK    3  A    between atoms: C_7  and  O_17
REMARK    4  A    between atoms: C_7  and  C_19
REMARK    5  A    between atoms: C_11  and  O_12
REMARK    6  A    between atoms: O_12  and  C_13
REMARK    7  A    between atoms: C_14  and  O_15
REMARK    8  A    between atoms: O_15  and  C_16
REMARK    9  A    between atoms: O_17  and  C_18
REMARK                            x       y       z     vdW  Elec       q    Type
REMARK                         _______ _______ _______ _____ _____    ______ ____
ROOT
ATOM      1  C   UNL     1      87.738  64.469  87.024  0.00  0.00    +0.000 A 
ATOM      2  C   UNL     1      87.346  65.660  87.635  0.00  0.00    +0.000 A 
ATOM      3  C   UNL     1      87.965  66.870  87.297  0.00  0.00    +0.000 A 
ATOM      4  O   UNL     1      87.497  67.970  87.965  0.00  0.00    +0.000 OA
ATOM      5  C   UNL     1      87.891  69.259  87.454  0.00  0.00    +0.000 C 
ATOM      6  C   UNL     1      89.387  69.254  87.097  0.00  0.00    +0.000 C 
ATOM      7  C   UNL     1      89.659  68.216  86.019  0.00  0.00    +0.000 C 
ATOM      8  C   UNL     1      88.997  66.912  86.359  0.00  0.00    +0.000 A 
ATOM      9  C   UNL     1      89.366  65.724  85.709  0.00  0.00    +0.000 A 
ATOM     10  C   UNL     1      88.769  64.506  86.071  0.00  0.00    +0.000 A 
ENDROOT
BRANCH   5  11
ATOM     11  C   UNL     1      87.686  70.326  88.543  0.00  0.00    +0.000 A 
ATOM     12  C   UNL     1      86.400  70.745  88.928  0.00  0.00    +0.000 A 
ATOM     13  C   UNL     1      86.228  71.699  89.934  0.00  0.00    +0.000 A 
ATOM     14  C   UNL     1      87.335  72.245  90.577  0.00  0.00    +0.000 A 
ATOM     15  C   UNL     1      88.617  71.837  90.220  0.00  0.00    +0.000 A 
ATOM     16  C   UNL     1      88.791  70.883  89.214  0.00  0.00    +0.000 A 
ENDBRANCH   5  11
BRANCH   1  18
ATOM     17  C   UNL     1      87.250  62.774  88.631  0.00  0.00    +0.000 C 
ATOM     18  O   UNL     1      87.198  63.236  87.287  0.00  0.00    +0.000 OA
ENDBRANCH   1  18
BRANCH   9  19
ATOM     19  O   UNL     1      90.373  65.806  84.777  0.00  0.00    +0.000 OA
ATOM     20  C   UNL     1      91.622  65.342  85.290  0.00  0.00    +0.000 C 
ENDBRANCH   9  19
BRANCH  10  21
ATOM     21  O   UNL     1      89.165  63.339  85.458  0.00  0.00    +0.000 OA
ATOM     22  C   UNL     1      88.429  63.161  84.248  0.00  0.00    +0.000 C 
ENDBRANCH  10  21
BRANCH   5  23
ATOM     23  O   UNL     1      87.156  69.620  86.267  0.00  0.00    +0.000 OA
ATOM     24  C   UNL     1      87.543  70.865  85.702  0.00  0.00    +0.000 C 
ENDBRANCH   5  23
TORSDOF 5
ENDMDL
