MODEL 1
REMARK VINA RESULT:      -5.3      0.000      0.000
REMARK  Name = *****
REMARK  6 active torsions:
REMARK  status: ('A' for Active; 'I' for Inactive)
REMARK    1  A    between atoms: C_1  and  O_2
REMARK    2  A    between atoms: O_2  and  C_3
REMARK    3  A    between atoms: C_5  and  O_6
REMARK    4  A    between atoms: C_8  and  O_9
REMARK    5  A    between atoms: C_8  and  C_19
REMARK    6  A    between atoms: O_9  and  C_10
REMARK                            x       y       z     vdW  Elec       q    Type
REMARK                         _______ _______ _______ _____ _____    ______ ____
ROOT
ATOM      1  C   UNL     1      89.127  66.948  86.920  0.00  0.00    +0.000 A 
ATOM      2  C   UNL     1      88.468  68.187  87.113  0.00  0.00    +0.000 A 
ATOM      3  C   UNL     1      89.120  69.463  86.675  0.00  0.00    +0.000 C 
ATOM      4  C   UNL     1      88.166  70.642  86.614  0.00  0.00    +0.000 C 
ATOM      5  C   UNL     1      87.051  70.625  87.676  0.00  0.00    +0.000 C 
ATOM      6  O   UNL     1      86.501  69.338  87.981  0.00  0.00    +0.000 OA
ATOM      7  C   UNL     1      87.218  68.208  87.731  0.00  0.00    +0.000 A 
ATOM      8  C   UNL     1      86.591  67.029  88.159  0.00  0.00    +0.000 A 
ATOM      9  C   UNL     1      87.285  65.840  87.975  0.00  0.00    +0.000 A 
ATOM     10  O   UNL     1      86.855  64.606  88.357  0.00  0.00    +0.000 OA
ATOM     11  C   UNL     1      87.837  63.727  88.032  0.00  0.00    +0.000 A 
ATOM     12  C   UNL     1      88.894  64.379  87.441  0.00  0.00    +0.000 A 
ATOM     13  C   UNL     1      88.538  65.755  87.383  0.00  0.00    +0.000 A 
ENDROOT
BRANCH   5  14
ATOM     14  C   UNL     1      85.888  71.456  87.068  0.00  0.00    +0.000 A 
ATOM     15  C   UNL     1      84.863  71.990  87.874  0.00  0.00    +0.000 A 
ATOM     16  C   UNL     1      83.799  72.698  87.310  0.00  0.00    +0.000 A 
ATOM     17  C   UNL     1      83.733  72.881  85.931  0.00  0.00    +0.000 A 
ATOM     18  C   UNL     1      84.728  72.353  85.113  0.00  0.00    +0.000 A 
ATOM     19  C   UNL     1      85.792  71.645  85.675  0.00  0.00    +0.000 A 
ENDBRANCH   5  14
BRANCH   1  21
ATOM     20  C   UNL     1      90.363  66.514  85.018  0.00  0.00    +0.000 C 
ATOM     21  O   UNL     1      90.397  66.967  86.374  0.00  0.00    +0.000 OA
ENDBRANCH   1  21
BRANCH   3  22
ATOM     22  O   UNL     1      90.239  69.753  87.506  0.00  0.00    +0.000 OA
ATOM     23  H   UNL     1      91.041  69.374  87.114  0.00  0.00    +0.000 HD
ENDBRANCH   3  22
BRANCH   5  24
ATOM     24  O   UNL     1      87.367  71.331  88.886  0.00  0.00    +0.000 OA
ATOM     25  C   UNL     1      87.564  70.555  90.049  0.00  0.00    +0.000 C 
ENDBRANCH   5  24
TORSDOF 4
ENDMDL
