REMARK  Name = *****
REMARK  4 active torsions:
REMARK  status: ('A' for Active; 'I' for Inactive)
REMARK    1  A    between atoms: C_1  and  S_2
REMARK    2  A    between atoms: S_2  and  C_5
REMARK    3  A    between atoms: C_8  and  C_11
REMARK    4  A    between atoms: C_12  and  C_17
REMARK                            x       y       z     vdW  Elec       q    Type
REMARK                         _______ _______ _______ _____ _____    ______ ____
ROOT
ATOM      1  C   UNL     1       4.256  -3.134   4.909  0.00  0.00    +0.000 C 
ATOM      2  C   UNL     1       5.190  -4.092   4.971  0.00  0.00    +0.000 C 
ATOM      3  C   UNL     1       5.094  -4.655   6.333  0.00  0.00    +0.000 C 
ATOM      4  O   UNL     1       5.753  -5.580   6.776  0.00  0.00    +0.000 OA
ATOM      5  O   UNL     1       4.138  -3.985   7.036  0.00  0.00    +0.000 OA
ATOM      6  C   UNL     1       3.562  -2.982   6.205  0.00  0.00    +0.000 C 
ENDROOT
BRANCH   1  10
ATOM      7  C   UNL     1       3.193  -0.728   1.558  0.00  0.00    +0.000 A 
ATOM      8  C   UNL     1       3.124  -2.118   1.459  0.00  0.00    +0.000 A 
ATOM      9  C   UNL     1       3.471  -2.901   2.562  0.00  0.00    +0.000 A 
ATOM     10  C   UNL     1       3.891  -2.304   3.761  0.00  0.00    +0.000 A 
ATOM     11  C   UNL     1       3.960  -0.906   3.841  0.00  0.00    +0.000 A 
ATOM     12  C   UNL     1       3.623  -0.116   2.738  0.00  0.00    +0.000 A 
BRANCH   7  14
ATOM     13  C   UNL     1       1.137   0.825   0.502  0.00  0.00    +0.000 C 
ATOM     14  S   UNL     1       2.788   0.281   0.151  0.00  0.00    +0.000 S 
ATOM     15  O   UNL     1       2.736  -0.583  -1.012  0.00  0.00    +0.000 OA
ATOM     16  O   UNL     1       3.665   1.436   0.185  0.00  0.00    +0.000 OA
ENDBRANCH   7  14
ENDBRANCH   1  10
BRANCH   2  17
ATOM     17  C   UNL     1       6.124  -4.543   3.939  0.00  0.00    +0.000 A 
ATOM     18  C   UNL     1       6.943  -3.625   3.262  0.00  0.00    +0.000 A 
ATOM     19  C   UNL     1       7.830  -4.056   2.274  0.00  0.00    +0.000 A 
ATOM     20  C   UNL     1       7.911  -5.408   1.952  0.00  0.00    +0.000 A 
ATOM     21  C   UNL     1       7.110  -6.331   2.622  0.00  0.00    +0.000 A 
ATOM     22  C   UNL     1       6.225  -5.901   3.614  0.00  0.00    +0.000 A 
ENDBRANCH   2  17
TORSDOF 3
