REMARK  Name = *****
REMARK  5 active torsions:
REMARK  status: ('A' for Active; 'I' for Inactive)
REMARK    1  A    between atoms: C_1  and  N_2
REMARK    2  A    between atoms: N_2  and  C_3
REMARK    3  A    between atoms: C_3  and  C_4
REMARK    4  A    between atoms: C_4  and  C_5
REMARK    5  A    between atoms: C_13  and  C_14
REMARK                            x       y       z     vdW  Elec       q    Type
REMARK                         _______ _______ _______ _____ _____    ______ ____
ROOT
ATOM      1  C   UNL     1       5.051   0.241  -3.449  0.00  0.00    +0.000 A 
ATOM      2  C   UNL     1       5.250   1.636  -3.518  0.00  0.00    +0.000 A 
ATOM      3  C   UNL     1       5.650   2.190  -4.714  0.00  0.00    +0.000 A 
ATOM      4  O   UNL     1       5.885   3.509  -4.940  0.00  0.00    +0.000 OA
ATOM      5  C   UNL     1       6.290   3.478  -6.325  0.00  0.00    +0.000 C 
ATOM      6  O   UNL     1       6.250   2.156  -6.903  0.00  0.00    +0.000 OA
ATOM      7  C   UNL     1       5.859   1.420  -5.829  0.00  0.00    +0.000 A 
ATOM      8  C   UNL     1       5.676   0.054  -5.811  0.00  0.00    +0.000 A 
ATOM      9  C   UNL     1       5.262  -0.554  -4.612  0.00  0.00    +0.000 A 
ENDROOT
BRANCH   9  10
ATOM     10  C   UNL     1       5.063  -2.002  -4.633  0.00  0.00    +0.000 C 
ATOM     11  C   UNL     1       3.881  -2.649  -4.554  0.00  0.00    +0.000 C 
ATOM     12  C   UNL     1       4.092  -4.128  -4.656  0.00  0.00    +0.000 A 
ATOM     13  C   UNL     1       3.112  -5.107  -4.609  0.00  0.00    +0.000 A 
ATOM     14  C   UNL     1       3.564  -6.405  -4.734  0.00  0.00    +0.000 A 
ATOM     15  C   UNL     1       4.931  -6.555  -4.892  0.00  0.00    +0.000 A 
ATOM     16  O   UNL     1       5.494  -7.804  -5.032  0.00  0.00    +0.000 OA
ATOM     17  C   UNL     1       6.900  -7.474  -5.173  0.00  0.00    +0.000 C 
ATOM     18  O   UNL     1       7.171  -6.055  -5.109  0.00  0.00    +0.000 OA
ATOM     19  C   UNL     1       5.905  -5.584  -4.939  0.00  0.00    +0.000 A 
ATOM     20  C   UNL     1       5.479  -4.281  -4.813  0.00  0.00    +0.000 A 
ATOM     21  C   UNL     1       6.163  -3.026  -4.819  0.00  0.00    +0.000 C 
ATOM     22  O   UNL     1       7.343  -2.724  -4.941  0.00  0.00    +0.000 OA
ENDBRANCH   9  10
BRANCH   1  23
ATOM     23  C   UNL     1       4.631  -0.344  -2.114  0.00  0.00    +0.000 C 
BRANCH  23  24
ATOM     24  C   UNL     1       3.135  -0.130  -1.837  0.00  0.00    +0.000 C 
BRANCH  24  26
ATOM     25  C   UNL     1       1.348  -0.516  -0.268  0.00  0.00    +0.000 C 
ATOM     26  N   UNL     1       2.761  -0.727  -0.553  0.00  0.00    +0.000 N 
ATOM     27  H   UNL     1       2.948  -1.730  -0.584  0.00  0.00    +0.000 HD
ATOM     28  H   UNL     1       3.309  -0.283   0.183  0.00  0.00    +0.000 HD
ENDBRANCH  24  26
ENDBRANCH  23  24
ENDBRANCH   1  23
TORSDOF 4
