REMARK  Name = *****
REMARK  5 active torsions:
REMARK  status: ('A' for Active; 'I' for Inactive)
REMARK    1  A    between atoms: C_1  and  C_2
REMARK    2  A    between atoms: C_2  and  C_3
REMARK    3  A    between atoms: C_9  and  O_10
REMARK    4  A    between atoms: C_13  and  C_14
REMARK    5  A    between atoms: C_19  and  O_20
REMARK                            x       y       z     vdW  Elec       q    Type
REMARK                         _______ _______ _______ _____ _____    ______ ____
ROOT
ATOM      1  C   UNL     1       2.767  -0.133  -1.286  0.00  0.00    +0.000 C 
ATOM      2  C   UNL     1       2.195  -0.221   0.134  0.00  0.00    +0.000 C 
ATOM      3  C   UNL     1       3.332  -0.084   1.155  0.00  0.00    +0.000 C 
ATOM      4  O   UNL     1       1.349   0.925   0.345  0.00  0.00    +0.000 OA
ATOM      5  C   UNL     1      -0.002   0.795   0.137  0.00  0.00    +0.000 A 
ATOM      6  C   UNL     1      -0.633  -0.462   0.091  0.00  0.00    +0.000 A 
ATOM      7  C   UNL     1       0.168  -1.661   0.333  0.00  0.00    +0.000 C 
ATOM      8  C   UNL     1       1.499  -1.542   0.338  0.00  0.00    +0.000 C 
ATOM      9  C   UNL     1      -2.016  -0.509  -0.141  0.00  0.00    +0.000 A 
ATOM     10  C   UNL     1      -2.759   0.659  -0.285  0.00  0.00    +0.000 A 
ATOM     11  C   UNL     1      -2.128   1.899  -0.217  0.00  0.00    +0.000 A 
ATOM     12  C   UNL     1      -0.743   1.987  -0.010  0.00  0.00    +0.000 A 
ENDROOT
BRANCH  12  13
ATOM     13  C   UNL     1      -0.119   3.327   0.067  0.00  0.00    +0.000 C 
ATOM     14  C   UNL     1      -0.273   4.218  -0.925  0.00  0.00    +0.000 C 
ATOM     15  C   UNL     1       0.368   5.518  -0.769  0.00  0.00    +0.000 A 
ATOM     16  C   UNL     1       0.435   6.423  -1.834  0.00  0.00    +0.000 A 
ATOM     17  C   UNL     1       1.013   7.683  -1.651  0.00  0.00    +0.000 A 
ATOM     18  C   UNL     1       1.508   8.035  -0.398  0.00  0.00    +0.000 A 
ATOM     19  C   UNL     1       1.441   7.149   0.671  0.00  0.00    +0.000 A 
ATOM     20  C   UNL     1       0.883   5.886   0.480  0.00  0.00    +0.000 A 
ATOM     21  O   UNL     1       0.817   5.067   1.576  0.00  0.00    +0.000 OA
ATOM     22  C   UNL     1       0.715   3.660   1.280  0.00  0.00    +0.000 C 
BRANCH  18  23
ATOM     23  O   UNL     1       2.070   9.258  -0.177  0.00  0.00    +0.000 OA
ATOM     24  H   UNL     1       2.131   9.878  -0.876  0.00  0.00    +0.000 HD
ENDBRANCH  18  23
ENDBRANCH  12  13
BRANCH   9  25
ATOM     25  O   UNL     1      -2.723  -1.675  -0.256  0.00  0.00    +0.000 OA
ATOM     26  H   UNL     1      -2.284  -2.499  -0.170  0.00  0.00    +0.000 HD
ENDBRANCH   9  25
TORSDOF 3
