REMARK  Name = *****
REMARK  9 active torsions:
REMARK  status: ('A' for Active; 'I' for Inactive)
REMARK    1  A    between atoms: C_1  and  O_2
REMARK    2  A    between atoms: O_2  and  C_3
REMARK    3  A    between atoms: C_6  and  C_11
REMARK    4  A    between atoms: C_8  and  O_9
REMARK    5  A    between atoms: O_9  and  C_10
REMARK    6  A    between atoms: C_12  and  C_20
REMARK    7  A    between atoms: C_23  and  O_24
REMARK    8  A    between atoms: C_25  and  O_26
REMARK    9  A    between atoms: O_26  and  C_27
REMARK                            x       y       z     vdW  Elec       q    Type
REMARK                         _______ _______ _______ _____ _____    ______ ____
ROOT
ATOM      1  C   UNL     1       5.705  -3.101   3.239  0.00  0.00    +0.000 C 
ATOM      2  C   UNL     1       6.347  -4.194   2.768  0.00  0.00    +0.000 C 
ATOM      3  C   UNL     1       7.388  -4.864   3.642  0.00  0.00    +0.000 C 
ATOM      4  N   UNL     1       6.998  -4.980   5.052  0.00  0.00    +0.000 N 
ATOM      5  C   UNL     1       6.111  -6.126   5.287  0.00  0.00    +0.000 C 
ATOM      6  C   UNL     1       5.370  -5.748   6.552  0.00  0.00    +0.000 C 
ATOM      7  C   UNL     1       5.087  -4.279   6.319  0.00  0.00    +0.000 C 
ATOM      8  C   UNL     1       6.349  -3.771   5.609  0.00  0.00    +0.000 C 
ATOM      9  C   UNL     1       6.039  -2.618   4.632  0.00  0.00    +0.000 C 
ATOM     10  H   UNL     1       7.886  -5.112   5.536  0.00  0.00    +0.000 HD
ENDROOT
BRANCH   1  14
ATOM     11  C   UNL     1       2.799  -0.819   1.039  0.00  0.00    +0.000 A 
ATOM     12  C   UNL     1       4.135  -0.871   0.622  0.00  0.00    +0.000 A 
ATOM     13  C   UNL     1       5.080  -1.616   1.336  0.00  0.00    +0.000 A 
ATOM     14  C   UNL     1       4.710  -2.320   2.484  0.00  0.00    +0.000 A 
ATOM     15  C   UNL     1       3.378  -2.276   2.901  0.00  0.00    +0.000 A 
ATOM     16  C   UNL     1       2.419  -1.557   2.174  0.00  0.00    +0.000 A 
BRANCH  11  18
ATOM     17  C   UNL     1       2.245   0.799  -0.629  0.00  0.00    +0.000 C 
ATOM     18  O   UNL     1       1.834  -0.075   0.414  0.00  0.00    +0.000 OA
ENDBRANCH  11  18
BRANCH  16  19
ATOM     19  O   UNL     1       1.159  -1.612   2.716  0.00  0.00    +0.000 OA
ATOM     20  C   UNL     1       0.100  -1.738   1.772  0.00  0.00    +0.000 C 
ENDBRANCH  16  19
ENDBRANCH   1  14
BRANCH   2  21
ATOM     21  C   UNL     1       6.129  -4.781   1.434  0.00  0.00    +0.000 A 
ATOM     22  C   UNL     1       4.884  -5.305   1.078  0.00  0.00    +0.000 A 
ATOM     23  C   UNL     1       4.686  -5.855  -0.189  0.00  0.00    +0.000 A 
ATOM     24  C   UNL     1       5.734  -5.888  -1.115  0.00  0.00    +0.000 A 
ATOM     25  C   UNL     1       6.990  -5.371  -0.778  0.00  0.00    +0.000 A 
ATOM     26  C   UNL     1       7.174  -4.827   0.502  0.00  0.00    +0.000 A 
BRANCH  24  27
ATOM     27  O   UNL     1       5.491  -6.439  -2.343  0.00  0.00    +0.000 OA
ATOM     28  H   UNL     1       4.641  -6.778  -2.544  0.00  0.00    +0.000 HD
ENDBRANCH  24  27
BRANCH  25  29
ATOM     29  O   UNL     1       8.123  -5.314  -1.545  0.00  0.00    +0.000 OA
ATOM     30  C   UNL     1       8.053  -5.779  -2.884  0.00  0.00    +0.000 C 
ENDBRANCH  25  29
ENDBRANCH   2  21
TORSDOF 6
