REMARK  Name = *****
REMARK  5 active torsions:
REMARK  status: ('A' for Active; 'I' for Inactive)
REMARK    1  A    between atoms: C_1  and  O_2
REMARK    2  A    between atoms: O_2  and  C_3
REMARK    3  A    between atoms: C_4  and  C_5
REMARK    4  A    between atoms: C_6  and  O_7
REMARK    5  A    between atoms: C_13  and  O_14
REMARK                            x       y       z     vdW  Elec       q    Type
REMARK                         _______ _______ _______ _____ _____    ______ ____
ROOT
ATOM      1  C   UNL     1       3.287  -0.609  -1.037  0.00  0.00    +0.000 A 
ATOM      2  C   UNL     1       2.865  -0.550  -2.377  0.00  0.00    +0.000 A 
ATOM      3  C   UNL     1       1.798   0.414  -2.813  0.00  0.00    +0.000 C 
ATOM      4  C   UNL     1       3.457  -1.440  -3.284  0.00  0.00    +0.000 A 
ATOM      5  C   UNL     1       4.450  -2.338  -2.886  0.00  0.00    +0.000 A 
ATOM      6  C   UNL     1       4.905  -2.357  -1.564  0.00  0.00    +0.000 A 
ATOM      7  C   UNL     1       5.933  -3.335  -1.186  0.00  0.00    +0.000 C 
ATOM      8  C   UNL     1       6.902  -3.115  -0.285  0.00  0.00    +0.000 C 
ATOM      9  C   UNL     1       7.097  -1.857   0.456  0.00  0.00    +0.000 A 
ATOM     10  C   UNL     1       8.382  -1.403   0.794  0.00  0.00    +0.000 A 
ATOM     11  C   UNL     1       8.571  -0.269   1.586  0.00  0.00    +0.000 A 
ATOM     12  C   UNL     1       7.470   0.448   2.050  0.00  0.00    +0.000 A 
ATOM     13  C   UNL     1       6.185   0.028   1.718  0.00  0.00    +0.000 A 
ATOM     14  C   UNL     1       6.003  -1.107   0.919  0.00  0.00    +0.000 A 
ATOM     15  O   UNL     1       4.697  -1.481   0.686  0.00  0.00    +0.000 OA
ATOM     16  C   UNL     1       4.323  -1.476  -0.642  0.00  0.00    +0.000 A 
ENDROOT
BRANCH   1  18
ATOM     17  C   UNL     1       1.890  -0.444   0.803  0.00  0.00    +0.000 C 
ATOM     18  O   UNL     1       2.709   0.255  -0.136  0.00  0.00    +0.000 OA
ENDBRANCH   1  18
BRANCH   4  19
ATOM     19  O   UNL     1       3.106  -1.499  -4.605  0.00  0.00    +0.000 OA
ATOM     20  H   UNL     1       2.446  -0.924  -4.940  0.00  0.00    +0.000 HD
ENDBRANCH   4  19
BRANCH  10  21
ATOM     21  O   UNL     1       9.525  -2.020   0.356  0.00  0.00    +0.000 OA
ATOM     22  H   UNL     1       9.468  -2.786  -0.180  0.00  0.00    +0.000 HD
ENDBRANCH  10  21
TORSDOF 3
