REMARK  Name = *****
REMARK  1 active torsions:
REMARK  status: ('A' for Active; 'I' for Inactive)
REMARK    1  A    between atoms: C_11  and  C_12
REMARK                            x       y       z     vdW  Elec       q    Type
REMARK                         _______ _______ _______ _____ _____    ______ ____
ROOT
ATOM      1  O   UNL     1       2.915  -0.942   0.071  0.00  0.00    +0.000 OA
ATOM      2  C   UNL     1       1.735  -0.641   0.062  0.00  0.00    +0.000 C 
ATOM      3  O   UNL     1       0.692  -1.566   0.061  0.00  0.00    +0.000 OA
ATOM      4  C   UNL     1      -0.477  -0.817   0.055  0.00  0.00    +0.000 A 
ATOM      5  C   UNL     1      -1.737  -1.386   0.048  0.00  0.00    +0.000 A 
ATOM      6  C   UNL     1      -2.839  -0.529   0.040  0.00  0.00    +0.000 A 
ATOM      7  C   UNL     1      -2.659   0.865   0.041  0.00  0.00    +0.000 A 
ATOM      8  C   UNL     1      -1.374   1.419   0.048  0.00  0.00    +0.000 A 
ATOM      9  C   UNL     1      -0.292   0.555   0.054  0.00  0.00    +0.000 A 
ATOM     10  C   UNL     1       1.138   0.729   0.052  0.00  0.00    +0.000 C 
ATOM     11  C   UNL     1       1.781   1.907   0.032  0.00  0.00    +0.000 C 
ENDROOT
BRANCH  11  12
ATOM     12  C   UNL     1       3.235   2.064   0.003  0.00  0.00    +0.000 A 
ATOM     13  C   UNL     1       3.906   2.143  -1.222  0.00  0.00    +0.000 A 
ATOM     14  C   UNL     1       5.294   2.287  -1.254  0.00  0.00    +0.000 A 
ATOM     15  C   UNL     1       6.015   2.355  -0.063  0.00  0.00    +0.000 A 
ATOM     16  C   UNL     1       5.351   2.279   1.161  0.00  0.00    +0.000 A 
ATOM     17  C   UNL     1       3.962   2.134   1.195  0.00  0.00    +0.000 A 
ENDBRANCH  11  12
TORSDOF 1
