REMARK  Name = *****
REMARK  10 active torsions:
REMARK  status: ('A' for Active; 'I' for Inactive)
REMARK    1  A    between atoms: C_1  and  O_2
REMARK    2  A    between atoms: O_2  and  C_3
REMARK    3  A    between atoms: C_5  and  O_6
REMARK    4  A    between atoms: O_6  and  C_7
REMARK    5  A    between atoms: C_9  and  C_10
REMARK    6  A    between atoms: C_11  and  C_12
REMARK    7  A    between atoms: C_14  and  O_15
REMARK    8  A    between atoms: O_15  and  C_16
REMARK    9  A    between atoms: C_18  and  O_19
REMARK   10  A    between atoms: O_19  and  C_20
REMARK                            x       y       z     vdW  Elec       q    Type
REMARK                         _______ _______ _______ _____ _____    ______ ____
ROOT
ATOM      1  C   UNL     1       6.328   2.856  -0.411  0.00  0.00    +0.000 C 
ATOM      2  C   UNL     1       7.202   3.796  -0.017  0.00  0.00    +0.000 C 
ENDROOT
BRANCH   1   7
ATOM      3  C   UNL     1       3.276   1.018   0.820  0.00  0.00    +0.000 A 
ATOM      4  C   UNL     1       2.532   2.046   1.404  0.00  0.00    +0.000 A 
ATOM      5  C   UNL     1       3.025   3.353   1.401  0.00  0.00    +0.000 A 
ATOM      6  C   UNL     1       4.265   3.626   0.813  0.00  0.00    +0.000 A 
ATOM      7  C   UNL     1       5.033   2.605   0.242  0.00  0.00    +0.000 A 
ATOM      8  C   UNL     1       4.517   1.304   0.241  0.00  0.00    +0.000 A 
BRANCH   3  10
ATOM      9  C   UNL     1       1.652  -0.655   1.307  0.00  0.00    +0.000 C 
ATOM     10  O   UNL     1       2.909  -0.299   0.746  0.00  0.00    +0.000 OA
ENDBRANCH   3  10
BRANCH   5  11
ATOM     11  O   UNL     1       2.396   4.450   1.927  0.00  0.00    +0.000 OA
ATOM     12  C   UNL     1       1.150   4.236   2.576  0.00  0.00    +0.000 C 
ENDBRANCH   5  11
ENDBRANCH   1   7
BRANCH   2  13
ATOM     13  C   UNL     1       8.503   4.031  -0.664  0.00  0.00    +0.000 A 
ATOM     14  C   UNL     1       8.675   3.947  -2.053  0.00  0.00    +0.000 A 
ATOM     15  C   UNL     1       9.920   4.207  -2.630  0.00  0.00    +0.000 A 
ATOM     16  C   UNL     1      10.998   4.572  -1.817  0.00  0.00    +0.000 A 
ATOM     17  C   UNL     1      10.840   4.680  -0.436  0.00  0.00    +0.000 A 
ATOM     18  C   UNL     1       9.591   4.413   0.131  0.00  0.00    +0.000 A 
BRANCH  15  19
ATOM     19  O   UNL     1      10.213   4.149  -3.967  0.00  0.00    +0.000 OA
ATOM     20  C   UNL     1       9.164   3.752  -4.841  0.00  0.00    +0.000 C 
ENDBRANCH  15  19
BRANCH  17  21
ATOM     21  O   UNL     1      11.810   5.035   0.461  0.00  0.00    +0.000 OA
ATOM     22  C   UNL     1      13.096   5.332  -0.070  0.00  0.00    +0.000 C 
ENDBRANCH  17  21
ENDBRANCH   2  13
TORSDOF 6
