REMARK  Name = *****
REMARK  5 active torsions:
REMARK  status: ('A' for Active; 'I' for Inactive)
REMARK    1  A    between atoms: C_1  and  C_2
REMARK    2  A    between atoms: C_2  and  C_3
REMARK    3  A    between atoms: C_8  and  C_9
REMARK    4  A    between atoms: C_14  and  O_15
REMARK    5  A    between atoms: C_20  and  O_21
REMARK                            x       y       z     vdW  Elec       q    Type
REMARK                         _______ _______ _______ _____ _____    ______ ____
ROOT
ATOM      1  C   UNL     1       3.078   0.158  -1.362  0.00  0.00    +0.000 C 
ATOM      2  C   UNL     1       2.227  -0.088  -0.111  0.00  0.00    +0.000 C 
ATOM      3  C   UNL     1       3.115  -0.028   1.137  0.00  0.00    +0.000 C 
ATOM      4  O   UNL     1       1.316   1.026  -0.008  0.00  0.00    +0.000 OA
ATOM      5  C   UNL     1      -0.028   0.797  -0.109  0.00  0.00    +0.000 A 
ATOM      6  C   UNL     1      -0.832   1.937  -0.070  0.00  0.00    +0.000 A 
ATOM      7  C   UNL     1      -2.220   1.824  -0.161  0.00  0.00    +0.000 A 
ATOM      8  C   UNL     1      -2.821   0.566  -0.291  0.00  0.00    +0.000 A 
ATOM      9  C   UNL     1      -2.002  -0.580  -0.325  0.00  0.00    +0.000 A 
ATOM     10  C   UNL     1      -0.603  -0.471  -0.235  0.00  0.00    +0.000 A 
ATOM     11  C   UNL     1       0.267  -1.641  -0.259  0.00  0.00    +0.000 C 
ATOM     12  C   UNL     1       1.588  -1.452  -0.202  0.00  0.00    +0.000 C 
ENDROOT
BRANCH   8  13
ATOM     13  C   UNL     1      -4.287   0.498  -0.397  0.00  0.00    +0.000 C 
ATOM     14  C   UNL     1      -4.870   0.245  -1.576  0.00  0.00    +0.000 C 
ATOM     15  C   UNL     1      -6.327   0.206  -1.605  0.00  0.00    +0.000 A 
ATOM     16  C   UNL     1      -7.018   0.118  -2.819  0.00  0.00    +0.000 A 
ATOM     17  C   UNL     1      -8.414   0.043  -2.829  0.00  0.00    +0.000 A 
ATOM     18  C   UNL     1      -9.109   0.045  -1.623  0.00  0.00    +0.000 A 
ATOM     19  C   UNL     1      -8.434   0.125  -0.410  0.00  0.00    +0.000 A 
ATOM     20  C   UNL     1      -7.043   0.217  -0.402  0.00  0.00    +0.000 A 
ATOM     21  O   UNL     1      -6.439   0.263   0.826  0.00  0.00    +0.000 OA
ATOM     22  C   UNL     1      -5.088   0.755   0.852  0.00  0.00    +0.000 C 
BRANCH  18  23
ATOM     23  O   UNL     1     -10.470  -0.036  -1.589  0.00  0.00    +0.000 OA
ATOM     24  H   UNL     1     -10.956  -0.091  -2.388  0.00  0.00    +0.000 HD
ENDBRANCH  18  23
ENDBRANCH   8  13
BRANCH   9  25
ATOM     25  O   UNL     1      -2.547  -1.839  -0.435  0.00  0.00    +0.000 OA
ATOM     26  H   UNL     1      -3.476  -1.943  -0.497  0.00  0.00    +0.000 HD
ENDBRANCH   9  25
TORSDOF 3
