REMARK  Name = *****
REMARK  3 active torsions:
REMARK  status: ('A' for Active; 'I' for Inactive)
REMARK    1  A    between atoms: C_1  and  C_2
REMARK    2  A    between atoms: C_2  and  C_10
REMARK    3  A    between atoms: C_3  and  C_4
REMARK                            x       y       z     vdW  Elec       q    Type
REMARK                         _______ _______ _______ _____ _____    ______ ____
ROOT
ATOM      1  C   UNL     1       0.891   0.214   0.074  0.00  0.00    +0.000 C 
ATOM      2  C   UNL     1       2.381   0.024   0.053  0.00  0.00    +0.000 C 
ATOM      3  C   UNL     1       3.043  -1.147  -0.001  0.00  0.00    +0.000 C 
ENDROOT
BRANCH   3   4
ATOM      4  C   UNL     1       2.399  -2.459  -0.053  0.00  0.00    +0.000 A 
ATOM      5  C   UNL     1       2.068  -3.032  -1.286  0.00  0.00    +0.000 A 
ATOM      6  C   UNL     1       1.448  -4.281  -1.335  0.00  0.00    +0.000 A 
ATOM      7  C   UNL     1       1.155  -4.962  -0.154  0.00  0.00    +0.000 A 
ATOM      8  C   UNL     1       1.481  -4.394   1.078  0.00  0.00    +0.000 A 
ATOM      9  C   UNL     1       2.101  -3.145   1.129  0.00  0.00    +0.000 A 
ENDBRANCH   3   4
BRANCH   2  10
ATOM     10  C   UNL     1       3.173   1.264   0.095  0.00  0.00    +0.000 A 
ATOM     11  C   UNL     1       3.546   1.903  -1.093  0.00  0.00    +0.000 A 
ATOM     12  C   UNL     1       4.304   3.075  -1.053  0.00  0.00    +0.000 A 
ATOM     13  C   UNL     1       4.695   3.612   0.173  0.00  0.00    +0.000 A 
ATOM     14  C   UNL     1       4.330   2.977   1.360  0.00  0.00    +0.000 A 
ATOM     15  C   UNL     1       3.572   1.806   1.322  0.00  0.00    +0.000 A 
ENDBRANCH   2  10
TORSDOF 2
