REMARK  Name = *****
REMARK  5 active torsions:
REMARK  status: ('A' for Active; 'I' for Inactive)
REMARK    1  A    between atoms: C_1  and  O_2
REMARK    2  A    between atoms: O_2  and  C_3
REMARK    3  A    between atoms: C_9  and  O_10
REMARK    4  A    between atoms: C_17  and  O_18
REMARK    5  A    between atoms: C_19  and  C_20
REMARK                            x       y       z     vdW  Elec       q    Type
REMARK                         _______ _______ _______ _____ _____    ______ ____
ROOT
ATOM      1  C   UNL     1       3.091  -1.370   0.207  0.00  0.00    +0.000 A 
ATOM      2  C   UNL     1       4.154  -0.980   1.031  0.00  0.00    +0.000 A 
ATOM      3  C   UNL     1       4.849  -1.927   1.792  0.00  0.00    +0.000 A 
ATOM      4  C   UNL     1       5.991  -1.487   2.600  0.00  0.00    +0.000 C 
ATOM      5  C   UNL     1       6.345  -2.021   3.777  0.00  0.00    +0.000 C 
ATOM      6  C   UNL     1       5.634  -3.116   4.460  0.00  0.00    +0.000 A 
ATOM      7  C   UNL     1       5.558  -3.160   5.862  0.00  0.00    +0.000 A 
ATOM      8  C   UNL     1       4.987  -4.246   6.528  0.00  0.00    +0.000 A 
ATOM      9  C   UNL     1       4.466  -5.312   5.801  0.00  0.00    +0.000 A 
ATOM     10  C   UNL     1       4.514  -5.287   4.409  0.00  0.00    +0.000 A 
ATOM     11  C   UNL     1       5.080  -4.191   3.745  0.00  0.00    +0.000 A 
ATOM     12  O   UNL     1       5.124  -4.280   2.369  0.00  0.00    +0.000 OA
ATOM     13  C   UNL     1       4.467  -3.270   1.696  0.00  0.00    +0.000 A 
ATOM     14  C   UNL     1       3.437  -3.656   0.824  0.00  0.00    +0.000 A 
ATOM     15  C   UNL     1       2.741  -2.718   0.056  0.00  0.00    +0.000 A 
ATOM     16  C   UNL     1       1.628  -3.145  -0.857  0.00  0.00    +0.000 C 
ENDROOT
BRANCH   1  18
ATOM     17  C   UNL     1       1.410   0.190   0.263  0.00  0.00    +0.000 C 
ATOM     18  O   UNL     1       2.447  -0.402  -0.521  0.00  0.00    +0.000 OA
ENDBRANCH   1  18
BRANCH   7  19
ATOM     19  O   UNL     1       6.016  -2.147   6.664  0.00  0.00    +0.000 OA
ATOM     20  H   UNL     1       6.410  -1.388   6.281  0.00  0.00    +0.000 HD
ENDBRANCH   7  19
BRANCH  14  21
ATOM     21  O   UNL     1       3.104  -4.982   0.711  0.00  0.00    +0.000 OA
ATOM     22  H   UNL     1       3.560  -5.625   1.219  0.00  0.00    +0.000 HD
ENDBRANCH  14  21
TORSDOF 3
