REMARK  Name = *****
REMARK  14 active torsions:
REMARK  status: ('A' for Active; 'I' for Inactive)
REMARK    1  A    between atoms: C_1  and  O_2
REMARK    2  A    between atoms: O_2  and  C_3
REMARK    3  A    between atoms: C_5  and  C_6
REMARK    4  A    between atoms: C_7  and  C_8
REMARK    5  A    between atoms: C_10  and  C_20
REMARK    6  A    between atoms: C_12  and  O_13
REMARK    7  A    between atoms: O_13  and  C_14
REMARK    8  A    between atoms: C_15  and  O_16
REMARK    9  A    between atoms: O_16  and  C_17
REMARK   10  A    between atoms: C_17  and  C_19
REMARK   11  A    between atoms: C_20  and  C_22
REMARK   12  A    between atoms: C_25  and  O_26
REMARK   13  A    between atoms: O_26  and  C_27
REMARK   14  A    between atoms: C_27  and  C_29
REMARK                            x       y       z     vdW  Elec       q    Type
REMARK                         _______ _______ _______ _____ _____    ______ ____
ROOT
ATOM      1  C   UNL     1       1.621  -3.476  -5.470  0.00  0.00    +0.000 A 
ATOM      2  C   UNL     1       1.877  -4.774  -5.930  0.00  0.00    +0.000 A 
ATOM      3  C   UNL     1       1.721  -5.088  -7.287  0.00  0.00    +0.000 A 
ATOM      4  C   UNL     1       1.304  -4.099  -8.194  0.00  0.00    +0.000 A 
ATOM      5  C   UNL     1       1.059  -2.795  -7.761  0.00  0.00    +0.000 A 
ATOM      6  C   UNL     1       1.238  -2.497  -6.401  0.00  0.00    +0.000 A 
ENDROOT
BRANCH   3   7
ATOM      7  C   UNL     1       1.972  -6.464  -7.812  0.00  0.00    +0.000 C 
ATOM      8  O   UNL     1       1.703  -6.728  -8.983  0.00  0.00    +0.000 OA
ATOM      9  C   UNL     1       2.545  -7.509  -6.890  0.00  0.00    +0.000 C 
ENDBRANCH   3   7
BRANCH   1  11
ATOM     10  C   UNL     1       0.794  -2.745  -3.269  0.00  0.00    +0.000 C 
ATOM     11  C   UNL     1       1.797  -3.197  -4.039  0.00  0.00    +0.000 C 
BRANCH  10  14
ATOM     12  C   UNL     1      -0.027  -2.547   0.401  0.00  0.00    +0.000 A 
ATOM     13  C   UNL     1      -0.109  -2.820  -0.967  0.00  0.00    +0.000 A 
ATOM     14  C   UNL     1       0.938  -2.463  -1.835  0.00  0.00    +0.000 A 
ATOM     15  C   UNL     1       2.060  -1.794  -1.325  0.00  0.00    +0.000 A 
ATOM     16  C   UNL     1       2.150  -1.505   0.036  0.00  0.00    +0.000 A 
ATOM     17  C   UNL     1       1.117  -1.898   0.884  0.00  0.00    +0.000 A 
BRANCH  12  19
ATOM     18  C   UNL     1      -1.984  -3.782   0.934  0.00  0.00    +0.000 C 
ATOM     19  O   UNL     1      -0.996  -2.837   1.325  0.00  0.00    +0.000 OA
ENDBRANCH  12  19
BRANCH  17  20
ATOM     20  O   UNL     1       1.217  -1.564   2.238  0.00  0.00    +0.000 OA
BRANCH  20  21
ATOM     21  C   UNL     1       1.607  -2.640   3.023  0.00  0.00    +0.000 C 
ATOM     22  O   UNL     1       1.983  -3.741   2.640  0.00  0.00    +0.000 OA
ATOM     23  C   UNL     1       1.545  -2.228   4.464  0.00  0.00    +0.000 C 
ENDBRANCH  20  21
ENDBRANCH  17  20
ENDBRANCH  10  14
ENDBRANCH   1  11
BRANCH   5  24
ATOM     24  O   UNL     1       0.649  -1.758  -8.556  0.00  0.00    +0.000 OA
ATOM     25  C   UNL     1       0.512  -2.021  -9.948  0.00  0.00    +0.000 C 
ENDBRANCH   5  24
BRANCH   6  26
ATOM     26  O   UNL     1       0.983  -1.187  -5.971  0.00  0.00    +0.000 OA
BRANCH  26  27
ATOM     27  C   UNL     1       2.134  -0.411  -5.956  0.00  0.00    +0.000 C 
ATOM     28  O   UNL     1       3.275  -0.773  -6.213  0.00  0.00    +0.000 OA
ATOM     29  C   UNL     1       1.768   0.980  -5.533  0.00  0.00    +0.000 C 
ENDBRANCH  26  27
ENDBRANCH   6  26
TORSDOF 9
