REMARK  Name = *****
REMARK  5 active torsions:
REMARK  status: ('A' for Active; 'I' for Inactive)
REMARK    1  A    between atoms: C_1  and  O_2
REMARK    2  A    between atoms: O_2  and  C_3
REMARK    3  A    between atoms: C_10  and  C_16
REMARK    4  A    between atoms: C_19  and  O_20
REMARK    5  A    between atoms: C_22  and  O_23
REMARK                            x       y       z     vdW  Elec       q    Type
REMARK                         _______ _______ _______ _____ _____    ______ ____
ROOT
ATOM      1  C   UNL     1       3.108   1.560  -0.509  0.00  0.00    +0.000 A 
ATOM      2  C   UNL     1       2.926   2.869  -0.056  0.00  0.00    +0.000 A 
ATOM      3  C   UNL     1       3.802   3.871  -0.473  0.00  0.00    +0.000 A 
ATOM      4  O   UNL     1       3.597   5.139   0.005  0.00  0.00    +0.000 OA
ATOM      5  C   UNL     1       4.301   6.117  -0.776  0.00  0.00    +0.000 C 
ATOM      6  O   UNL     1       5.678   5.833  -1.045  0.00  0.00    +0.000 OA
ATOM      7  C   UNL     1       5.809   4.618  -1.678  0.00  0.00    +0.000 C 
ATOM      8  C   UNL     1       6.735   4.334  -2.603  0.00  0.00    +0.000 C 
ATOM      9  C   UNL     1       6.770   2.985  -3.277  0.00  0.00    +0.000 C 
ATOM     10  O   UNL     1       6.088   1.914  -2.590  0.00  0.00    +0.000 OA
ATOM     11  C   UNL     1       5.046   2.275  -1.782  0.00  0.00    +0.000 A 
ATOM     12  C   UNL     1       4.174   1.269  -1.369  0.00  0.00    +0.000 A 
ATOM     13  C   UNL     1       4.864   3.575  -1.323  0.00  0.00    +0.000 A 
ENDROOT
BRANCH   8  14
ATOM     14  C   UNL     1       7.719   5.332  -3.055  0.00  0.00    +0.000 A 
ATOM     15  C   UNL     1       8.751   5.725  -2.188  0.00  0.00    +0.000 A 
ATOM     16  C   UNL     1       9.701   6.666  -2.593  0.00  0.00    +0.000 A 
ATOM     17  C   UNL     1       9.613   7.220  -3.866  0.00  0.00    +0.000 A 
ATOM     18  C   UNL     1       8.596   6.851  -4.740  0.00  0.00    +0.000 A 
ATOM     19  C   UNL     1       7.654   5.907  -4.332  0.00  0.00    +0.000 A 
BRANCH  17  20
ATOM     20  O   UNL     1      10.517   8.143  -4.302  0.00  0.00    +0.000 OA
ATOM     21  H   UNL     1      11.216   8.416  -3.740  0.00  0.00    +0.000 HD
ENDBRANCH  17  20
BRANCH  19  22
ATOM     22  O   UNL     1       6.646   5.543  -5.184  0.00  0.00    +0.000 OA
ATOM     23  H   UNL     1       6.010   4.909  -4.914  0.00  0.00    +0.000 HD
ENDBRANCH  19  22
ENDBRANCH   8  14
BRANCH   1  25
ATOM     24  C   UNL     1       1.211   0.731   0.661  0.00  0.00    +0.000 C 
ATOM     25  O   UNL     1       2.327   0.484  -0.185  0.00  0.00    +0.000 OA
ENDBRANCH   1  25
TORSDOF 4
