REMARK  Name = *****
REMARK  6 active torsions:
REMARK  status: ('A' for Active; 'I' for Inactive)
REMARK    1  A    between atoms: C_1  and  O_2
REMARK    2  A    between atoms: O_2  and  C_3
REMARK    3  A    between atoms: C_6  and  C_7
REMARK    4  A    between atoms: C_8  and  C_9
REMARK    5  A    between atoms: C_13  and  O_14
REMARK    6  A    between atoms: O_14  and  C_15
REMARK                            x       y       z     vdW  Elec       q    Type
REMARK                         _______ _______ _______ _____ _____    ______ ____
ROOT
ATOM      1  C   UNL     1       5.174  -4.983  -0.010  0.00  0.00    +0.000 C 
ATOM      2  C   UNL     1       4.780  -6.105  -0.635  0.00  0.00    +0.000 C 
ENDROOT
BRANCH   1   6
ATOM      3  C   UNL     1       3.162  -1.199  -0.210  0.00  0.00    +0.000 A 
ATOM      4  C   UNL     1       2.417  -2.377  -0.182  0.00  0.00    +0.000 A 
ATOM      5  C   UNL     1       3.064  -3.619  -0.124  0.00  0.00    +0.000 A 
ATOM      6  C   UNL     1       4.462  -3.701  -0.103  0.00  0.00    +0.000 A 
ATOM      7  C   UNL     1       5.201  -2.513  -0.113  0.00  0.00    +0.000 A 
ATOM      8  C   UNL     1       4.555  -1.275  -0.171  0.00  0.00    +0.000 A 
BRANCH   3  10
ATOM      9  C   UNL     1       1.244   0.199  -0.332  0.00  0.00    +0.000 C 
ATOM     10  O   UNL     1       2.659   0.071  -0.266  0.00  0.00    +0.000 OA
ENDBRANCH   3  10
ENDBRANCH   1   6
BRANCH   2  11
ATOM     11  C   UNL     1       5.498  -7.385  -0.559  0.00  0.00    +0.000 A 
ATOM     12  C   UNL     1       6.123  -7.827   0.613  0.00  0.00    +0.000 A 
ATOM     13  C   UNL     1       6.766  -9.066   0.648  0.00  0.00    +0.000 A 
ATOM     14  C   UNL     1       6.780  -9.885  -0.483  0.00  0.00    +0.000 A 
ATOM     15  C   UNL     1       6.147  -9.468  -1.654  0.00  0.00    +0.000 A 
ATOM     16  C   UNL     1       5.507  -8.224  -1.682  0.00  0.00    +0.000 A 
BRANCH  15  17
ATOM     17  O   UNL     1       6.078 -10.172  -2.825  0.00  0.00    +0.000 OA
ATOM     18  C   UNL     1       6.707 -11.447  -2.847  0.00  0.00    +0.000 C 
ENDBRANCH  15  17
ENDBRANCH   2  11
TORSDOF 4
