REMARK  Name = *****
REMARK  4 active torsions:
REMARK  status: ('A' for Active; 'I' for Inactive)
REMARK    1  A    between atoms: C_1  and  O_2
REMARK    2  A    between atoms: O_2  and  C_3
REMARK    3  A    between atoms: C_11  and  C_12
REMARK    4  A    between atoms: C_17  and  O_18
REMARK                            x       y       z     vdW  Elec       q    Type
REMARK                         _______ _______ _______ _____ _____    ______ ____
ROOT
ATOM      1  C   UNL     1       1.548  -1.441  -2.012  0.00  0.00    +0.000 C 
ATOM      2  C   UNL     1       1.629  -0.428  -2.885  0.00  0.00    +0.000 C 
ATOM      3  C   UNL     1       0.411  -0.068  -3.600  0.00  0.00    +0.000 A 
ATOM      4  C   UNL     1       0.348   1.098  -4.371  0.00  0.00    +0.000 A 
ATOM      5  C   UNL     1      -0.818   1.416  -5.073  0.00  0.00    +0.000 A 
ATOM      6  C   UNL     1      -1.912   0.557  -5.009  0.00  0.00    +0.000 A 
ATOM      7  C   UNL     1      -1.861  -0.609  -4.252  0.00  0.00    +0.000 A 
ATOM      8  C   UNL     1      -0.704  -0.913  -3.536  0.00  0.00    +0.000 A 
ATOM      9  O   UNL     1      -0.713  -2.083  -2.825  0.00  0.00    +0.000 OA
ATOM     10  C   UNL     1       0.263  -2.187  -1.772  0.00  0.00    +0.000 C 
ENDROOT
BRANCH   1  19
ATOM     11  C   UNL     1       2.846  -1.428   0.152  0.00  0.00    +0.000 A 
ATOM     12  C   UNL     1       3.965  -1.822   0.897  0.00  0.00    +0.000 A 
ATOM     13  C   UNL     1       4.924  -2.587   0.266  0.00  0.00    +0.000 A 
ATOM     14  O   UNL     1       6.065  -3.055   0.841  0.00  0.00    +0.000 OA
ATOM     15  C   UNL     1       6.651  -3.776  -0.263  0.00  0.00    +0.000 C 
ATOM     16  O   UNL     1       5.861  -3.717  -1.469  0.00  0.00    +0.000 OA
ATOM     17  C   UNL     1       4.808  -2.965  -1.050  0.00  0.00    +0.000 A 
ATOM     18  C   UNL     1       3.722  -2.603  -1.814  0.00  0.00    +0.000 A 
ATOM     19  C   UNL     1       2.718  -1.830  -1.207  0.00  0.00    +0.000 A 
BRANCH  11  21
ATOM     20  C   UNL     1       2.081   0.056   1.851  0.00  0.00    +0.000 C 
ATOM     21  O   UNL     1       1.817  -0.672   0.658  0.00  0.00    +0.000 OA
ENDBRANCH  11  21
ENDBRANCH   1  19
BRANCH   6  22
ATOM     22  O   UNL     1      -3.065   0.827  -5.684  0.00  0.00    +0.000 OA
ATOM     23  H   UNL     1      -3.133   1.604  -6.203  0.00  0.00    +0.000 HD
ENDBRANCH   6  22
TORSDOF 3
