REMARK  Name = *****
REMARK  9 active torsions:
REMARK  status: ('A' for Active; 'I' for Inactive)
REMARK    1  A    between atoms: C_1  and  O_2
REMARK    2  A    between atoms: O_2  and  C_3
REMARK    3  A    between atoms: C_5  and  O_6
REMARK    4  A    between atoms: C_8  and  C_9
REMARK    5  A    between atoms: C_10  and  C_11
REMARK    6  A    between atoms: C_15  and  O_16
REMARK    7  A    between atoms: O_16  and  C_17
REMARK    8  A    between atoms: C_18  and  O_19
REMARK    9  A    between atoms: O_19  and  C_20
REMARK                            x       y       z     vdW  Elec       q    Type
REMARK                         _______ _______ _______ _____ _____    ______ ____
ROOT
ATOM      1  C   UNL     1       6.653   2.173  -0.007  0.00  0.00    +0.000 C 
ATOM      2  C   UNL     1       7.510   3.166   0.280  0.00  0.00    +0.000 C 
ENDROOT
BRANCH   1   7
ATOM      3  C   UNL     1       3.011   1.520  -0.748  0.00  0.00    +0.000 A 
ATOM      4  C   UNL     1       2.373   2.388   0.136  0.00  0.00    +0.000 A 
ATOM      5  C   UNL     1       3.142   3.190   0.977  0.00  0.00    +0.000 A 
ATOM      6  C   UNL     1       4.533   3.145   0.947  0.00  0.00    +0.000 A 
ATOM      7  C   UNL     1       5.188   2.293   0.052  0.00  0.00    +0.000 A 
ATOM      8  C   UNL     1       4.411   1.475  -0.782  0.00  0.00    +0.000 A 
BRANCH   3  10
ATOM      9  C   UNL     1       0.974   0.649  -1.618  0.00  0.00    +0.000 C 
ATOM     10  O   UNL     1       2.395   0.667  -1.624  0.00  0.00    +0.000 OA
ENDBRANCH   3  10
BRANCH   5  11
ATOM     11  O   UNL     1       2.560   4.047   1.866  0.00  0.00    +0.000 OA
ATOM     12  H   UNL     1       1.626   4.107   1.917  0.00  0.00    +0.000 HD
ENDBRANCH   5  11
ENDBRANCH   1   7
BRANCH   2  13
ATOM     13  C   UNL     1       8.975   3.015   0.232  0.00  0.00    +0.000 A 
ATOM     14  C   UNL     1       9.595   2.402  -0.864  0.00  0.00    +0.000 A 
ATOM     15  C   UNL     1      10.985   2.297  -0.925  0.00  0.00    +0.000 A 
ATOM     16  C   UNL     1      11.780   2.819   0.099  0.00  0.00    +0.000 A 
ATOM     17  C   UNL     1      11.190   3.452   1.196  0.00  0.00    +0.000 A 
ATOM     18  C   UNL     1       9.786   3.530   1.262  0.00  0.00    +0.000 A 
BRANCH  17  19
ATOM     19  O   UNL     1      11.881   4.011   2.240  0.00  0.00    +0.000 OA
ATOM     20  C   UNL     1      13.297   4.061   2.134  0.00  0.00    +0.000 C 
ENDBRANCH  17  19
BRANCH  18  21
ATOM     21  O   UNL     1       9.187   4.181   2.321  0.00  0.00    +0.000 OA
ATOM     22  C   UNL     1       9.048   3.287   3.425  0.00  0.00    +0.000 C 
ENDBRANCH  18  21
ENDBRANCH   2  13
TORSDOF 6
