REMARK  Name = *****
REMARK  9 active torsions:
REMARK  status: ('A' for Active; 'I' for Inactive)
REMARK    1  A    between atoms: C_1  and  O_2
REMARK    2  A    between atoms: O_2  and  C_3
REMARK    3  A    between atoms: C_5  and  O_6
REMARK    4  A    between atoms: C_9  and  C_10
REMARK    5  A    between atoms: C_14  and  C_21
REMARK    6  A    between atoms: C_15  and  O_16
REMARK    7  A    between atoms: C_21  and  C_22
REMARK    8  A    between atoms: C_21  and  C_23
REMARK    9  A    between atoms: C_21  and  C_24
REMARK                            x       y       z     vdW  Elec       q    Type
REMARK                         _______ _______ _______ _____ _____    ______ ____
ROOT
ATOM      1  C   UNL     1       4.257  -1.328   0.295  0.00  0.00    +0.000 C 
ATOM      2  C   UNL     1       3.640  -2.406  -0.214  0.00  0.00    +0.000 C 
ATOM      3  C   UNL     1       3.873  -3.691   0.438  0.00  0.00    +0.000 A 
ATOM      4  C   UNL     1       3.435  -4.889  -0.147  0.00  0.00    +0.000 A 
ATOM      5  C   UNL     1       3.606  -6.141   0.487  0.00  0.00    +0.000 A 
ATOM      6  C   UNL     1       4.250  -6.119   1.744  0.00  0.00    +0.000 A 
ATOM      7  C   UNL     1       4.668  -4.929   2.344  0.00  0.00    +0.000 A 
ATOM      8  C   UNL     1       4.493  -3.720   1.685  0.00  0.00    +0.000 A 
ATOM      9  O   UNL     1       4.908  -2.589   2.335  0.00  0.00    +0.000 OA
ATOM     10  C   UNL     1       5.181  -1.461   1.481  0.00  0.00    +0.000 C 
ENDROOT
BRANCH   1  16
ATOM     11  C   UNL     1       5.145   0.831  -0.706  0.00  0.00    +0.000 A 
ATOM     12  C   UNL     1       4.891   2.100  -1.245  0.00  0.00    +0.000 A 
ATOM     13  C   UNL     1       3.579   2.548  -1.381  0.00  0.00    +0.000 A 
ATOM     14  C   UNL     1       2.510   1.759  -0.989  0.00  0.00    +0.000 A 
ATOM     15  C   UNL     1       2.751   0.496  -0.449  0.00  0.00    +0.000 A 
ATOM     16  C   UNL     1       4.065   0.014  -0.302  0.00  0.00    +0.000 A 
BRANCH  11  18
ATOM     17  C   UNL     1       7.508   1.061  -1.020  0.00  0.00    +0.000 C 
ATOM     18  O   UNL     1       6.402   0.303  -0.550  0.00  0.00    +0.000 OA
ENDBRANCH  11  18
BRANCH  13  19
ATOM     19  O   UNL     1       3.296   3.777  -1.902  0.00  0.00    +0.000 OA
ATOM     20  H   UNL     1       3.992   4.340  -2.179  0.00  0.00    +0.000 HD
ENDBRANCH  13  19
ENDBRANCH   1  16
BRANCH   5  21
ATOM     21  C   UNL     1       3.067  -7.440  -0.162  0.00  0.00    +0.000 C 
ATOM     22  C   UNL     1       2.020  -8.074   0.789  0.00  0.00    +0.000 C 
ATOM     23  C   UNL     1       2.331  -7.213  -1.508  0.00  0.00    +0.000 C 
BRANCH  21  24
ATOM     24  C   UNL     1       4.158  -8.470  -0.474  0.00  0.00    +0.000 C 
ATOM     25  C   UNL     1       5.465  -8.239  -0.665  0.00  0.00    +0.000 C 
ENDBRANCH  21  24
ENDBRANCH   5  21
BRANCH   6  26
ATOM     26  O   UNL     1       4.533  -7.245   2.469  0.00  0.00    +0.000 OA
ATOM     27  H   UNL     1       4.288  -8.088   2.140  0.00  0.00    +0.000 HD
ENDBRANCH   6  26
TORSDOF 6
