REMARK  Name = *****
REMARK  6 active torsions:
REMARK  status: ('A' for Active; 'I' for Inactive)
REMARK    1  A    between atoms: C_1  and  O_2
REMARK    2  A    between atoms: O_2  and  C_3
REMARK    3  A    between atoms: C_20  and  O_21
REMARK    4  A    between atoms: O_21  and  C_22
REMARK    5  A    between atoms: C_23  and  O_24
REMARK    6  A    between atoms: O_24  and  C_25
REMARK                            x       y       z     vdW  Elec       q    Type
REMARK                         _______ _______ _______ _____ _____    ______ ____
ROOT
ATOM      1  C   UNL     1       3.887  -2.365  -1.623  0.00  0.00    +0.000 C 
ATOM      2  C   UNL     1       4.680  -3.376  -2.042  0.00  0.00    +0.000 C 
ATOM      3  N   UNL     1       4.312  -4.656  -2.438  0.00  0.00    +0.000 N 
ATOM      4  C   UNL     1       2.977  -5.210  -2.459  0.00  0.00    +0.000 C 
ATOM      5  C   UNL     1       2.145  -4.830  -1.241  0.00  0.00    +0.000 C 
ATOM      6  C   UNL     1       1.564  -3.451  -1.421  0.00  0.00    +0.000 A 
ATOM      7  C   UNL     1       0.159  -3.313  -1.394  0.00  0.00    +0.000 A 
ATOM      8  C   UNL     1      -0.386  -2.070  -1.620  0.00  0.00    +0.000 A 
ATOM      9  O   UNL     1      -1.711  -1.771  -1.639  0.00  0.00    +0.000 OA
ATOM     10  C   UNL     1      -1.664  -0.360  -1.935  0.00  0.00    +0.000 C 
ATOM     11  O   UNL     1      -0.322   0.151  -2.075  0.00  0.00    +0.000 OA
ATOM     12  C   UNL     1       0.403  -0.980  -1.869  0.00  0.00    +0.000 A 
ATOM     13  C   UNL     1       1.778  -1.074  -1.892  0.00  0.00    +0.000 A 
ATOM     14  C   UNL     1       2.394  -2.324  -1.653  0.00  0.00    +0.000 A 
ATOM     15  C   UNL     1       5.403  -5.429  -2.818  0.00  0.00    +0.000 C 
ATOM     16  O   UNL     1       5.401  -6.574  -3.230  0.00  0.00    +0.000 OA
ATOM     17  C   UNL     1       6.589  -4.584  -2.628  0.00  0.00    +0.000 A 
ATOM     18  C   UNL     1       7.926  -4.881  -2.868  0.00  0.00    +0.000 A 
ATOM     19  C   UNL     1       8.872  -3.890  -2.584  0.00  0.00    +0.000 A 
ATOM     20  C   UNL     1       8.448  -2.620  -2.158  0.00  0.00    +0.000 A 
ATOM     21  C   UNL     1       7.093  -2.339  -1.944  0.00  0.00    +0.000 A 
ATOM     22  C   UNL     1       6.155  -3.339  -2.160  0.00  0.00    +0.000 A 
ENDROOT
BRANCH   1  24
ATOM     23  C   UNL     1       4.447  -1.088   0.236  0.00  0.00    +0.000 C 
ATOM     24  O   UNL     1       4.459  -1.168  -1.193  0.00  0.00    +0.000 OA
ENDBRANCH   1  24
BRANCH  18  25
ATOM     25  O   UNL     1       8.299  -6.111  -3.327  0.00  0.00    +0.000 OA
ATOM     26  C   UNL     1       8.283  -6.129  -4.756  0.00  0.00    +0.000 C 
ENDBRANCH  18  25
BRANCH  19  27
ATOM     27  O   UNL     1      10.228  -4.014  -2.745  0.00  0.00    +0.000 OA
ATOM     28  C   UNL     1      10.773  -5.240  -2.261  0.00  0.00    +0.000 C 
ENDBRANCH  19  27
TORSDOF 3
