REMARK  Name = *****
REMARK  18 active torsions:
REMARK  status: ('A' for Active; 'I' for Inactive)
REMARK    1  A    between atoms: C_1  and  O_2
REMARK    2  A    between atoms: O_2  and  C_3
REMARK    3  A    between atoms: C_5  and  C_6
REMARK    4  A    between atoms: C_7  and  C_8
REMARK    5  A    between atoms: C_7  and  C_9
REMARK    6  A    between atoms: C_11  and  C_12
REMARK    7  A    between atoms: C_13  and  C_14
REMARK    8  A    between atoms: C_14  and  O_15
REMARK    9  A    between atoms: O_15  and  C_16
REMARK   10  A    between atoms: C_16  and  C_18
REMARK   11  A    between atoms: C_20  and  O_21
REMARK   12  A    between atoms: O_21  and  C_22
REMARK   13  A    between atoms: C_23  and  O_24
REMARK   14  A    between atoms: O_24  and  C_25
REMARK   15  A    between atoms: C_25  and  C_27
REMARK   16  A    between atoms: C_30  and  O_31
REMARK   17  A    between atoms: O_31  and  C_32
REMARK   18  A    between atoms: C_32  and  C_34
REMARK                            x       y       z     vdW  Elec       q    Type
REMARK                         _______ _______ _______ _____ _____    ______ ____
ROOT
ATOM      1  C   UNL     1       0.939   3.132   5.399  0.00  0.00    +0.000 A 
ATOM      2  C   UNL     1       1.064   4.520   5.571  0.00  0.00    +0.000 A 
ATOM      3  C   UNL     1       0.729   5.136   6.786  0.00  0.00    +0.000 A 
ATOM      4  C   UNL     1       0.216   4.348   7.831  0.00  0.00    +0.000 A 
ATOM      5  C   UNL     1       0.072   2.966   7.687  0.00  0.00    +0.000 A 
ATOM      6  C   UNL     1       0.469   2.371   6.480  0.00  0.00    +0.000 A 
ENDROOT
BRANCH   1   8
ATOM      7  C   UNL     1       2.596   2.550   3.725  0.00  0.00    +0.000 C 
ATOM      8  C   UNL     1       1.298   2.529   4.095  0.00  0.00    +0.000 C 
ATOM      9  C   UNL     1       0.165   1.910   3.322  0.00  0.00    +0.000 C 
BRANCH   7  12
ATOM     10  C   UNL     1       4.913   0.755   1.353  0.00  0.00    +0.000 A 
ATOM     11  C   UNL     1       4.327   1.246   2.524  0.00  0.00    +0.000 A 
ATOM     12  C   UNL     1       3.163   2.034   2.470  0.00  0.00    +0.000 A 
ATOM     13  C   UNL     1       2.609   2.358   1.225  0.00  0.00    +0.000 A 
ATOM     14  C   UNL     1       3.166   1.854   0.051  0.00  0.00    +0.000 A 
ATOM     15  C   UNL     1       4.314   1.065   0.125  0.00  0.00    +0.000 A 
BRANCH  10  17
ATOM     16  C   UNL     1       6.790  -0.155   2.495  0.00  0.00    +0.000 C 
ATOM     17  O   UNL     1       6.035  -0.030   1.297  0.00  0.00    +0.000 OA
ENDBRANCH  10  17
BRANCH  15  18
ATOM     18  O   UNL     1       4.836   0.494  -1.044  0.00  0.00    +0.000 OA
BRANCH  18  19
ATOM     19  C   UNL     1       5.429   1.397  -1.917  0.00  0.00    +0.000 C 
ATOM     20  O   UNL     1       5.519   2.610  -1.779  0.00  0.00    +0.000 OA
ATOM     21  C   UNL     1       5.972   0.641  -3.093  0.00  0.00    +0.000 C 
ENDBRANCH  18  19
ENDBRANCH  15  18
ENDBRANCH   7  12
ENDBRANCH   1   8
BRANCH   3  22
ATOM     22  C   UNL     1       0.837   6.590   7.003  0.00  0.00    +0.000 C 
ATOM     23  C   UNL     1       1.615   7.435   6.307  0.00  0.00    +0.000 C 
BRANCH  23  24
ATOM     24  C   UNL     1       1.692   8.903   6.595  0.00  0.00    +0.000 C 
BRANCH  24  25
ATOM     25  O   UNL     1       1.065   9.614   5.522  0.00  0.00    +0.000 OA
BRANCH  25  26
ATOM     26  C   UNL     1      -0.229   9.974   5.740  0.00  0.00    +0.000 C 
ATOM     27  O   UNL     1      -0.869   9.777   6.763  0.00  0.00    +0.000 OA
ATOM     28  C   UNL     1      -0.767  10.692   4.539  0.00  0.00    +0.000 C 
ENDBRANCH  25  26
ENDBRANCH  24  25
ENDBRANCH  23  24
ENDBRANCH   3  22
BRANCH   5  29
ATOM     29  O   UNL     1      -0.430   2.118   8.640  0.00  0.00    +0.000 OA
ATOM     30  C   UNL     1      -0.980   2.709   9.810  0.00  0.00    +0.000 C 
ENDBRANCH   5  29
BRANCH   6  31
ATOM     31  O   UNL     1       0.330   0.983   6.344  0.00  0.00    +0.000 OA
BRANCH  31  32
ATOM     32  C   UNL     1       1.431   0.295   6.833  0.00  0.00    +0.000 C 
ATOM     33  O   UNL     1       2.487   0.770   7.232  0.00  0.00    +0.000 OA
ATOM     34  C   UNL     1       1.159  -1.177   6.740  0.00  0.00    +0.000 C 
ENDBRANCH  31  32
ENDBRANCH   6  31
TORSDOF 12
