REMARK  Name = *****
REMARK  6 active torsions:
REMARK  status: ('A' for Active; 'I' for Inactive)
REMARK    1  A    between atoms: C_1  and  O_2
REMARK    2  A    between atoms: O_2  and  C_3
REMARK    3  A    between atoms: C_6  and  C_7
REMARK    4  A    between atoms: C_8  and  C_9
REMARK    5  A    between atoms: C_12  and  O_13
REMARK    6  A    between atoms: O_13  and  C_14
REMARK                            x       y       z     vdW  Elec       q    Type
REMARK                         _______ _______ _______ _____ _____    ______ ____
ROOT
ATOM      1  C   UNL     1       5.271  -4.093  -2.589  0.00  0.00    +0.000 C 
ATOM      2  C   UNL     1       4.991  -4.629  -3.788  0.00  0.00    +0.000 C 
ENDROOT
BRANCH   1   6
ATOM      3  C   UNL     1       3.152  -0.830  -0.780  0.00  0.00    +0.000 A 
ATOM      4  C   UNL     1       2.453  -1.781  -1.521  0.00  0.00    +0.000 A 
ATOM      5  C   UNL     1       3.136  -2.848  -2.122  0.00  0.00    +0.000 A 
ATOM      6  C   UNL     1       4.525  -2.971  -2.000  0.00  0.00    +0.000 A 
ATOM      7  C   UNL     1       5.217  -2.022  -1.240  0.00  0.00    +0.000 A 
ATOM      8  C   UNL     1       4.535  -0.959  -0.641  0.00  0.00    +0.000 A 
BRANCH   3  10
ATOM      9  C   UNL     1       1.208   0.440  -0.275  0.00  0.00    +0.000 C 
ATOM     10  O   UNL     1       2.612   0.254  -0.145  0.00  0.00    +0.000 OA
ENDBRANCH   3  10
ENDBRANCH   1   6
BRANCH   2  11
ATOM     11  C   UNL     1       5.750  -5.737  -4.386  0.00  0.00    +0.000 A 
ATOM     12  C   UNL     1       6.234  -6.810  -3.628  0.00  0.00    +0.000 A 
ATOM     13  C   UNL     1       6.927  -7.865  -4.236  0.00  0.00    +0.000 A 
ATOM     14  C   UNL     1       7.135  -7.865  -5.615  0.00  0.00    +0.000 A 
ATOM     15  C   UNL     1       6.638  -6.806  -6.377  0.00  0.00    +0.000 A 
ATOM     16  C   UNL     1       5.947  -5.753  -5.770  0.00  0.00    +0.000 A 
BRANCH  14  17
ATOM     17  O   UNL     1       7.791  -8.828  -6.331  0.00  0.00    +0.000 OA
ATOM     18  C   UNL     1       8.334  -9.917  -5.596  0.00  0.00    +0.000 C 
ENDBRANCH  14  17
ENDBRANCH   2  11
TORSDOF 4
