REMARK  Name = *****
REMARK  10 active torsions:
REMARK  status: ('A' for Active; 'I' for Inactive)
REMARK    1  A    between atoms: C_1  and  O_2
REMARK    2  A    between atoms: O_2  and  C_3
REMARK    3  A    between atoms: C_4  and  C_5
REMARK    4  A    between atoms: C_5  and  C_6
REMARK    5  A    between atoms: C_7  and  C_8
REMARK    6  A    between atoms: C_7  and  C_9
REMARK    7  A    between atoms: C_10  and  O_11
REMARK    8  A    between atoms: C_16  and  C_19
REMARK    9  A    between atoms: C_22  and  O_23
REMARK   10  A    between atoms: C_25  and  O_26
REMARK                            x       y       z     vdW  Elec       q    Type
REMARK                         _______ _______ _______ _____ _____    ______ ____
ROOT
ATOM      1  C   UNL     1       3.212   1.027  -0.491  0.00  0.00    +0.000 A 
ATOM      2  C   UNL     1       2.765   2.342  -0.238  0.00  0.00    +0.000 A 
ATOM      3  C   UNL     1       3.376   3.385  -0.952  0.00  0.00    +0.000 A 
ATOM      4  C   UNL     1       4.402   3.143  -1.862  0.00  0.00    +0.000 A 
ATOM      5  C   UNL     1       4.819   1.838  -2.104  0.00  0.00    +0.000 A 
ATOM      6  O   UNL     1       5.794   1.673  -3.055  0.00  0.00    +0.000 OA
ATOM      7  C   UNL     1       6.540   0.445  -2.948  0.00  0.00    +0.000 C 
ATOM      8  C   UNL     1       5.704  -0.755  -2.579  0.00  0.00    +0.000 C 
ATOM      9  C   UNL     1       4.590  -0.595  -1.846  0.00  0.00    +0.000 C 
ATOM     10  C   UNL     1       4.209   0.762  -1.450  0.00  0.00    +0.000 A 
ENDROOT
BRANCH   8  11
ATOM     11  C   UNL     1       6.151  -2.094  -3.020  0.00  0.00    +0.000 A 
ATOM     12  C   UNL     1       5.223  -2.972  -3.610  0.00  0.00    +0.000 A 
ATOM     13  C   UNL     1       5.608  -4.240  -4.058  0.00  0.00    +0.000 A 
ATOM     14  C   UNL     1       6.932  -4.637  -3.921  0.00  0.00    +0.000 A 
ATOM     15  C   UNL     1       7.874  -3.792  -3.348  0.00  0.00    +0.000 A 
ATOM     16  C   UNL     1       7.483  -2.527  -2.904  0.00  0.00    +0.000 A 
BRANCH  14  17
ATOM     17  O   UNL     1       7.353  -5.863  -4.344  0.00  0.00    +0.000 OA
ATOM     18  H   UNL     1       6.745  -6.458  -4.735  0.00  0.00    +0.000 HD
ENDBRANCH  14  17
BRANCH  16  19
ATOM     19  O   UNL     1       8.418  -1.707  -2.328  0.00  0.00    +0.000 OA
ATOM     20  H   UNL     1       8.171  -0.855  -2.025  0.00  0.00    +0.000 HD
ENDBRANCH  16  19
ENDBRANCH   8  11
BRANCH   1  22
ATOM     21  C   UNL     1       3.397  -0.411   1.298  0.00  0.00    +0.000 C 
ATOM     22  O   UNL     1       2.605  -0.017   0.173  0.00  0.00    +0.000 OA
ENDBRANCH   1  22
BRANCH   3  23
ATOM     23  O   UNL     1       3.001   4.693  -0.810  0.00  0.00    +0.000 OA
ATOM     24  H   UNL     1       2.316   4.922  -0.214  0.00  0.00    +0.000 HD
ENDBRANCH   3  23
BRANCH   2  25
ATOM     25  C   UNL     1       1.660   2.613   0.762  0.00  0.00    +0.000 C 
BRANCH  25  26
ATOM     26  C   UNL     1       0.336   2.875   0.094  0.00  0.00    +0.000 C 
ATOM     27  C   UNL     1      -0.484   3.935   0.240  0.00  0.00    +0.000 C 
ATOM     28  C   UNL     1      -0.244   5.112   1.146  0.00  0.00    +0.000 C 
ATOM     29  C   UNL     1      -1.777   4.010  -0.532  0.00  0.00    +0.000 C 
ENDBRANCH  25  26
ENDBRANCH   2  25
TORSDOF 7
