REMARK  Name = *****
REMARK  6 active torsions:
REMARK  status: ('A' for Active; 'I' for Inactive)
REMARK    1  A    between atoms: C_1  and  O_2
REMARK    2  A    between atoms: O_2  and  C_3
REMARK    3  A    between atoms: C_6  and  C_7
REMARK    4  A    between atoms: C_23  and  O_24
REMARK    5  A    between atoms: C_25  and  O_26
REMARK    6  A    between atoms: O_26  and  C_27
REMARK                            x       y       z     vdW  Elec       q    Type
REMARK                         _______ _______ _______ _____ _____    ______ ____
ROOT
ATOM      1  C   UNL     1       5.049   5.362  -0.035  0.00  0.00    +0.000 C 
ATOM      2  C   UNL     1       6.088   5.897  -0.716  0.00  0.00    +0.000 C 
ATOM      3  N   UNL     1       6.836   5.170  -1.652  0.00  0.00    +0.000 N 
ATOM      4  C   UNL     1       7.420   5.911  -2.763  0.00  0.00    +0.000 C 
ATOM      5  C   UNL     1       8.325   7.016  -2.243  0.00  0.00    +0.000 C 
ATOM      6  C   UNL     1       7.558   7.893  -1.285  0.00  0.00    +0.000 A 
ATOM      7  C   UNL     1       7.972   9.229  -1.123  0.00  0.00    +0.000 A 
ATOM      8  C   UNL     1       7.273  10.020  -0.246  0.00  0.00    +0.000 A 
ATOM      9  O   UNL     1       7.525  11.327   0.027  0.00  0.00    +0.000 OA
ATOM     10  C   UNL     1       6.491  11.606   0.993  0.00  0.00    +0.000 C 
ATOM     11  O   UNL     1       5.649  10.469   1.275  0.00  0.00    +0.000 OA
ATOM     12  C   UNL     1       6.207   9.530   0.462  0.00  0.00    +0.000 A 
ATOM     13  C   UNL     1       5.783   8.221   0.340  0.00  0.00    +0.000 A 
ATOM     14  C   UNL     1       6.461   7.355  -0.541  0.00  0.00    +0.000 A 
ATOM     15  C   UNL     1       7.257   3.857  -1.454  0.00  0.00    +0.000 C 
ATOM     16  O   UNL     1       7.226   3.190  -0.427  0.00  0.00    +0.000 OA
ENDROOT
BRANCH   1  20
ATOM     17  C   UNL     1       3.089   1.548  -0.481  0.00  0.00    +0.000 A 
ATOM     18  C   UNL     1       3.712   1.919   0.716  0.00  0.00    +0.000 A 
ATOM     19  C   UNL     1       4.360   3.155   0.837  0.00  0.00    +0.000 A 
ATOM     20  C   UNL     1       4.407   4.050  -0.236  0.00  0.00    +0.000 A 
ATOM     21  C   UNL     1       3.778   3.682  -1.429  0.00  0.00    +0.000 A 
ATOM     22  C   UNL     1       3.152   2.431  -1.572  0.00  0.00    +0.000 A 
BRANCH  17  24
ATOM     23  C   UNL     1       2.201  -0.445   0.491  0.00  0.00    +0.000 C 
ATOM     24  O   UNL     1       2.394   0.380  -0.651  0.00  0.00    +0.000 OA
ENDBRANCH  17  24
BRANCH  21  25
ATOM     25  O   UNL     1       3.750   4.553  -2.494  0.00  0.00    +0.000 OA
ATOM     26  H   UNL     1       4.160   5.392  -2.423  0.00  0.00    +0.000 HD
ENDBRANCH  21  25
BRANCH  22  27
ATOM     27  O   UNL     1       2.582   2.224  -2.811  0.00  0.00    +0.000 OA
ATOM     28  C   UNL     1       2.763   0.911  -3.336  0.00  0.00    +0.000 C 
ENDBRANCH  22  27
ENDBRANCH   1  20
TORSDOF 4
