REMARK  Name = *****
REMARK  6 active torsions:
REMARK  status: ('A' for Active; 'I' for Inactive)
REMARK    1  A    between atoms: C_1  and  O_2
REMARK    2  A    between atoms: O_2  and  C_3
REMARK    3  A    between atoms: C_5  and  O_6
REMARK    4  A    between atoms: O_6  and  C_7
REMARK    5  A    between atoms: C_9  and  C_10
REMARK    6  A    between atoms: C_11  and  C_12
REMARK                            x       y       z     vdW  Elec       q    Type
REMARK                         _______ _______ _______ _____ _____    ______ ____
ROOT
ATOM      1  C   UNL     1       3.243  -0.678  -0.886  0.00  0.00    +0.000 A 
ATOM      2  C   UNL     1       2.787  -0.919  -2.185  0.00  0.00    +0.000 A 
ATOM      3  C   UNL     1       3.502  -1.771  -3.030  0.00  0.00    +0.000 A 
ATOM      4  C   UNL     1       4.677  -2.376  -2.572  0.00  0.00    +0.000 A 
ATOM      5  C   UNL     1       5.158  -2.131  -1.281  0.00  0.00    +0.000 A 
ATOM      6  C   UNL     1       4.420  -1.288  -0.442  0.00  0.00    +0.000 A 
ENDROOT
BRANCH   1   8
ATOM      7  C   UNL     1       1.428   0.765  -0.342  0.00  0.00    +0.000 C 
ATOM      8  O   UNL     1       2.637   0.124   0.044  0.00  0.00    +0.000 OA
ENDBRANCH   1   8
BRANCH   3   9
ATOM      9  O   UNL     1       3.163  -2.098  -4.316  0.00  0.00    +0.000 OA
ATOM     10  C   UNL     1       1.985  -1.506  -4.848  0.00  0.00    +0.000 C 
ENDBRANCH   3   9
BRANCH   5  11
ATOM     11  C   UNL     1       6.372  -2.773  -0.754  0.00  0.00    +0.000 C 
ATOM     12  C   UNL     1       7.463  -3.037  -1.492  0.00  0.00    +0.000 C 
BRANCH  12  13
ATOM     13  C   UNL     1       8.681  -3.663  -0.957  0.00  0.00    +0.000 A 
ATOM     14  C   UNL     1       8.638  -4.698  -0.013  0.00  0.00    +0.000 A 
ATOM     15  C   UNL     1       9.818  -5.290   0.448  0.00  0.00    +0.000 A 
ATOM     16  C   UNL     1      11.051  -4.860  -0.039  0.00  0.00    +0.000 A 
ATOM     17  C   UNL     1      11.105  -3.844  -0.990  0.00  0.00    +0.000 A 
ATOM     18  C   UNL     1       9.926  -3.253  -1.451  0.00  0.00    +0.000 A 
ENDBRANCH  12  13
ENDBRANCH   5  11
TORSDOF 4
