REMARK  Name = *****
REMARK  18 active torsions:
REMARK  status: ('A' for Active; 'I' for Inactive)
REMARK    1  A    between atoms: C_1  and  O_2
REMARK    2  A    between atoms: O_2  and  C_3
REMARK    3  A    between atoms: C_5  and  C_6
REMARK    4  A    between atoms: C_7  and  C_8
REMARK    5  A    between atoms: C_7  and  C_9
REMARK    6  A    between atoms: C_11  and  O_12
REMARK    7  A    between atoms: O_12  and  C_13
REMARK    8  A    between atoms: C_14  and  O_15
REMARK    9  A    between atoms: O_15  and  C_16
REMARK   10  A    between atoms: C_16  and  C_18
REMARK   11  A    between atoms: C_20  and  C_21
REMARK   12  A    between atoms: C_22  and  C_23
REMARK   13  A    between atoms: C_23  and  O_24
REMARK   14  A    between atoms: O_24  and  C_25
REMARK   15  A    between atoms: C_25  and  C_27
REMARK   16  A    between atoms: C_30  and  O_31
REMARK   17  A    between atoms: O_31  and  C_32
REMARK   18  A    between atoms: C_32  and  C_34
REMARK                            x       y       z     vdW  Elec       q    Type
REMARK                         _______ _______ _______ _____ _____    ______ ____
ROOT
ATOM      1  C   UNL     1       1.191  -5.803   2.499  0.00  0.00    +0.000 A 
ATOM      2  C   UNL     1       0.885  -6.104   3.844  0.00  0.00    +0.000 A 
ATOM      3  C   UNL     1       0.519  -7.395   4.223  0.00  0.00    +0.000 A 
ATOM      4  C   UNL     1       0.453  -8.379   3.233  0.00  0.00    +0.000 A 
ATOM      5  C   UNL     1       0.735  -8.102   1.894  0.00  0.00    +0.000 A 
ATOM      6  C   UNL     1       1.140  -6.816   1.511  0.00  0.00    +0.000 A 
ENDROOT
BRANCH   1   8
ATOM      7  C   UNL     1       2.887  -4.118   2.093  0.00  0.00    +0.000 C 
ATOM      8  C   UNL     1       1.576  -4.406   2.195  0.00  0.00    +0.000 C 
ATOM      9  C   UNL     1       0.429  -3.451   2.017  0.00  0.00    +0.000 C 
BRANCH   7  12
ATOM     10  C   UNL     1       4.699  -1.335   0.321  0.00  0.00    +0.000 A 
ATOM     11  C   UNL     1       4.141  -2.583   0.609  0.00  0.00    +0.000 A 
ATOM     12  C   UNL     1       3.441  -2.791   1.808  0.00  0.00    +0.000 A 
ATOM     13  C   UNL     1       3.301  -1.744   2.729  0.00  0.00    +0.000 A 
ATOM     14  C   UNL     1       3.847  -0.493   2.453  0.00  0.00    +0.000 A 
ATOM     15  C   UNL     1       4.552  -0.308   1.264  0.00  0.00    +0.000 A 
BRANCH  10  17
ATOM     16  C   UNL     1       5.547  -2.045  -1.784  0.00  0.00    +0.000 C 
ATOM     17  O   UNL     1       5.388  -1.012  -0.819  0.00  0.00    +0.000 OA
ENDBRANCH  10  17
BRANCH  15  18
ATOM     18  O   UNL     1       5.059   0.966   0.987  0.00  0.00    +0.000 OA
BRANCH  18  19
ATOM     19  C   UNL     1       6.379   1.107   1.389  0.00  0.00    +0.000 C 
ATOM     20  O   UNL     1       7.047   0.314   2.040  0.00  0.00    +0.000 OA
ATOM     21  C   UNL     1       6.879   2.444   0.927  0.00  0.00    +0.000 C 
ENDBRANCH  18  19
ENDBRANCH  15  18
ENDBRANCH   7  12
ENDBRANCH   1   8
BRANCH   3  22
ATOM     22  O   UNL     1       0.189  -7.786   5.493  0.00  0.00    +0.000 OA
ATOM     23  C   UNL     1       0.529  -6.891   6.545  0.00  0.00    +0.000 C 
ENDBRANCH   3  22
BRANCH   6  24
ATOM     24  C   UNL     1       1.446  -6.527   0.095  0.00  0.00    +0.000 C 
ATOM     25  C   UNL     1       2.059  -7.384  -0.739  0.00  0.00    +0.000 C 
BRANCH  25  26
ATOM     26  C   UNL     1       2.399  -7.063  -2.161  0.00  0.00    +0.000 C 
BRANCH  26  27
ATOM     27  O   UNL     1       3.785  -7.358  -2.370  0.00  0.00    +0.000 OA
BRANCH  27  28
ATOM     28  C   UNL     1       4.635  -6.298  -2.346  0.00  0.00    +0.000 C 
ATOM     29  O   UNL     1       4.323  -5.125  -2.200  0.00  0.00    +0.000 OA
ATOM     30  C   UNL     1       6.042  -6.774  -2.544  0.00  0.00    +0.000 C 
ENDBRANCH  27  28
ENDBRANCH  26  27
ENDBRANCH  25  26
ENDBRANCH   6  24
BRANCH   4  31
ATOM     31  O   UNL     1       0.034  -9.672   3.564  0.00  0.00    +0.000 OA
BRANCH  31  32
ATOM     32  C   UNL     1       1.077 -10.457   4.036  0.00  0.00    +0.000 C 
ATOM     33  O   UNL     1       2.268 -10.174   4.056  0.00  0.00    +0.000 OA
ATOM     34  C   UNL     1       0.519 -11.771   4.494  0.00  0.00    +0.000 C 
ENDBRANCH  31  32
ENDBRANCH   4  31
TORSDOF 12
