REMARK  Name = *****
REMARK  11 active torsions:
REMARK  status: ('A' for Active; 'I' for Inactive)
REMARK    1  A    between atoms: C_1  and  O_2
REMARK    2  A    between atoms: O_2  and  C_3
REMARK    3  A    between atoms: C_8  and  C_20
REMARK    4  A    between atoms: C_11  and  O_12
REMARK    5  A    between atoms: O_12  and  C_13
REMARK    6  A    between atoms: C_14  and  C_15
REMARK    7  A    between atoms: C_15  and  C_16
REMARK    8  A    between atoms: C_17  and  C_18
REMARK    9  A    between atoms: C_17  and  C_19
REMARK   10  A    between atoms: C_23  and  O_24
REMARK   11  A    between atoms: C_26  and  O_27
REMARK                            x       y       z     vdW  Elec       q    Type
REMARK                         _______ _______ _______ _____ _____    ______ ____
ROOT
ATOM      1  C   UNL     1       2.815   0.935  -0.993  0.00  0.00    +0.000 A 
ATOM      2  C   UNL     1       2.241   2.160  -1.343  0.00  0.00    +0.000 A 
ATOM      3  C   UNL     1       2.887   3.013  -2.239  0.00  0.00    +0.000 A 
ATOM      4  O   UNL     1       2.268   4.213  -2.486  0.00  0.00    +0.000 OA
ATOM      5  C   UNL     1       2.645   4.841  -3.728  0.00  0.00    +0.000 C 
ATOM      6  C   UNL     1       4.113   4.725  -4.055  0.00  0.00    +0.000 C 
ATOM      7  C   UNL     1       4.815   3.671  -3.610  0.00  0.00    +0.000 C 
ATOM      8  C   UNL     1       4.125   2.672  -2.792  0.00  0.00    +0.000 A 
ATOM      9  C   UNL     1       4.681   1.422  -2.474  0.00  0.00    +0.000 A 
ATOM     10  C   UNL     1       4.055   0.556  -1.550  0.00  0.00    +0.000 A 
ENDROOT
BRANCH   6  11
ATOM     11  C   UNL     1       4.741   5.778  -4.884  0.00  0.00    +0.000 A 
ATOM     12  C   UNL     1       5.980   6.319  -4.492  0.00  0.00    +0.000 A 
ATOM     13  C   UNL     1       6.599   7.327  -5.237  0.00  0.00    +0.000 A 
ATOM     14  C   UNL     1       5.978   7.806  -6.383  0.00  0.00    +0.000 A 
ATOM     15  C   UNL     1       4.752   7.299  -6.794  0.00  0.00    +0.000 A 
ATOM     16  C   UNL     1       4.138   6.292  -6.045  0.00  0.00    +0.000 A 
BRANCH  14  17
ATOM     17  O   UNL     1       6.544   8.788  -7.140  0.00  0.00    +0.000 OA
ATOM     18  H   UNL     1       7.370   9.154  -6.893  0.00  0.00    +0.000 HD
ENDBRANCH  14  17
BRANCH  16  19
ATOM     19  O   UNL     1       2.936   5.790  -6.468  0.00  0.00    +0.000 OA
ATOM     20  H   UNL     1       2.511   5.114  -5.976  0.00  0.00    +0.000 HD
ENDBRANCH  16  19
ENDBRANCH   6  11
BRANCH   1  22
ATOM     21  C   UNL     1       0.952   0.338   0.379  0.00  0.00    +0.000 C 
ATOM     22  O   UNL     1       2.258   0.052  -0.103  0.00  0.00    +0.000 OA
ENDBRANCH   1  22
BRANCH   9  23
ATOM     23  O   UNL     1       5.891   1.040  -3.009  0.00  0.00    +0.000 OA
ATOM     24  C   UNL     1       5.728   0.587  -4.356  0.00  0.00    +0.000 C 
ENDBRANCH   9  23
BRANCH  10  25
ATOM     25  C   UNL     1       4.695  -0.767  -1.169  0.00  0.00    +0.000 C 
BRANCH  25  26
ATOM     26  C   UNL     1       4.201  -1.920  -2.006  0.00  0.00    +0.000 C 
ATOM     27  C   UNL     1       3.492  -2.998  -1.616  0.00  0.00    +0.000 C 
ATOM     28  C   UNL     1       3.020  -3.269  -0.215  0.00  0.00    +0.000 C 
ATOM     29  C   UNL     1       3.094  -4.053  -2.615  0.00  0.00    +0.000 C 
ENDBRANCH  25  26
ENDBRANCH  10  25
TORSDOF 7
