REMARK  Name = *****
REMARK  7 active torsions:
REMARK  status: ('A' for Active; 'I' for Inactive)
REMARK    1  A    between atoms: C_1  and  O_2
REMARK    2  A    between atoms: O_2  and  C_3
REMARK    3  A    between atoms: C_6  and  C_11
REMARK    4  A    between atoms: C_8  and  O_9
REMARK    5  A    between atoms: O_9  and  C_10
REMARK    6  A    between atoms: C_12  and  C_20
REMARK    7  A    between atoms: C_23  and  O_24
REMARK                            x       y       z     vdW  Elec       q    Type
REMARK                         _______ _______ _______ _____ _____    ______ ____
ROOT
ATOM      1  C   UNL     1       5.218   2.194  -4.446  0.00  0.00    +0.000 C 
ATOM      2  C   UNL     1       5.940   3.338  -4.411  0.00  0.00    +0.000 C 
ATOM      3  C   UNL     1       6.689   3.765  -5.658  0.00  0.00    +0.000 C 
ATOM      4  N   UNL     1       5.931   3.594  -6.902  0.00  0.00    +0.000 N 
ATOM      5  C   UNL     1       4.986   4.696  -7.127  0.00  0.00    +0.000 C 
ATOM      6  C   UNL     1       3.938   4.087  -8.033  0.00  0.00    +0.000 C 
ATOM      7  C   UNL     1       3.763   2.712  -7.423  0.00  0.00    +0.000 C 
ATOM      8  C   UNL     1       5.182   2.320  -6.989  0.00  0.00    +0.000 C 
ATOM      9  C   UNL     1       5.177   1.414  -5.741  0.00  0.00    +0.000 C 
ATOM     10  H   UNL     1       6.651   3.587  -7.624  0.00  0.00    +0.000 HD
ENDROOT
BRANCH   1  14
ATOM     11  C   UNL     1       3.042   0.531  -1.130  0.00  0.00    +0.000 A 
ATOM     12  C   UNL     1       4.437   0.641  -1.088  0.00  0.00    +0.000 A 
ATOM     13  C   UNL     1       5.145   1.187  -2.165  0.00  0.00    +0.000 A 
ATOM     14  C   UNL     1       4.474   1.629  -3.308  0.00  0.00    +0.000 A 
ATOM     15  C   UNL     1       3.081   1.524  -3.353  0.00  0.00    +0.000 A 
ATOM     16  C   UNL     1       2.365   1.007  -2.266  0.00  0.00    +0.000 A 
BRANCH  11  18
ATOM     17  C   UNL     1       2.971  -0.613   0.966  0.00  0.00    +0.000 C 
ATOM     18  O   UNL     1       2.287  -0.032  -0.137  0.00  0.00    +0.000 OA
ENDBRANCH  11  18
BRANCH  16  19
ATOM     19  O   UNL     1       1.006   0.963  -2.461  0.00  0.00    +0.000 OA
ATOM     20  C   UNL     1       0.236   1.410  -1.348  0.00  0.00    +0.000 C 
ENDBRANCH  16  19
ENDBRANCH   1  14
BRANCH   2  21
ATOM     21  C   UNL     1       6.079   4.211  -3.230  0.00  0.00    +0.000 A 
ATOM     22  C   UNL     1       7.346   4.461  -2.682  0.00  0.00    +0.000 A 
ATOM     23  C   UNL     1       7.488   5.294  -1.569  0.00  0.00    +0.000 A 
ATOM     24  C   UNL     1       6.360   5.880  -1.006  0.00  0.00    +0.000 A 
ATOM     25  C   UNL     1       5.097   5.648  -1.536  0.00  0.00    +0.000 A 
ATOM     26  C   UNL     1       4.957   4.817  -2.649  0.00  0.00    +0.000 A 
BRANCH  24  27
ATOM     27  O   UNL     1       6.452   6.700   0.080  0.00  0.00    +0.000 OA
ATOM     28  H   UNL     1       7.289   6.877   0.463  0.00  0.00    +0.000 HD
ENDBRANCH  24  27
ENDBRANCH   2  21
TORSDOF 5
