REMARK  Name = *****
REMARK  6 active torsions:
REMARK  status: ('A' for Active; 'I' for Inactive)
REMARK    1  A    between atoms: C_1  and  O_2
REMARK    2  A    between atoms: O_2  and  C_3
REMARK    3  A    between atoms: C_6  and  C_7
REMARK    4  A    between atoms: C_21  and  C_22
REMARK    5  A    between atoms: C_24  and  O_25
REMARK    6  A    between atoms: O_25  and  C_26
REMARK                            x       y       z     vdW  Elec       q    Type
REMARK                         _______ _______ _______ _____ _____    ______ ____
ROOT
ATOM      1  C   UNL     1       5.104  -3.170   4.038  0.00  0.00    +0.000 C 
ATOM      2  C   UNL     1       5.564  -2.974   5.291  0.00  0.00    +0.000 C 
ATOM      3  N   UNL     1       5.404  -1.793   6.002  0.00  0.00    +0.000 N 
ATOM      4  C   UNL     1       6.097  -1.500   7.246  0.00  0.00    +0.000 C 
ATOM      5  C   UNL     1       7.471  -2.168   7.272  0.00  0.00    +0.000 C 
ATOM      6  C   UNL     1       7.329  -3.638   6.952  0.00  0.00    +0.000 A 
ATOM      7  C   UNL     1       8.143  -4.583   7.598  0.00  0.00    +0.000 A 
ATOM      8  C   UNL     1       7.960  -5.909   7.278  0.00  0.00    +0.000 A 
ATOM      9  O   UNL     1       8.645  -6.956   7.811  0.00  0.00    +0.000 OA
ATOM     10  C   UNL     1       8.036  -8.061   7.110  0.00  0.00    +0.000 C 
ATOM     11  O   UNL     1       6.992  -7.660   6.201  0.00  0.00    +0.000 OA
ATOM     12  C   UNL     1       7.020  -6.308   6.359  0.00  0.00    +0.000 A 
ATOM     13  C   UNL     1       6.215  -5.405   5.695  0.00  0.00    +0.000 A 
ATOM     14  C   UNL     1       6.376  -4.036   5.968  0.00  0.00    +0.000 A 
ATOM     15  H   UNL     1       4.786  -1.115   5.644  0.00  0.00    +0.000 HD
ENDROOT
BRANCH   1  19
ATOM     16  C   UNL     1       2.577  -0.427   1.884  0.00  0.00    +0.000 A 
ATOM     17  C   UNL     1       2.217  -0.930   3.133  0.00  0.00    +0.000 A 
ATOM     18  C   UNL     1       3.065  -1.810   3.810  0.00  0.00    +0.000 A 
ATOM     19  C   UNL     1       4.294  -2.212   3.261  0.00  0.00    +0.000 A 
ATOM     20  C   UNL     1       4.658  -1.721   1.992  0.00  0.00    +0.000 A 
ATOM     21  C   UNL     1       3.817  -0.801   1.327  0.00  0.00    +0.000 A 
BRANCH  16  23
ATOM     22  C   UNL     1       0.464   0.652   1.593  0.00  0.00    +0.000 C 
ATOM     23  O   UNL     1       1.790   0.412   1.138  0.00  0.00    +0.000 OA
ENDBRANCH  16  23
BRANCH  20  24
ATOM     24  C   UNL     1       5.921  -2.121   1.309  0.00  0.00    +0.000 C 
ATOM     25  O   UNL     1       6.717  -2.943   1.746  0.00  0.00    +0.000 OA
ENDBRANCH  20  24
BRANCH  21  26
ATOM     26  O   UNL     1       4.209  -0.355   0.084  0.00  0.00    +0.000 OA
ATOM     27  C   UNL     1       4.319   1.068   0.010  0.00  0.00    +0.000 C 
ENDBRANCH  21  26
ENDBRANCH   1  19
TORSDOF 4
