REMARK  Name = *****
REMARK  10 active torsions:
REMARK  status: ('A' for Active; 'I' for Inactive)
REMARK    1  A    between atoms: C_1  and  O_2
REMARK    2  A    between atoms: O_2  and  C_3
REMARK    3  A    between atoms: C_6  and  C_11
REMARK    4  A    between atoms: C_8  and  O_9
REMARK    5  A    between atoms: O_9  and  C_10
REMARK    6  A    between atoms: C_12  and  C_20
REMARK    7  A    between atoms: C_23  and  O_24
REMARK    8  A    between atoms: O_24  and  C_25
REMARK    9  A    between atoms: C_26  and  O_27
REMARK   10  A    between atoms: O_27  and  C_28
REMARK                            x       y       z     vdW  Elec       q    Type
REMARK                         _______ _______ _______ _____ _____    ______ ____
ROOT
ATOM      1  C   UNL     1       5.498  -3.970  -2.549  0.00  0.00    +0.000 C 
ATOM      2  C   UNL     1       5.425  -5.106  -1.819  0.00  0.00    +0.000 C 
ATOM      3  C   UNL     1       6.244  -6.337  -2.166  0.00  0.00    +0.000 C 
ATOM      4  C   UNL     1       5.402  -7.560  -2.523  0.00  0.00    +0.000 C 
ATOM      5  C   UNL     1       6.418  -8.487  -3.156  0.00  0.00    +0.000 C 
ATOM      6  C   UNL     1       7.409  -7.556  -3.841  0.00  0.00    +0.000 C 
ATOM      7  N   UNL     1       7.180  -6.200  -3.311  0.00  0.00    +0.000 N 
ATOM      8  C   UNL     1       6.644  -5.311  -4.350  0.00  0.00    +0.000 C 
ATOM      9  C   UNL     1       6.346  -3.913  -3.795  0.00  0.00    +0.000 C 
ATOM     10  H   UNL     1       8.054  -5.776  -3.001  0.00  0.00    +0.000 HD
ENDROOT
BRANCH   1  14
ATOM     11  C   UNL     1       3.437  -0.337  -1.544  0.00  0.00    +0.000 A 
ATOM     12  C   UNL     1       4.650  -0.677  -0.925  0.00  0.00    +0.000 A 
ATOM     13  C   UNL     1       5.322  -1.858  -1.254  0.00  0.00    +0.000 A 
ATOM     14  C   UNL     1       4.792  -2.725  -2.208  0.00  0.00    +0.000 A 
ATOM     15  C   UNL     1       3.583  -2.398  -2.825  0.00  0.00    +0.000 A 
ATOM     16  C   UNL     1       2.903  -1.211  -2.510  0.00  0.00    +0.000 A 
BRANCH  11  18
ATOM     17  C   UNL     1       3.345   1.747  -0.371  0.00  0.00    +0.000 C 
ATOM     18  O   UNL     1       2.729   0.791  -1.225  0.00  0.00    +0.000 OA
ENDBRANCH  11  18
BRANCH  16  19
ATOM     19  O   UNL     1       1.733  -1.081  -3.215  0.00  0.00    +0.000 OA
ATOM     20  C   UNL     1       1.149   0.209  -3.313  0.00  0.00    +0.000 C 
ENDBRANCH  16  19
ENDBRANCH   1  14
BRANCH   2  21
ATOM     21  C   UNL     1       4.592  -5.215  -0.605  0.00  0.00    +0.000 A 
ATOM     22  C   UNL     1       3.208  -5.343  -0.708  0.00  0.00    +0.000 A 
ATOM     23  C   UNL     1       2.419  -5.447   0.441  0.00  0.00    +0.000 A 
ATOM     24  C   UNL     1       2.996  -5.428   1.719  0.00  0.00    +0.000 A 
ATOM     25  C   UNL     1       4.394  -5.309   1.828  0.00  0.00    +0.000 A 
ATOM     26  C   UNL     1       5.174  -5.194   0.665  0.00  0.00    +0.000 A 
BRANCH  24  27
ATOM     27  O   UNL     1       2.258  -5.500   2.871  0.00  0.00    +0.000 OA
ATOM     28  C   UNL     1       0.846  -5.626   2.759  0.00  0.00    +0.000 C 
ENDBRANCH  24  27
BRANCH  25  29
ATOM     29  O   UNL     1       5.159  -5.260   2.966  0.00  0.00    +0.000 OA
ATOM     30  C   UNL     1       4.579  -5.692   4.188  0.00  0.00    +0.000 C 
ENDBRANCH  25  29
ENDBRANCH   2  21
TORSDOF 6
