REMARK  Name = *****
REMARK  6 active torsions:
REMARK  status: ('A' for Active; 'I' for Inactive)
REMARK    1  A    between atoms: C_1  and  O_2
REMARK    2  A    between atoms: O_2  and  C_3
REMARK    3  A    between atoms: C_5  and  O_6
REMARK    4  A    between atoms: O_6  and  C_7
REMARK    5  A    between atoms: C_9  and  C_10
REMARK    6  A    between atoms: C_11  and  C_12
REMARK                            x       y       z     vdW  Elec       q    Type
REMARK                         _______ _______ _______ _____ _____    ______ ____
ROOT
ATOM      1  C   UNL     1       3.047   0.582  -1.075  0.00  0.00    +0.000 A 
ATOM      2  C   UNL     1       2.512   1.690  -1.738  0.00  0.00    +0.000 A 
ATOM      3  C   UNL     1       3.180   2.237  -2.835  0.00  0.00    +0.000 A 
ATOM      4  C   UNL     1       4.388   1.674  -3.263  0.00  0.00    +0.000 A 
ATOM      5  C   UNL     1       4.948   0.577  -2.599  0.00  0.00    +0.000 A 
ATOM      6  C   UNL     1       4.256   0.032  -1.511  0.00  0.00    +0.000 A 
ENDROOT
BRANCH   1   8
ATOM      7  C   UNL     1       1.253   0.445   0.486  0.00  0.00    +0.000 C 
ATOM      8  O   UNL     1       2.493  -0.055   0.003  0.00  0.00    +0.000 OA
ENDBRANCH   1   8
BRANCH   3   9
ATOM      9  O   UNL     1       2.764   3.310  -3.577  0.00  0.00    +0.000 OA
ATOM     10  C   UNL     1       1.552   3.941  -3.183  0.00  0.00    +0.000 C 
ENDBRANCH   3   9
BRANCH   5  11
ATOM     11  C   UNL     1       6.199  -0.059  -3.037  0.00  0.00    +0.000 C 
ATOM     12  C   UNL     1       7.240   0.608  -3.563  0.00  0.00    +0.000 C 
BRANCH  12  13
ATOM     13  C   UNL     1       8.495  -0.031  -3.983  0.00  0.00    +0.000 A 
ATOM     14  C   UNL     1       8.526  -1.285  -4.609  0.00  0.00    +0.000 A 
ATOM     15  C   UNL     1       9.738  -1.844  -5.023  0.00  0.00    +0.000 A 
ATOM     16  C   UNL     1      10.930  -1.152  -4.825  0.00  0.00    +0.000 A 
ATOM     17  C   UNL     1      10.912   0.102  -4.220  0.00  0.00    +0.000 A 
ATOM     18  C   UNL     1       9.700   0.662  -3.806  0.00  0.00    +0.000 A 
ENDBRANCH  12  13
ENDBRANCH   5  11
TORSDOF 4
