REMARK  Name = *****
REMARK  6 active torsions:
REMARK  status: ('A' for Active; 'I' for Inactive)
REMARK    1  A    between atoms: C_1  and  O_2
REMARK    2  A    between atoms: O_2  and  C_3
REMARK    3  A    between atoms: C_4  and  O_5
REMARK    4  A    between atoms: O_5  and  C_6
REMARK    5  A    between atoms: C_8  and  O_9
REMARK    6  A    between atoms: C_21  and  O_22
REMARK                            x       y       z     vdW  Elec       q    Type
REMARK                         _______ _______ _______ _____ _____    ______ ____
ROOT
ATOM      1  C   UNL     1       2.472  -1.663  -0.666  0.00  0.00    +0.000 C 
ATOM      2  C   UNL     1       3.985  -1.377  -0.901  0.00  0.00    +0.000 C 
ATOM      3  C   UNL     1       4.701  -2.507  -1.633  0.00  0.00    +0.000 A 
ATOM      4  C   UNL     1       5.980  -2.284  -2.171  0.00  0.00    +0.000 A 
ATOM      5  C   UNL     1       6.668  -3.270  -2.867  0.00  0.00    +0.000 A 
ATOM      6  C   UNL     1       6.108  -4.535  -2.983  0.00  0.00    +0.000 A 
ATOM      7  C   UNL     1       4.864  -4.804  -2.408  0.00  0.00    +0.000 A 
ATOM      8  C   UNL     1       4.140  -3.801  -1.745  0.00  0.00    +0.000 A 
ATOM      9  C   UNL     1       2.828  -4.063  -1.136  0.00  0.00    +0.000 C 
ATOM     10  C   UNL     1       1.891  -4.989  -1.429  0.00  0.00    +0.000 C 
ATOM     11  C   UNL     1       1.781  -6.146  -2.363  0.00  0.00    +0.000 C 
ATOM     12  C   UNL     1       0.338  -6.460  -2.783  0.00  0.00    +0.000 C 
ATOM     13  C   UNL     1      -0.674  -6.391  -1.649  0.00  0.00    +0.000 C 
ATOM     14  O   UNL     1      -1.683  -7.091  -1.603  0.00  0.00    +0.000 OA
ATOM     15  C   UNL     1      -0.494  -5.325  -0.649  0.00  0.00    +0.000 A 
ATOM     16  C   UNL     1      -1.495  -4.888   0.218  0.00  0.00    +0.000 A 
ATOM     17  C   UNL     1      -1.267  -3.790   1.061  0.00  0.00    +0.000 A 
ATOM     18  C   UNL     1      -0.038  -3.112   1.039  0.00  0.00    +0.000 A 
ATOM     19  C   UNL     1       0.949  -3.562   0.178  0.00  0.00    +0.000 A 
ATOM     20  C   UNL     1       2.349  -3.066  -0.065  0.00  0.00    +0.000 C 
ATOM     21  C   UNL     1       0.721  -4.674  -0.627  0.00  0.00    +0.000 A 
ENDROOT
BRANCH   1  23
ATOM     22  C   UNL     1       1.377   0.448  -0.528  0.00  0.00    +0.000 C 
ATOM     23  O   UNL     1       1.850  -0.688   0.186  0.00  0.00    +0.000 OA
ENDBRANCH   1  23
BRANCH   2  24
ATOM     24  O   UNL     1       4.765  -1.201   0.298  0.00  0.00    +0.000 OA
ATOM     25  C   UNL     1       4.533   0.014   0.995  0.00  0.00    +0.000 C 
ENDBRANCH   2  24
BRANCH   4  26
ATOM     26  O   UNL     1       6.629  -1.095  -1.978  0.00  0.00    +0.000 OA
ATOM     27  H   UNL     1       6.206  -0.400  -1.514  0.00  0.00    +0.000 HD
ENDBRANCH   4  26
BRANCH  16  28
ATOM     28  O   UNL     1      -2.727  -5.478   0.273  0.00  0.00    +0.000 OA
ATOM     29  H   UNL     1      -2.920  -6.214  -0.274  0.00  0.00    +0.000 HD
ENDBRANCH  16  28
TORSDOF 4
