REMARK  Name = *****
REMARK  11 active torsions:
REMARK  status: ('A' for Active; 'I' for Inactive)
REMARK    1  A    between atoms: C_1  and  O_2
REMARK    2  A    between atoms: O_2  and  C_3
REMARK    3  A    between atoms: N_5  and  C_6
REMARK    4  A    between atoms: C_6  and  C_7
REMARK    5  A    between atoms: C_7  and  C_8
REMARK    6  A    between atoms: C_11  and  O_12
REMARK    7  A    between atoms: O_12  and  C_13
REMARK    8  A    between atoms: C_15  and  C_16
REMARK    9  A    between atoms: C_17  and  C_18
REMARK   10  A    between atoms: C_21  and  O_22
REMARK   11  A    between atoms: O_22  and  C_23
REMARK                            x       y       z     vdW  Elec       q    Type
REMARK                         _______ _______ _______ _____ _____    ______ ____
ROOT
ATOM      1  C   UNL     1       7.165   3.439   1.712  0.00  0.00    +0.000 A 
ATOM      2  C   UNL     1       6.665   4.726   1.453  0.00  0.00    +0.000 A 
ATOM      3  C   UNL     1       7.444   5.864   1.684  0.00  0.00    +0.000 A 
ATOM      4  C   UNL     1       8.741   5.735   2.173  0.00  0.00    +0.000 A 
ATOM      5  C   UNL     1       9.250   4.459   2.425  0.00  0.00    +0.000 A 
ATOM      6  C   UNL     1       8.479   3.309   2.196  0.00  0.00    +0.000 A 
ENDROOT
BRANCH   4   7
ATOM      7  O   UNL     1       9.606   6.760   2.441  0.00  0.00    +0.000 OA
ATOM      8  C   UNL     1       9.128   8.080   2.216  0.00  0.00    +0.000 C 
ENDBRANCH   4   7
BRANCH   6   9
ATOM      9  C   UNL     1       9.092   2.009   2.484  0.00  0.00    +0.000 C 
ATOM     10  C   UNL     1       8.920   1.404   3.670  0.00  0.00    +0.000 C 
BRANCH  10  11
ATOM     11  C   UNL     1       9.502   0.100   4.012  0.00  0.00    +0.000 A 
ATOM     12  C   UNL     1      10.797  -0.266   3.627  0.00  0.00    +0.000 A 
ATOM     13  C   UNL     1      11.333  -1.507   3.998  0.00  0.00    +0.000 A 
ATOM     14  C   UNL     1      10.582  -2.393   4.768  0.00  0.00    +0.000 A 
ATOM     15  C   UNL     1       9.295  -2.026   5.166  0.00  0.00    +0.000 A 
ATOM     16  C   UNL     1       8.760  -0.787   4.798  0.00  0.00    +0.000 A 
BRANCH  14  17
ATOM     17  O   UNL     1      10.983  -3.628   5.197  0.00  0.00    +0.000 OA
ATOM     18  C   UNL     1      12.299  -4.035   4.844  0.00  0.00    +0.000 C 
ENDBRANCH  14  17
ENDBRANCH  10  11
ENDBRANCH   6   9
BRANCH   1  19
ATOM     19  C   UNL     1       6.279   2.248   1.420  0.00  0.00    +0.000 C 
BRANCH  19  20
ATOM     20  C   UNL     1       6.548   1.661   0.033  0.00  0.00    +0.000 C 
BRANCH  20  23
ATOM     21  C   UNL     1       4.401   0.656  -0.640  0.00  0.00    +0.000 C 
ATOM     22  O   UNL     1       3.824   1.714  -0.836  0.00  0.00    +0.000 OA
ATOM     23  N   UNL     1       5.699   0.525  -0.251  0.00  0.00    +0.000 N 
ATOM     24  H   UNL     1       6.075  -0.380  -0.158  0.00  0.00    +0.000 HD
BRANCH  21  26
ATOM     25  C   UNL     1       2.480  -0.558  -1.163  0.00  0.00    +0.000 C 
ATOM     26  O   UNL     1       3.850  -0.576  -0.761  0.00  0.00    +0.000 OA
ENDBRANCH  21  26
ENDBRANCH  20  23
ENDBRANCH  19  20
ENDBRANCH   1  19
TORSDOF 8
