REMARK  Name = *****
REMARK  1 active torsions:
REMARK  status: ('A' for Active; 'I' for Inactive)
REMARK    1  A    between atoms: O_1  and  C_2
REMARK                            x       y       z     vdW  Elec       q    Type
REMARK                         _______ _______ _______ _____ _____    ______ ____
ROOT
ATOM      1  C   UNL     1       2.917   0.341  -0.205  0.00  0.00    +0.000 C 
ATOM      2  N   UNL     1       3.195  -1.035  -0.596  0.00  0.00    +0.000 N 
ATOM      3  C   UNL     1       3.167  -2.018   0.489  0.00  0.00    +0.000 C 
ATOM      4  C   UNL     1       2.446  -3.281   0.023  0.00  0.00    +0.000 C 
ATOM      5  C   UNL     1       3.071  -3.799  -1.250  0.00  0.00    +0.000 A 
ATOM      6  C   UNL     1       3.094  -5.185  -1.491  0.00  0.00    +0.000 A 
ATOM      7  C   UNL     1       3.684  -5.625  -2.652  0.00  0.00    +0.000 A 
ATOM      8  O   UNL     1       3.808  -6.922  -3.039  0.00  0.00    +0.000 OA
ATOM      9  C   UNL     1       4.502  -6.764  -4.294  0.00  0.00    +0.000 C 
ATOM     10  O   UNL     1       4.777  -5.388  -4.628  0.00  0.00    +0.000 OA
ATOM     11  C   UNL     1       4.233  -4.751  -3.555  0.00  0.00    +0.000 A 
ATOM     12  C   UNL     1       4.213  -3.384  -3.358  0.00  0.00    +0.000 A 
ATOM     13  C   UNL     1       3.604  -2.874  -2.197  0.00  0.00    +0.000 A 
ATOM     14  C   UNL     1       3.515  -1.406  -1.908  0.00  0.00    +0.000 C 
ATOM     15  C   UNL     1       3.701  -0.481  -2.870  0.00  0.00    +0.000 C 
ATOM     16  C   UNL     1       3.664   0.949  -2.543  0.00  0.00    +0.000 A 
ATOM     17  C   UNL     1       3.993   1.910  -3.523  0.00  0.00    +0.000 A 
ATOM     18  C   UNL     1       3.992   3.273  -3.216  0.00  0.00    +0.000 A 
ATOM     19  C   UNL     1       3.663   3.638  -1.929  0.00  0.00    +0.000 A 
ATOM     20  O   UNL     1       3.619   4.914  -1.460  0.00  0.00    +0.000 OA
ATOM     21  C   UNL     1       3.207   4.687  -0.098  0.00  0.00    +0.000 C 
ATOM     22  O   UNL     1       3.058   3.292   0.231  0.00  0.00    +0.000 OA
ATOM     23  C   UNL     1       3.338   2.707  -0.968  0.00  0.00    +0.000 A 
ATOM     24  C   UNL     1       3.320   1.349  -1.240  0.00  0.00    +0.000 A 
ENDROOT
BRANCH   1  25
ATOM     25  O   UNL     1       1.515   0.413  -0.037  0.00  0.00    +0.000 OA
ATOM     26  H   UNL     1       1.236  -0.233   0.630  0.00  0.00    +0.000 HD
ENDBRANCH   1  25
TORSDOF 1
