REMARK  Name = *****
REMARK  9 active torsions:
REMARK  status: ('A' for Active; 'I' for Inactive)
REMARK    1  A    between atoms: C_1  and  O_2
REMARK    2  A    between atoms: O_2  and  C_3
REMARK    3  A    between atoms: N_5  and  C_6
REMARK    4  A    between atoms: C_6  and  C_7
REMARK    5  A    between atoms: C_7  and  C_8
REMARK    6  A    between atoms: C_11  and  O_12
REMARK    7  A    between atoms: C_14  and  C_15
REMARK    8  A    between atoms: C_16  and  C_17
REMARK    9  A    between atoms: C_20  and  O_21
REMARK                            x       y       z     vdW  Elec       q    Type
REMARK                         _______ _______ _______ _____ _____    ______ ____
ROOT
ATOM      1  C   UNL     1       7.723  -2.714   2.629  0.00  0.00    +0.000 A 
ATOM      2  C   UNL     1       7.591  -4.114   2.699  0.00  0.00    +0.000 A 
ATOM      3  C   UNL     1       8.043  -4.824   3.812  0.00  0.00    +0.000 A 
ATOM      4  C   UNL     1       8.625  -4.135   4.866  0.00  0.00    +0.000 A 
ATOM      5  C   UNL     1       8.762  -2.752   4.824  0.00  0.00    +0.000 A 
ATOM      6  C   UNL     1       8.318  -2.026   3.707  0.00  0.00    +0.000 A 
ENDROOT
BRANCH   4   7
ATOM      7  O   UNL     1       9.078  -4.785   5.976  0.00  0.00    +0.000 OA
ATOM      8  H   UNL     1       9.001  -5.717   6.037  0.00  0.00    +0.000 HD
ENDBRANCH   4   7
BRANCH   6   9
ATOM      9  C   UNL     1       8.459  -0.563   3.706  0.00  0.00    +0.000 C 
ATOM     10  C   UNL     1       9.648   0.044   3.847  0.00  0.00    +0.000 C 
BRANCH  10  11
ATOM     11  C   UNL     1       9.820   1.502   3.851  0.00  0.00    +0.000 A 
ATOM     12  C   UNL     1      10.741   2.074   4.740  0.00  0.00    +0.000 A 
ATOM     13  C   UNL     1      10.954   3.455   4.757  0.00  0.00    +0.000 A 
ATOM     14  C   UNL     1      10.252   4.265   3.871  0.00  0.00    +0.000 A 
ATOM     15  C   UNL     1       9.348   3.716   2.970  0.00  0.00    +0.000 A 
ATOM     16  C   UNL     1       9.135   2.336   2.956  0.00  0.00    +0.000 A 
BRANCH  14  17
ATOM     17  O   UNL     1      10.428   5.617   3.850  0.00  0.00    +0.000 OA
ATOM     18  H   UNL     1      11.030   6.020   4.445  0.00  0.00    +0.000 HD
ENDBRANCH  14  17
ENDBRANCH  10  11
ENDBRANCH   6   9
BRANCH   1  19
ATOM     19  C   UNL     1       7.198  -2.009   1.397  0.00  0.00    +0.000 C 
BRANCH  19  20
ATOM     20  C   UNL     1       5.715  -1.653   1.537  0.00  0.00    +0.000 C 
BRANCH  20  23
ATOM     21  C   UNL     1       4.866  -1.641  -0.776  0.00  0.00    +0.000 C 
ATOM     22  O   UNL     1       4.924  -2.850  -0.934  0.00  0.00    +0.000 OA
ATOM     23  N   UNL     1       5.204  -0.979   0.365  0.00  0.00    +0.000 N 
ATOM     24  H   UNL     1       5.095  -0.001   0.392  0.00  0.00    +0.000 HD
BRANCH  21  26
ATOM     25  C   UNL     1       4.090  -1.329  -2.952  0.00  0.00    +0.000 C 
ATOM     26  O   UNL     1       4.468  -0.741  -1.707  0.00  0.00    +0.000 OA
ENDBRANCH  21  26
ENDBRANCH  20  23
ENDBRANCH  19  20
ENDBRANCH   1  19
TORSDOF 8
