REMARK  Name = *****
REMARK  10 active torsions:
REMARK  status: ('A' for Active; 'I' for Inactive)
REMARK    1  A    between atoms: C_1  and  O_2
REMARK    2  A    between atoms: O_2  and  C_3
REMARK    3  A    between atoms: C_6  and  C_11
REMARK    4  A    between atoms: C_8  and  O_9
REMARK    5  A    between atoms: O_9  and  C_10
REMARK    6  A    between atoms: C_12  and  C_20
REMARK    7  A    between atoms: C_23  and  O_24
REMARK    8  A    between atoms: O_24  and  C_25
REMARK    9  A    between atoms: C_26  and  O_27
REMARK   10  A    between atoms: O_27  and  C_28
REMARK                            x       y       z     vdW  Elec       q    Type
REMARK                         _______ _______ _______ _____ _____    ______ ____
ROOT
ATOM      1  C   UNL     1       5.623   4.701  -1.114  0.00  0.00    +0.000 C 
ATOM      2  C   UNL     1       6.145   5.460  -0.127  0.00  0.00    +0.000 C 
ATOM      3  C   UNL     1       6.996   6.660  -0.479  0.00  0.00    +0.000 C 
ATOM      4  N   UNL     1       6.522   7.417  -1.643  0.00  0.00    +0.000 N 
ATOM      5  C   UNL     1       5.463   8.370  -1.291  0.00  0.00    +0.000 C 
ATOM      6  C   UNL     1       4.723   8.582  -2.594  0.00  0.00    +0.000 C 
ATOM      7  C   UNL     1       4.675   7.176  -3.153  0.00  0.00    +0.000 C 
ATOM      8  C   UNL     1       6.037   6.582  -2.767  0.00  0.00    +0.000 C 
ATOM      9  C   UNL     1       5.958   5.058  -2.542  0.00  0.00    +0.000 C 
ATOM     10  H   UNL     1       7.356   7.911  -1.959  0.00  0.00    +0.000 HD
ENDROOT
BRANCH   1  14
ATOM     11  C   UNL     1       3.164   1.228  -0.494  0.00  0.00    +0.000 A 
ATOM     12  C   UNL     1       2.703   2.511  -0.160  0.00  0.00    +0.000 A 
ATOM     13  C   UNL     1       3.500   3.641  -0.362  0.00  0.00    +0.000 A 
ATOM     14  C   UNL     1       4.779   3.516  -0.903  0.00  0.00    +0.000 A 
ATOM     15  C   UNL     1       5.242   2.243  -1.244  0.00  0.00    +0.000 A 
ATOM     16  C   UNL     1       4.454   1.096  -1.042  0.00  0.00    +0.000 A 
BRANCH  11  18
ATOM     17  C   UNL     1       1.111   0.236   0.243  0.00  0.00    +0.000 C 
ATOM     18  O   UNL     1       2.412   0.098  -0.312  0.00  0.00    +0.000 OA
ENDBRANCH  11  18
BRANCH  16  19
ATOM     19  O   UNL     1       5.108  -0.044  -1.435  0.00  0.00    +0.000 OA
ATOM     20  C   UNL     1       4.471  -1.300  -1.260  0.00  0.00    +0.000 C 
ENDBRANCH  16  19
ENDBRANCH   1  14
BRANCH   2  21
ATOM     21  C   UNL     1       5.966   5.175   1.305  0.00  0.00    +0.000 A 
ATOM     22  C   UNL     1       6.677   4.140   1.910  0.00  0.00    +0.000 A 
ATOM     23  C   UNL     1       6.490   3.852   3.265  0.00  0.00    +0.000 A 
ATOM     24  C   UNL     1       5.586   4.591   4.044  0.00  0.00    +0.000 A 
ATOM     25  C   UNL     1       4.877   5.645   3.439  0.00  0.00    +0.000 A 
ATOM     26  C   UNL     1       5.070   5.920   2.075  0.00  0.00    +0.000 A 
BRANCH  24  27
ATOM     27  O   UNL     1       5.342   4.318   5.364  0.00  0.00    +0.000 OA
ATOM     28  C   UNL     1       6.060   3.254   5.975  0.00  0.00    +0.000 C 
ENDBRANCH  24  27
BRANCH  25  29
ATOM     29  O   UNL     1       3.944   6.476   4.006  0.00  0.00    +0.000 OA
ATOM     30  C   UNL     1       3.921   6.592   5.421  0.00  0.00    +0.000 C 
ENDBRANCH  25  29
ENDBRANCH   2  21
TORSDOF 6
