REMARK  Name = *****
REMARK  8 active torsions:
REMARK  status: ('A' for Active; 'I' for Inactive)
REMARK    1  A    between atoms: C_1  and  O_2
REMARK    2  A    between atoms: O_2  and  C_3
REMARK    3  A    between atoms: C_6  and  C_9
REMARK    4  A    between atoms: C_10  and  C_19
REMARK    5  A    between atoms: C_22  and  O_23
REMARK    6  A    between atoms: O_23  and  C_24
REMARK    7  A    between atoms: C_25  and  O_26
REMARK    8  A    between atoms: O_26  and  C_27
REMARK                            x       y       z     vdW  Elec       q    Type
REMARK                         _______ _______ _______ _____ _____    ______ ____
ROOT
ATOM      1  C   UNL     1       5.760  -1.968   3.416  0.00  0.00    +0.000 C 
ATOM      2  C   UNL     1       5.993  -2.147   4.735  0.00  0.00    +0.000 C 
ATOM      3  C   UNL     1       7.425  -2.316   5.181  0.00  0.00    +0.000 C 
ATOM      4  C   UNL     1       8.405  -1.415   4.390  0.00  0.00    +0.000 C 
ATOM      5  C   UNL     1       9.848  -1.893   4.628  0.00  0.00    +0.000 C 
ATOM      6  C   UNL     1      10.871  -0.981   3.956  0.00  0.00    +0.000 C 
ATOM      7  C   UNL     1      10.404  -0.477   2.592  0.00  0.00    +0.000 C 
ATOM      8  C   UNL     1       9.223  -1.279   2.051  0.00  0.00    +0.000 C 
ATOM      9  N   UNL     1       8.083  -1.214   2.965  0.00  0.00    +0.000 N 
ATOM     10  C   UNL     1       6.934  -1.973   2.461  0.00  0.00    +0.000 C 
ATOM     11  H   UNL     1       7.784  -0.239   2.967  0.00  0.00    +0.000 HD
ENDROOT
BRANCH   1  15
ATOM     12  C   UNL     1       1.871  -1.463   1.674  0.00  0.00    +0.000 A 
ATOM     13  C   UNL     1       2.361  -0.523   2.580  0.00  0.00    +0.000 A 
ATOM     14  C   UNL     1       3.630  -0.688   3.147  0.00  0.00    +0.000 A 
ATOM     15  C   UNL     1       4.423  -1.795   2.819  0.00  0.00    +0.000 A 
ATOM     16  C   UNL     1       3.929  -2.733   1.907  0.00  0.00    +0.000 A 
ATOM     17  C   UNL     1       2.662  -2.566   1.342  0.00  0.00    +0.000 A 
BRANCH  12  19
ATOM     18  C   UNL     1      -0.175  -0.304   1.335  0.00  0.00    +0.000 C 
ATOM     19  O   UNL     1       0.655  -1.423   1.050  0.00  0.00    +0.000 OA
ENDBRANCH  12  19
ENDBRANCH   1  15
BRANCH   2  20
ATOM     20  C   UNL     1       4.957  -2.206   5.778  0.00  0.00    +0.000 A 
ATOM     21  C   UNL     1       4.890  -1.209   6.761  0.00  0.00    +0.000 A 
ATOM     22  C   UNL     1       3.911  -1.261   7.757  0.00  0.00    +0.000 A 
ATOM     23  C   UNL     1       2.998  -2.315   7.782  0.00  0.00    +0.000 A 
ATOM     24  C   UNL     1       3.026  -3.284   6.775  0.00  0.00    +0.000 A 
ATOM     25  C   UNL     1       4.021  -3.247   5.796  0.00  0.00    +0.000 A 
BRANCH  23  26
ATOM     26  O   UNL     1       2.076  -2.308   8.795  0.00  0.00    +0.000 OA
ATOM     27  C   UNL     1       2.295  -3.401   9.688  0.00  0.00    +0.000 C 
ENDBRANCH  23  26
BRANCH  24  28
ATOM     28  O   UNL     1       2.130  -4.319   6.709  0.00  0.00    +0.000 OA
ATOM     29  C   UNL     1       0.842  -3.838   6.320  0.00  0.00    +0.000 C 
ENDBRANCH  24  28
ENDBRANCH   2  20
TORSDOF 5
