REMARK  Name = *****
REMARK  6 active torsions:
REMARK  status: ('A' for Active; 'I' for Inactive)
REMARK    1  A    between atoms: C_1  and  O_2
REMARK    2  A    between atoms: O_2  and  C_3
REMARK    3  A    between atoms: C_7  and  C_8
REMARK    4  A    between atoms: C_7  and  C_9
REMARK    5  A    between atoms: C_14  and  C_15
REMARK    6  A    between atoms: C_20  and  O_21
REMARK                            x       y       z     vdW  Elec       q    Type
REMARK                         _______ _______ _______ _____ _____    ______ ____
ROOT
ATOM      1  C   UNL     1       3.042   0.385   1.082  0.00  0.00    +0.000 A 
ATOM      2  C   UNL     1       2.898   0.327   2.484  0.00  0.00    +0.000 A 
ATOM      3  C   UNL     1       2.225  -0.783   3.151  0.00  0.00    +0.000 C 
ATOM      4  C   UNL     1       2.124  -0.758   4.483  0.00  0.00    +0.000 C 
ATOM      5  C   UNL     1       2.673   0.360   5.336  0.00  0.00    +0.000 C 
ATOM      6  C   UNL     1       3.712  -0.210   6.309  0.00  0.00    +0.000 C 
ATOM      7  C   UNL     1       1.527   1.005   6.124  0.00  0.00    +0.000 C 
ATOM      8  O   UNL     1       3.328   1.427   4.623  0.00  0.00    +0.000 OA
ATOM      9  C   UNL     1       3.422   1.362   3.262  0.00  0.00    +0.000 A 
ATOM     10  C   UNL     1       4.100   2.422   2.660  0.00  0.00    +0.000 A 
ATOM     11  C   UNL     1       4.275   2.452   1.275  0.00  0.00    +0.000 A 
ATOM     12  C   UNL     1       3.757   1.432   0.463  0.00  0.00    +0.000 A 
ENDROOT
BRANCH  12  13
ATOM     13  C   UNL     1       4.019   1.475  -0.992  0.00  0.00    +0.000 C 
ATOM     14  C   UNL     1       3.717   2.563  -1.718  0.00  0.00    +0.000 C 
ATOM     15  C   UNL     1       4.012   2.526  -3.145  0.00  0.00    +0.000 A 
ATOM     16  C   UNL     1       3.549   3.529  -4.004  0.00  0.00    +0.000 A 
ATOM     17  C   UNL     1       3.882   3.501  -5.362  0.00  0.00    +0.000 A 
ATOM     18  C   UNL     1       4.687   2.475  -5.849  0.00  0.00    +0.000 A 
ATOM     19  C   UNL     1       5.160   1.477  -5.006  0.00  0.00    +0.000 A 
ATOM     20  C   UNL     1       4.812   1.497  -3.657  0.00  0.00    +0.000 A 
ATOM     21  O   UNL     1       5.333   0.506  -2.869  0.00  0.00    +0.000 OA
ATOM     22  C   UNL     1       4.620   0.252  -1.644  0.00  0.00    +0.000 C 
BRANCH  18  23
ATOM     23  O   UNL     1       5.041   2.417  -7.165  0.00  0.00    +0.000 OA
ATOM     24  H   UNL     1       4.740   3.075  -7.761  0.00  0.00    +0.000 HD
ENDBRANCH  18  23
ENDBRANCH  12  13
BRANCH   1  26
ATOM     25  C   UNL     1       1.201  -0.268  -0.134  0.00  0.00    +0.000 C 
ATOM     26  O   UNL     1       2.511  -0.628   0.314  0.00  0.00    +0.000 OA
ENDBRANCH   1  26
TORSDOF 3
