REMARK  Name = *****
REMARK  2 active torsions:
REMARK  status: ('A' for Active; 'I' for Inactive)
REMARK    1  A    between atoms: C_1  and  C_9
REMARK    2  A    between atoms: C_2  and  C_3
REMARK                            x       y       z     vdW  Elec       q    Type
REMARK                         _______ _______ _______ _____ _____    ______ ____
ROOT
ATOM      1  C   UNL     1       1.082   0.018   0.007  0.00  0.00    +0.000 C 
ATOM      2  C   UNL     1       0.325   1.128   0.038  0.00  0.00    +0.000 C 
ENDROOT
BRANCH   2   3
ATOM      3  C   UNL     1      -1.145   1.117   0.038  0.00  0.00    +0.000 A 
ATOM      4  C   UNL     1      -1.887   0.166   0.750  0.00  0.00    +0.000 A 
ATOM      5  C   UNL     1      -3.284   0.208   0.750  0.00  0.00    +0.000 A 
ATOM      6  C   UNL     1      -3.953   1.209   0.048  0.00  0.00    +0.000 A 
ATOM      7  C   UNL     1      -3.226   2.170  -0.650  0.00  0.00    +0.000 A 
ATOM      8  C   UNL     1      -1.829   2.127  -0.651  0.00  0.00    +0.000 A 
ENDBRANCH   2   3
BRANCH   1   9
ATOM      9  C   UNL     1       2.552   0.029  -0.010  0.00  0.00    +0.000 A 
ATOM     10  C   UNL     1       3.303   0.945   0.738  0.00  0.00    +0.000 A 
ATOM     11  C   UNL     1       4.700   0.903   0.720  0.00  0.00    +0.000 A 
ATOM     12  C   UNL     1       5.360  -0.062  -0.037  0.00  0.00    +0.000 A 
ATOM     13  C   UNL     1       4.624  -0.989  -0.772  0.00  0.00    +0.000 A 
ATOM     14  C   UNL     1       3.228  -0.947  -0.754  0.00  0.00    +0.000 A 
ENDBRANCH   1   9
TORSDOF 2
