REMARK  Name = *****
REMARK  12 active torsions:
REMARK  status: ('A' for Active; 'I' for Inactive)
REMARK    1  A    between atoms: C_1  and  O_2
REMARK    2  A    between atoms: O_2  and  C_3
REMARK    3  A    between atoms: C_5  and  O_6
REMARK    4  A    between atoms: O_6  and  C_7
REMARK    5  A    between atoms: C_9  and  C_10
REMARK    6  A    between atoms: C_11  and  C_12
REMARK    7  A    between atoms: C_14  and  O_15
REMARK    8  A    between atoms: O_15  and  C_16
REMARK    9  A    between atoms: C_17  and  O_18
REMARK   10  A    between atoms: O_18  and  C_19
REMARK   11  A    between atoms: C_20  and  O_21
REMARK   12  A    between atoms: O_21  and  C_22
REMARK                            x       y       z     vdW  Elec       q    Type
REMARK                         _______ _______ _______ _____ _____    ______ ____
ROOT
ATOM      1  C   UNL     1       6.214   1.924  -2.448  0.00  0.00    +0.000 C 
ATOM      2  C   UNL     1       7.042   2.925  -2.790  0.00  0.00    +0.000 C 
ENDROOT
BRANCH   1   7
ATOM      3  C   UNL     1       3.408   1.189  -0.043  0.00  0.00    +0.000 A 
ATOM      4  C   UNL     1       2.616   2.333  -0.162  0.00  0.00    +0.000 A 
ATOM      5  C   UNL     1       2.995   3.359  -1.032  0.00  0.00    +0.000 A 
ATOM      6  C   UNL     1       4.172   3.235  -1.778  0.00  0.00    +0.000 A 
ATOM      7  C   UNL     1       4.987   2.104  -1.657  0.00  0.00    +0.000 A 
ATOM      8  C   UNL     1       4.584   1.080  -0.793  0.00  0.00    +0.000 A 
BRANCH   3  10
ATOM      9  C   UNL     1       1.966   0.158   1.548  0.00  0.00    +0.000 C 
ATOM     10  O   UNL     1       3.149   0.111   0.761  0.00  0.00    +0.000 OA
ENDBRANCH   3  10
BRANCH   5  11
ATOM     11  O   UNL     1       2.308   4.523  -1.251  0.00  0.00    +0.000 OA
ATOM     12  C   UNL     1       1.114   4.722  -0.506  0.00  0.00    +0.000 C 
ENDBRANCH   5  11
ENDBRANCH   1   7
BRANCH   2  13
ATOM     13  C   UNL     1       8.276   2.736  -3.569  0.00  0.00    +0.000 A 
ATOM     14  C   UNL     1       8.344   1.848  -4.654  0.00  0.00    +0.000 A 
ATOM     15  C   UNL     1       9.527   1.700  -5.387  0.00  0.00    +0.000 A 
ATOM     16  C   UNL     1      10.654   2.462  -5.029  0.00  0.00    +0.000 A 
ATOM     17  C   UNL     1      10.575   3.403  -3.994  0.00  0.00    +0.000 A 
ATOM     18  C   UNL     1       9.395   3.515  -3.254  0.00  0.00    +0.000 A 
BRANCH  15  19
ATOM     19  O   UNL     1       9.690   0.842  -6.446  0.00  0.00    +0.000 OA
ATOM     20  C   UNL     1       8.551   0.113  -6.881  0.00  0.00    +0.000 C 
ENDBRANCH  15  19
BRANCH  16  21
ATOM     21  O   UNL     1      11.825   2.302  -5.732  0.00  0.00    +0.000 OA
ATOM     22  C   UNL     1      12.599   1.258  -5.141  0.00  0.00    +0.000 C 
ENDBRANCH  16  21
BRANCH  17  23
ATOM     23  O   UNL     1      11.600   4.212  -3.578  0.00  0.00    +0.000 OA
ATOM     24  C   UNL     1      12.279   4.880  -4.639  0.00  0.00    +0.000 C 
ENDBRANCH  17  23
ENDBRANCH   2  13
TORSDOF 7
