REMARK  Name = *****
REMARK  9 active torsions:
REMARK  status: ('A' for Active; 'I' for Inactive)
REMARK    1  A    between atoms: C_1  and  O_2
REMARK    2  A    between atoms: O_2  and  C_3
REMARK    3  A    between atoms: C_5  and  O_6
REMARK    4  A    between atoms: C_9  and  C_10
REMARK    5  A    between atoms: C_15  and  O_16
REMARK    6  A    between atoms: C_17  and  C_18
REMARK    7  A    between atoms: C_18  and  C_19
REMARK    8  A    between atoms: C_20  and  C_21
REMARK    9  A    between atoms: C_20  and  C_22
REMARK                            x       y       z     vdW  Elec       q    Type
REMARK                         _______ _______ _______ _____ _____    ______ ____
ROOT
ATOM      1  C   UNL     1       4.351  -1.147  -0.056  0.00  0.00    +0.000 C 
ATOM      2  C   UNL     1       4.064  -2.119  -0.930  0.00  0.00    +0.000 C 
ATOM      3  C   UNL     1       4.269  -3.498  -0.509  0.00  0.00    +0.000 A 
ATOM      4  C   UNL     1       3.889  -4.548  -1.351  0.00  0.00    +0.000 A 
ATOM      5  C   UNL     1       4.104  -5.871  -0.967  0.00  0.00    +0.000 A 
ATOM      6  C   UNL     1       4.706  -6.143   0.260  0.00  0.00    +0.000 A 
ATOM      7  C   UNL     1       5.095  -5.112   1.128  0.00  0.00    +0.000 A 
ATOM      8  C   UNL     1       4.865  -3.780   0.729  0.00  0.00    +0.000 A 
ATOM      9  O   UNL     1       5.272  -2.794   1.588  0.00  0.00    +0.000 OA
ATOM     10  C   UNL     1       4.883  -1.439   1.320  0.00  0.00    +0.000 C 
ENDROOT
BRANCH   1  16
ATOM     11  C   UNL     1       5.221   1.170  -0.589  0.00  0.00    +0.000 A 
ATOM     12  C   UNL     1       4.959   2.502  -0.935  0.00  0.00    +0.000 A 
ATOM     13  C   UNL     1       3.644   2.924  -1.121  0.00  0.00    +0.000 A 
ATOM     14  C   UNL     1       2.580   2.046  -0.971  0.00  0.00    +0.000 A 
ATOM     15  C   UNL     1       2.829   0.720  -0.624  0.00  0.00    +0.000 A 
ATOM     16  C   UNL     1       4.145   0.268  -0.426  0.00  0.00    +0.000 A 
BRANCH  11  18
ATOM     17  C   UNL     1       7.590   1.512  -0.613  0.00  0.00    +0.000 C 
ATOM     18  O   UNL     1       6.478   0.654  -0.400  0.00  0.00    +0.000 OA
ENDBRANCH  11  18
BRANCH  13  19
ATOM     19  O   UNL     1       3.352   4.214  -1.460  0.00  0.00    +0.000 OA
ATOM     20  H   UNL     1       4.042   4.837  -1.571  0.00  0.00    +0.000 HD
ENDBRANCH  13  19
ENDBRANCH   1  16
BRANCH   6  21
ATOM     21  O   UNL     1       4.928  -7.442   0.630  0.00  0.00    +0.000 OA
ATOM     22  H   UNL     1       4.673  -8.141   0.060  0.00  0.00    +0.000 HD
ENDBRANCH   6  21
BRANCH   7  23
ATOM     23  C   UNL     1       5.783  -5.423   2.441  0.00  0.00    +0.000 C 
BRANCH  23  24
ATOM     24  C   UNL     1       7.274  -5.583   2.284  0.00  0.00    +0.000 C 
ATOM     25  C   UNL     1       8.259  -4.794   2.758  0.00  0.00    +0.000 C 
ATOM     26  C   UNL     1       8.056  -3.536   3.555  0.00  0.00    +0.000 C 
ATOM     27  C   UNL     1       9.702  -5.130   2.489  0.00  0.00    +0.000 C 
ENDBRANCH  23  24
ENDBRANCH   7  23
TORSDOF 6
