REMARK  Name = *****
REMARK  8 active torsions:
REMARK  status: ('A' for Active; 'I' for Inactive)
REMARK    1  A    between atoms: C_1  and  O_2
REMARK    2  A    between atoms: O_2  and  C_3
REMARK    3  A    between atoms: C_6  and  C_7
REMARK    4  A    between atoms: C_8  and  C_9
REMARK    5  A    between atoms: C_11  and  O_12
REMARK    6  A    between atoms: O_12  and  C_13
REMARK    7  A    between atoms: C_15  and  O_16
REMARK    8  A    between atoms: O_16  and  C_17
REMARK                            x       y       z     vdW  Elec       q    Type
REMARK                         _______ _______ _______ _____ _____    ______ ____
ROOT
ATOM      1  C   UNL     1       5.091   4.150   2.552  0.00  0.00    +0.000 C 
ATOM      2  C   UNL     1       4.655   4.800   3.644  0.00  0.00    +0.000 C 
ENDROOT
BRANCH   1   6
ATOM      3  C   UNL     1       3.101   0.851   0.662  0.00  0.00    +0.000 A 
ATOM      4  C   UNL     1       2.349   1.879   1.228  0.00  0.00    +0.000 A 
ATOM      5  C   UNL     1       2.988   2.958   1.854  0.00  0.00    +0.000 A 
ATOM      6  C   UNL     1       4.385   3.018   1.934  0.00  0.00    +0.000 A 
ATOM      7  C   UNL     1       5.133   1.992   1.348  0.00  0.00    +0.000 A 
ATOM      8  C   UNL     1       4.494   0.916   0.723  0.00  0.00    +0.000 A 
BRANCH   3  10
ATOM      9  C   UNL     1       1.192  -0.377  -0.041  0.00  0.00    +0.000 C 
ATOM     10  O   UNL     1       2.607  -0.252   0.023  0.00  0.00    +0.000 OA
ENDBRANCH   3  10
ENDBRANCH   1   6
BRANCH   2  11
ATOM     11  C   UNL     1       5.371   5.922   4.271  0.00  0.00    +0.000 A 
ATOM     12  C   UNL     1       6.025   6.907   3.516  0.00  0.00    +0.000 A 
ATOM     13  C   UNL     1       6.666   7.974   4.150  0.00  0.00    +0.000 A 
ATOM     14  C   UNL     1       6.641   8.068   5.546  0.00  0.00    +0.000 A 
ATOM     15  C   UNL     1       5.980   7.107   6.309  0.00  0.00    +0.000 A 
ATOM     16  C   UNL     1       5.345   6.042   5.666  0.00  0.00    +0.000 A 
BRANCH  13  17
ATOM     17  O   UNL     1       7.341   8.990   3.526  0.00  0.00    +0.000 OA
ATOM     18  C   UNL     1       7.423   8.933   2.107  0.00  0.00    +0.000 C 
ENDBRANCH  13  17
BRANCH  15  19
ATOM     19  O   UNL     1       5.878   7.093   7.674  0.00  0.00    +0.000 OA
ATOM     20  C   UNL     1       6.500   8.163   8.375  0.00  0.00    +0.000 C 
ENDBRANCH  15  19
ENDBRANCH   2  11
TORSDOF 5
