REMARK  Name = *****
REMARK  9 active torsions:
REMARK  status: ('A' for Active; 'I' for Inactive)
REMARK    1  A    between atoms: C_1  and  O_2
REMARK    2  A    between atoms: O_2  and  C_3
REMARK    3  A    between atoms: C_6  and  C_7
REMARK    4  A    between atoms: C_10  and  O_11
REMARK    5  A    between atoms: O_11  and  C_12
REMARK    6  A    between atoms: C_16  and  C_17
REMARK    7  A    between atoms: C_16  and  C_18
REMARK    8  A    between atoms: C_25  and  O_26
REMARK    9  A    between atoms: O_26  and  C_27
REMARK                            x       y       z     vdW  Elec       q    Type
REMARK                         _______ _______ _______ _____ _____    ______ ____
ROOT
ATOM      1  C   UNL     1       4.708  -0.846   5.672  0.00  0.00    +0.000 C 
ATOM      2  C   UNL     1       4.636  -1.897   6.504  0.00  0.00    +0.000 C 
ATOM      3  C   UNL     1       4.683  -1.644   7.946  0.00  0.00    +0.000 A 
ATOM      4  C   UNL     1       4.418  -2.641   8.904  0.00  0.00    +0.000 A 
ATOM      5  C   UNL     1       4.439  -2.344  10.281  0.00  0.00    +0.000 A 
ATOM      6  C   UNL     1       4.056  -3.320  11.297  0.00  0.00    +0.000 C 
ATOM      7  C   UNL     1       4.205  -2.991  12.583  0.00  0.00    +0.000 C 
ATOM      8  C   UNL     1       4.739  -1.653  13.036  0.00  0.00    +0.000 C 
ATOM      9  C   UNL     1       6.115  -1.843  13.684  0.00  0.00    +0.000 C 
ATOM     10  C   UNL     1       3.769  -1.042  14.055  0.00  0.00    +0.000 C 
ATOM     11  O   UNL     1       4.894  -0.666  11.997  0.00  0.00    +0.000 OA
ATOM     12  C   UNL     1       4.818  -1.062  10.691  0.00  0.00    +0.000 A 
ATOM     13  C   UNL     1       5.128  -0.081   9.749  0.00  0.00    +0.000 A 
ATOM     14  C   UNL     1       5.040  -0.365   8.388  0.00  0.00    +0.000 A 
ATOM     15  O   UNL     1       5.374   0.652   7.533  0.00  0.00    +0.000 OA
ATOM     16  C   UNL     1       4.806   0.558   6.214  0.00  0.00    +0.000 C 
ENDROOT
BRANCH   1  20
ATOM     17  C   UNL     1       4.676  -1.376   1.397  0.00  0.00    +0.000 A 
ATOM     18  C   UNL     1       5.549  -2.106   2.202  0.00  0.00    +0.000 A 
ATOM     19  C   UNL     1       5.541  -1.930   3.592  0.00  0.00    +0.000 A 
ATOM     20  C   UNL     1       4.656  -1.030   4.207  0.00  0.00    +0.000 A 
ATOM     21  C   UNL     1       3.769  -0.321   3.384  0.00  0.00    +0.000 A 
ATOM     22  C   UNL     1       3.791  -0.478   1.994  0.00  0.00    +0.000 A 
BRANCH  17  24
ATOM     23  C   UNL     1       5.495  -2.321  -0.626  0.00  0.00    +0.000 C 
ATOM     24  O   UNL     1       4.589  -1.445   0.034  0.00  0.00    +0.000 OA
ENDBRANCH  17  24
BRANCH  21  25
ATOM     25  O   UNL     1       2.885   0.586   3.915  0.00  0.00    +0.000 OA
ATOM     26  C   UNL     1       1.609  -0.030   4.102  0.00  0.00    +0.000 C 
ENDBRANCH  21  25
ENDBRANCH   1  20
BRANCH   4  27
ATOM     27  O   UNL     1       4.073  -3.908   8.481  0.00  0.00    +0.000 OA
ATOM     28  C   UNL     1       5.238  -4.736   8.421  0.00  0.00    +0.000 C 
ENDBRANCH   4  27
TORSDOF 4
