REMARK  Name = *****
REMARK  1 active torsions:
REMARK  status: ('A' for Active; 'I' for Inactive)
REMARK    1  A    between atoms: C_2  and  C_12
REMARK                            x       y       z     vdW  Elec       q    Type
REMARK                         _______ _______ _______ _____ _____    ______ ____
ROOT
ATOM      1  C   UNL     1      -2.335   0.725  -0.379  0.00  0.00    +0.000 C 
ATOM      2  C   UNL     1      -2.384  -0.614   0.360  0.00  0.00    +0.000 C 
ATOM      3  O   UNL     1      -1.249  -1.422  -0.004  0.00  0.00    +0.000 OA
ATOM      4  C   UNL     1      -0.085  -0.697  -0.001  0.00  0.00    +0.000 A 
ATOM      5  C   UNL     1      -0.053   0.702   0.020  0.00  0.00    +0.000 A 
ATOM      6  O   UNL     1      -1.180   1.480   0.015  0.00  0.00    +0.000 OA
ATOM      7  C   UNL     1       1.169   1.372   0.058  0.00  0.00    +0.000 A 
ATOM      8  C   UNL     1       2.361   0.645   0.042  0.00  0.00    +0.000 A 
ATOM      9  C   UNL     1       2.321  -0.749  -0.009  0.00  0.00    +0.000 A 
ATOM     10  C   UNL     1       1.103  -1.425  -0.032  0.00  0.00    +0.000 A 
ATOM     11 CL   UNL     1       3.793  -1.641  -0.039  0.00  0.00    +0.000 Cl
ENDROOT
BRANCH   2  12
ATOM     12  C   UNL     1      -3.665  -1.362   0.044  0.00  0.00    +0.000 A 
ATOM     13  C   UNL     1      -3.773  -2.191  -1.083  0.00  0.00    +0.000 A 
ATOM     14  C   UNL     1      -4.971  -2.846  -1.373  0.00  0.00    +0.000 A 
ATOM     15  C   UNL     1      -6.078  -2.675  -0.546  0.00  0.00    +0.000 A 
ATOM     16  C   UNL     1      -5.989  -1.850   0.573  0.00  0.00    +0.000 A 
ATOM     17  C   UNL     1      -4.791  -1.195   0.866  0.00  0.00    +0.000 A 
ENDBRANCH   2  12
TORSDOF 1
