REMARK  Name = *****
REMARK  3 active torsions:
REMARK  status: ('A' for Active; 'I' for Inactive)
REMARK    1  A    between atoms: C_4  and  C_7
REMARK    2  A    between atoms: C_7  and  C_8
REMARK    3  A    between atoms: C_7  and  O_17
REMARK                            x       y       z     vdW  Elec       q    Type
REMARK                         _______ _______ _______ _____ _____    ______ ____
ROOT
ATOM      1  C   UNL     1      -2.813   0.465  -0.492  0.00  0.00    +0.000 C 
ENDROOT
BRANCH   1   2
ATOM      2  C   UNL     1      -3.239   1.542  -1.529  0.00  0.00    +0.000 C 
ATOM      3  S   UNL     1      -2.814   1.093  -3.262  0.00  0.00    +0.000 S 
ATOM      4  C   UNL     1      -2.496   2.750  -3.811  0.00  0.00    +0.000 A 
ATOM      5  C   UNL     1      -2.309   3.073  -5.154  0.00  0.00    +0.000 A 
ATOM      6  C   UNL     1      -2.054   4.397  -5.514  0.00  0.00    +0.000 A 
ATOM      7  C   UNL     1      -1.981   5.390  -4.534  0.00  0.00    +0.000 A 
ATOM      8  C   UNL     1      -2.162   5.064  -3.188  0.00  0.00    +0.000 A 
ATOM      9  C   UNL     1      -2.423   3.742  -2.832  0.00  0.00    +0.000 A 
ATOM     10  S   UNL     1      -2.653   3.236  -1.147  0.00  0.00    +0.000 S 
ENDBRANCH   1   2
BRANCH   1  14
ATOM     11  C   UNL     1       1.441  -0.211   0.016  0.00  0.00    +0.000 A 
ATOM     12  C   UNL     1       0.776   0.726   0.800  0.00  0.00    +0.000 A 
ATOM     13  C   UNL     1      -0.595   0.934   0.631  0.00  0.00    +0.000 A 
ATOM     14  C   UNL     1      -1.323   0.209  -0.328  0.00  0.00    +0.000 A 
ATOM     15  C   UNL     1      -0.635  -0.735  -1.106  0.00  0.00    +0.000 A 
ATOM     16  C   UNL     1       0.736  -0.943  -0.936  0.00  0.00    +0.000 A 
ENDBRANCH   1  14
BRANCH   1  17
ATOM     17  O   UNL     1      -3.491  -0.777  -0.756  0.00  0.00    +0.000 OA
ATOM     18  H   UNL     1      -3.197  -1.131  -1.610  0.00  0.00    +0.000 HD
ENDBRANCH   1  17
TORSDOF 3
