REMARK  Name = *****
REMARK  1 active torsions:
REMARK  status: ('A' for Active; 'I' for Inactive)
REMARK    1  A    between atoms: C_4  and  C_7
REMARK                            x       y       z     vdW  Elec       q    Type
REMARK                         _______ _______ _______ _____ _____    ______ ____
ROOT
ATOM      1  C   UNL     1       2.762  -0.739  -0.550  0.00  0.00    +0.000 C 
ATOM      2  O   UNL     1       3.169  -2.050  -0.076  0.00  0.00    +0.000 OA
ATOM      3  C   UNL     1       3.412  -2.862  -1.155  0.00  0.00    +0.000 A 
ATOM      4  C   UNL     1       3.755  -4.193  -0.975  0.00  0.00    +0.000 A 
ATOM      5  C   UNL     1       3.977  -4.986  -2.103  0.00  0.00    +0.000 A 
ATOM      6  C   UNL     1       3.858  -4.439  -3.388  0.00  0.00    +0.000 A 
ATOM      7  C   UNL     1       3.517  -3.095  -3.555  0.00  0.00    +0.000 A 
ATOM      8  C   UNL     1       3.297  -2.319  -2.428  0.00  0.00    +0.000 A 
ATOM      9  S   UNL     1       2.846  -0.630  -2.367  0.00  0.00    +0.000 S 
ENDROOT
BRANCH   1  13
ATOM     10  C   UNL     1      -1.481   0.382   0.032  0.00  0.00    +0.000 C 
ATOM     11  C   UNL     1      -1.065  -1.059   0.303  0.00  0.00    +0.000 C 
ATOM     12  C   UNL     1       0.270  -1.396  -0.358  0.00  0.00    +0.000 C 
ATOM     13  C   UNL     1       1.378  -0.407   0.060  0.00  0.00    +0.000 C 
ATOM     14  C   UNL     1       0.944   1.044  -0.211  0.00  0.00    +0.000 C 
ATOM     15  C   UNL     1      -0.394   1.365   0.453  0.00  0.00    +0.000 C 
ENDBRANCH   1  13
TORSDOF 1
