REMARK  Name = *****
REMARK  4 active torsions:
REMARK  status: ('A' for Active; 'I' for Inactive)
REMARK    1  A    between atoms: C_1  and  C_2
REMARK    2  A    between atoms: C_11  and  O_13
REMARK    3  A    between atoms: O_13  and  C_14
REMARK    4  A    between atoms: C_14  and  C_15
REMARK                            x       y       z     vdW  Elec       q    Type
REMARK                         _______ _______ _______ _____ _____    ______ ____
ROOT
ATOM      1  C   UNL     1      -0.489  -2.995  -0.319  0.00  0.00    +0.000 C 
ATOM      2  C   UNL     1      -0.649  -1.511  -0.175  0.00  0.00    +0.000 A 
ATOM      3  C   UNL     1      -1.860  -0.933  -0.191  0.00  0.00    +0.000 A 
ATOM      4  C   UNL     1      -2.071   0.515  -0.046  0.00  0.00    +0.000 A 
ATOM      5  O   UNL     1      -3.202   0.987  -0.076  0.00  0.00    +0.000 OA
ATOM      6  O   UNL     1      -0.944   1.298   0.125  0.00  0.00    +0.000 OA
ATOM      7  C   UNL     1       0.342   0.723   0.150  0.00  0.00    +0.000 A 
ATOM      8  C   UNL     1       0.529  -0.651  -0.003  0.00  0.00    +0.000 A 
ATOM      9  C   UNL     1       1.844  -1.131   0.024  0.00  0.00    +0.000 A 
ATOM     10  C   UNL     1       2.927  -0.259   0.212  0.00  0.00    +0.000 A 
ATOM     11  C   UNL     1       2.712   1.109   0.384  0.00  0.00    +0.000 A 
ATOM     12  C   UNL     1       1.409   1.601   0.339  0.00  0.00    +0.000 A 
ENDROOT
BRANCH  11  13
ATOM     13  O   UNL     1       3.674   2.055   0.597  0.00  0.00    +0.000 OA
BRANCH  13  14
ATOM     14  C   UNL     1       5.000   1.591   0.853  0.00  0.00    +0.000 C 
BRANCH  14  15
ATOM     15  C   UNL     1       5.863   2.758   1.270  0.00  0.00    +0.000 A 
ATOM     16  C   UNL     1       6.715   2.650   2.378  0.00  0.00    +0.000 A 
ATOM     17  C   UNL     1       7.521   3.723   2.745  0.00  0.00    +0.000 A 
ATOM     18  C   UNL     1       7.506   4.912   2.026  0.00  0.00    +0.000 A 
ATOM     19  C   UNL     1       6.673   5.029   0.916  0.00  0.00    +0.000 A 
ATOM     20  C   UNL     1       5.859   3.957   0.537  0.00  0.00    +0.000 A 
ATOM     21  F   UNL     1       8.326   3.607   3.810  0.00  0.00    +0.000 F 
ENDBRANCH  14  15
ENDBRANCH  13  14
ENDBRANCH  11  13
TORSDOF 3
