REMARK  Name = *****
REMARK  4 active torsions:
REMARK  status: ('A' for Active; 'I' for Inactive)
REMARK    1  A    between atoms: C_1  and  C_2
REMARK    2  A    between atoms: C_4  and  C_19
REMARK    3  A    between atoms: C_7  and  C_11
REMARK    4  A    between atoms: C_7  and  O_18
REMARK                            x       y       z     vdW  Elec       q    Type
REMARK                         _______ _______ _______ _____ _____    ______ ____
ROOT
ATOM      1  C   UNL     1       0.904  -0.161   0.614  0.00  0.00    +0.000 C 
ATOM      2  C   UNL     1       2.379  -0.054   0.359  0.00  0.00    +0.000 A 
ATOM      3  C   UNL     1       3.187  -1.209   0.340  0.00  0.00    +0.000 A 
ATOM      4  C   UNL     1       4.563  -1.138   0.070  0.00  0.00    +0.000 A 
ATOM      5  C   UNL     1       5.109   0.119  -0.167  0.00  0.00    +0.000 A 
ATOM      6  C   UNL     1       6.536   0.459  -0.505  0.00  0.00    +0.000 C 
ATOM      7  C   UNL     1       6.565   2.001  -0.300  0.00  0.00    +0.000 C 
ATOM      8  C   UNL     1       5.105   2.498  -0.493  0.00  0.00    +0.000 C 
ATOM      9  C   UNL     1       4.311   1.268  -0.159  0.00  0.00    +0.000 A 
ATOM     10  C   UNL     1       2.950   1.196   0.092  0.00  0.00    +0.000 A 
ATOM     11  C   UNL     1       5.408  -2.375   0.056  0.00  0.00    +0.000 C 
ENDROOT
BRANCH   7  12
ATOM     12  C   UNL     1       7.553   2.700  -1.230  0.00  0.00    +0.000 A 
ATOM     13  C   UNL     1       7.410   2.605  -2.630  0.00  0.00    +0.000 A 
ATOM     14  C   UNL     1       8.308   3.241  -3.491  0.00  0.00    +0.000 A 
ATOM     15  C   UNL     1       9.359   3.978  -2.962  0.00  0.00    +0.000 A 
ATOM     16  C   UNL     1       9.528   4.091  -1.590  0.00  0.00    +0.000 A 
ATOM     17  C   UNL     1       8.629   3.455  -0.729  0.00  0.00    +0.000 A 
ATOM     18  F   UNL     1      10.220   4.587  -3.788  0.00  0.00    +0.000 F 
ENDBRANCH   7  12
BRANCH   7  19
ATOM     19  O   UNL     1       6.939   2.255   1.072  0.00  0.00    +0.000 OA
ATOM     20  H   UNL     1       6.312   1.812   1.665  0.00  0.00    +0.000 HD
ENDBRANCH   7  19
TORSDOF 2
