REMARK  Name = *****
REMARK  2 active torsions:
REMARK  status: ('A' for Active; 'I' for Inactive)
REMARK    1  A    between atoms: C_6  and  C_11
REMARK    2  A    between atoms: C_6  and  O_17
REMARK                            x       y       z     vdW  Elec       q    Type
REMARK                         _______ _______ _______ _____ _____    ______ ____
ROOT
ATOM      1  C   UNL     1      -2.548   0.709   0.339  0.00  0.00    +0.000 C 
ATOM      2  C   UNL     1      -2.533  -0.761  -0.070  0.00  0.00    +0.000 C 
ATOM      3  C   UNL     1      -1.221  -1.443   0.313  0.00  0.00    +0.000 C 
ATOM      4  C   UNL     1      -0.011  -0.690  -0.259  0.00  0.00    +0.000 C 
ATOM      5  C   UNL     1       1.305  -1.382   0.140  0.00  0.00    +0.000 C 
ATOM      6  C   UNL     1       2.565  -0.636  -0.359  0.00  0.00    +0.000 C 
ATOM      7  C   UNL     1       2.496   0.856   0.040  0.00  0.00    +0.000 C 
ATOM      8  C   UNL     1       1.185   1.536  -0.365  0.00  0.00    +0.000 C 
ATOM      9  C   UNL     1      -0.024   0.780   0.196  0.00  0.00    +0.000 C 
ATOM     10  C   UNL     1      -1.338   1.462  -0.208  0.00  0.00    +0.000 C 
ENDROOT
BRANCH   6  11
ATOM     11  C   UNL     1       3.817  -1.371   0.134  0.00  0.00    +0.000 A 
ATOM     12  C   UNL     1       4.175  -2.600  -0.458  0.00  0.00    +0.000 A 
ATOM     13  C   UNL     1       5.293  -3.321  -0.030  0.00  0.00    +0.000 A 
ATOM     14  C   UNL     1       6.079  -2.830   1.006  0.00  0.00    +0.000 A 
ATOM     15  C   UNL     1       5.747  -1.620   1.609  0.00  0.00    +0.000 A 
ATOM     16  C   UNL     1       4.628  -0.899   1.179  0.00  0.00    +0.000 A 
ENDBRANCH   6  11
BRANCH   6  17
ATOM     17  O   UNL     1       2.610  -0.702  -1.794  0.00  0.00    +0.000 OA
ATOM     18  H   UNL     1       1.835  -0.249  -2.163  0.00  0.00    +0.000 HD
ENDBRANCH   6  17
TORSDOF 2
