REMARK  Name = *****
REMARK  4 active torsions:
REMARK  status: ('A' for Active; 'I' for Inactive)
REMARK    1  A    between atoms: C_1  and  C_2
REMARK    2  A    between atoms: C_2  and  C_18
REMARK    3  A    between atoms: C_3  and  C_12
REMARK    4  A    between atoms: C_18  and  O_19
REMARK                            x       y       z     vdW  Elec       q    Type
REMARK                         _______ _______ _______ _____ _____    ______ ____
ROOT
ATOM      1  C   UNL     1       3.816  -0.074  -1.416  0.00  0.00    +0.000 C 
ATOM      2  C   UNL     1       2.648   0.028  -0.390  0.00  0.00    +0.000 C 
ATOM      3  C   UNL     1       2.796   1.403   0.386  0.00  0.00    +0.000 C 
ATOM      4  C   UNL     1       3.893   1.365   1.429  0.00  0.00    +0.000 C 
ATOM      5  C   UNL     1       4.287   0.232   2.025  0.00  0.00    +0.000 C 
ATOM      6  C   UNL     1       3.636  -1.042   1.706  0.00  0.00    +0.000 A 
ATOM      7  C   UNL     1       3.846  -2.139   2.553  0.00  0.00    +0.000 A 
ATOM      8  C   UNL     1       3.245  -3.366   2.283  0.00  0.00    +0.000 A 
ATOM      9  C   UNL     1       2.439  -3.510   1.160  0.00  0.00    +0.000 A 
ATOM     10  C   UNL     1       2.230  -2.427   0.303  0.00  0.00    +0.000 A 
ATOM     11  C   UNL     1       2.814  -1.174   0.563  0.00  0.00    +0.000 A 
ENDROOT
BRANCH   3  12
ATOM     12  C   UNL     1       1.521   1.976   1.010  0.00  0.00    +0.000 A 
ATOM     13  C   UNL     1       0.748   1.254   1.933  0.00  0.00    +0.000 A 
ATOM     14  C   UNL     1      -0.411   1.807   2.481  0.00  0.00    +0.000 A 
ATOM     15  C   UNL     1      -0.810   3.093   2.124  0.00  0.00    +0.000 A 
ATOM     16  C   UNL     1      -0.047   3.831   1.224  0.00  0.00    +0.000 A 
ATOM     17  C   UNL     1       1.113   3.280   0.675  0.00  0.00    +0.000 A 
ENDBRANCH   3  12
BRANCH   2  18
ATOM     18  C   UNL     1       1.325  -0.016  -1.208  0.00  0.00    +0.000 C 
BRANCH  18  19
ATOM     19  O   UNL     1       1.143   1.144  -2.018  0.00  0.00    +0.000 OA
ATOM     20  H   UNL     1       1.094   1.930  -1.451  0.00  0.00    +0.000 HD
ENDBRANCH  18  19
ENDBRANCH   2  18
TORSDOF 3
