REMARK  Name = *****
REMARK  2 active torsions:
REMARK  status: ('A' for Active; 'I' for Inactive)
REMARK    1  A    between atoms: C_1  and  C_2
REMARK    2  A    between atoms: C_4  and  C_12
REMARK                            x       y       z     vdW  Elec       q    Type
REMARK                         _______ _______ _______ _____ _____    ______ ____
ROOT
ATOM      1  C   UNL     1       1.279   0.601  -0.459  0.00  0.00    +0.000 C 
ATOM      2  C   UNL     1       2.720   0.176  -0.166  0.00  0.00    +0.000 C 
ATOM      3  C   UNL     1       2.878  -1.334   0.012  0.00  0.00    +0.000 C 
ATOM      4  C   UNL     1       2.522  -1.808   1.427  0.00  0.00    +0.000 C 
ATOM      5  O   UNL     1       3.261  -1.109   2.441  0.00  0.00    +0.000 OA
ATOM      6  C   UNL     1       3.517   0.218   2.234  0.00  0.00    +0.000 A 
ATOM      7  C   UNL     1       4.064   0.895   3.327  0.00  0.00    +0.000 A 
ATOM      8  C   UNL     1       4.365   2.253   3.238  0.00  0.00    +0.000 A 
ATOM      9  C   UNL     1       4.125   2.938   2.051  0.00  0.00    +0.000 A 
ATOM     10  C   UNL     1       3.588   2.262   0.954  0.00  0.00    +0.000 A 
ATOM     11  C   UNL     1       3.280   0.894   1.034  0.00  0.00    +0.000 A 
ENDROOT
BRANCH   4  12
ATOM     12  C   UNL     1       1.031  -1.904   1.731  0.00  0.00    +0.000 A 
ATOM     13  C   UNL     1       0.208  -2.725   0.938  0.00  0.00    +0.000 A 
ATOM     14  C   UNL     1      -1.159  -2.839   1.198  0.00  0.00    +0.000 A 
ATOM     15  C   UNL     1      -1.727  -2.143   2.261  0.00  0.00    +0.000 A 
ATOM     16  C   UNL     1      -0.927  -1.338   3.067  0.00  0.00    +0.000 A 
ATOM     17  C   UNL     1       0.441  -1.224   2.808  0.00  0.00    +0.000 A 
ENDBRANCH   4  12
TORSDOF 1
