REMARK  Name = *****
REMARK  1 active torsions:
REMARK  status: ('A' for Active; 'I' for Inactive)
REMARK    1  A    between atoms: C_2  and  C_12
REMARK                            x       y       z     vdW  Elec       q    Type
REMARK                         _______ _______ _______ _____ _____    ______ ____
ROOT
ATOM      1  C   UNL     1      -2.300   0.231  -0.456  0.00  0.00    +0.000 C 
ATOM      2  C   UNL     1      -1.794   1.474   0.265  0.00  0.00    +0.000 C 
ATOM      3  O   UNL     1      -0.493   1.852  -0.229  0.00  0.00    +0.000 OA
ATOM      4  C   UNL     1       0.430   0.846  -0.119  0.00  0.00    +0.000 A 
ATOM      5  C   UNL     1       1.770   1.227  -0.076  0.00  0.00    +0.000 A 
ATOM      6  C   UNL     1       2.767   0.255   0.039  0.00  0.00    +0.000 A 
ATOM      7  C   UNL     1       2.425  -1.097   0.098  0.00  0.00    +0.000 A 
ATOM      8  C   UNL     1       1.086  -1.483   0.034  0.00  0.00    +0.000 A 
ATOM      9  C   UNL     1       0.092  -0.507  -0.082  0.00  0.00    +0.000 A 
ATOM     10  C   UNL     1      -1.328  -0.889  -0.213  0.00  0.00    +0.000 C 
ATOM     11  O   UNL     1      -1.669  -2.066  -0.192  0.00  0.00    +0.000 OA
ENDROOT
BRANCH   2  12
ATOM     12  C   UNL     1      -2.758   2.634   0.062  0.00  0.00    +0.000 A 
ATOM     13  C   UNL     1      -2.613   3.485  -1.052  0.00  0.00    +0.000 A 
ATOM     14  C   UNL     1      -3.499   4.541  -1.275  0.00  0.00    +0.000 A 
ATOM     15  C   UNL     1      -4.553   4.763  -0.395  0.00  0.00    +0.000 A 
ATOM     16  C   UNL     1      -4.724   3.926   0.706  0.00  0.00    +0.000 A 
ATOM     17  C   UNL     1      -3.837   2.867   0.933  0.00  0.00    +0.000 A 
ATOM     18 CL   UNL     1      -4.140   1.865   2.308  0.00  0.00    +0.000 Cl
ENDBRANCH   2  12
TORSDOF 1
