REMARK  Name = *****
REMARK  1 active torsions:
REMARK  status: ('A' for Active; 'I' for Inactive)
REMARK    1  A    between atoms: C_10  and  C_11
REMARK                            x       y       z     vdW  Elec       q    Type
REMARK                         _______ _______ _______ _____ _____    ______ ____
ROOT
ATOM      1  C   UNL     1      -2.179  -0.847  -0.128  0.00  0.00    +0.000 C 
ATOM      2  C   UNL     1      -0.910  -1.656   0.082  0.00  0.00    +0.000 C 
ATOM      3  C   UNL     1       0.286  -0.799  -0.204  0.00  0.00    +0.000 A 
ATOM      4  C   UNL     1       1.520  -1.391  -0.509  0.00  0.00    +0.000 A 
ATOM      5  C   UNL     1       2.638  -0.599  -0.770  0.00  0.00    +0.000 A 
ATOM      6  C   UNL     1       2.535   0.790  -0.724  0.00  0.00    +0.000 A 
ATOM      7  C   UNL     1       1.314   1.384  -0.407  0.00  0.00    +0.000 A 
ATOM      8  C   UNL     1       0.195   0.594  -0.138  0.00  0.00    +0.000 A 
ATOM      9  O   UNL     1      -0.948   1.274   0.186  0.00  0.00    +0.000 OA
ATOM     10  C   UNL     1      -2.084   0.496   0.603  0.00  0.00    +0.000 C 
ENDROOT
BRANCH  10  11
ATOM     11  C   UNL     1      -2.209   0.378   2.119  0.00  0.00    +0.000 A 
ATOM     12  C   UNL     1      -1.151   0.682   2.989  0.00  0.00    +0.000 A 
ATOM     13  C   UNL     1      -1.301   0.555   4.372  0.00  0.00    +0.000 A 
ATOM     14  C   UNL     1      -2.512   0.126   4.908  0.00  0.00    +0.000 A 
ATOM     15  C   UNL     1      -3.576  -0.174   4.063  0.00  0.00    +0.000 A 
ATOM     16  C   UNL     1      -3.427  -0.047   2.680  0.00  0.00    +0.000 A 
ENDBRANCH  10  11
TORSDOF 1
