REMARK  Name = *****
REMARK  4 active torsions:
REMARK  status: ('A' for Active; 'I' for Inactive)
REMARK    1  A    between atoms: C_1  and  C_2
REMARK    2  A    between atoms: N_5  and  S_8
REMARK    3  A    between atoms: S_8  and  S_9
REMARK    4  A    between atoms: S_9  and  C_10
REMARK                            x       y       z     vdW  Elec       q    Type
REMARK                         _______ _______ _______ _____ _____    ______ ____
ROOT
ATOM      1  S   UNL     1       3.369   2.023  -2.908  0.00  0.00    +0.000 S 
ENDROOT
BRANCH   1   2
ATOM      2  C   UNL     1       3.431   0.925  -4.276  0.00  0.00    +0.000 A 
ATOM      3  N   UNL     1       2.602   1.019  -5.291  0.00  0.00    +0.000 NA
ATOM      4  C   UNL     1       2.893   0.040  -6.224  0.00  0.00    +0.000 A 
ATOM      5  C   UNL     1       2.207  -0.176  -7.436  0.00  0.00    +0.000 A 
ATOM      6  C   UNL     1       2.612  -1.205  -8.292  0.00  0.00    +0.000 A 
ATOM      7  C   UNL     1       3.690  -2.018  -7.956  0.00  0.00    +0.000 A 
ATOM      8  C   UNL     1       4.388  -1.825  -6.759  0.00  0.00    +0.000 A 
ATOM      9  C   UNL     1       3.971  -0.789  -5.906  0.00  0.00    +0.000 A 
ATOM     10  S   UNL     1       4.617  -0.306  -4.386  0.00  0.00    +0.000 S 
ENDBRANCH   1   2
BRANCH   1  11
ATOM     11  S   UNL     1       1.382   1.852  -2.417  0.00  0.00    +0.000 S 
BRANCH  11  16
ATOM     12  C   UNL     1      -2.295  -0.414   0.465  0.00  0.00    +0.000 C 
ATOM     13  C   UNL     1      -0.824  -0.527   0.077  0.00  0.00    +0.000 C 
ATOM     14  C   UNL     1      -0.668  -0.746  -1.434  0.00  0.00    +0.000 C 
ATOM     15  C   UNL     1       0.807  -0.734  -1.846  0.00  0.00    +0.000 C 
ATOM     16  N   UNL     1       1.495   0.503  -1.439  0.00  0.00    +0.000 NA
ATOM     17  C   UNL     1       1.407   0.664   0.022  0.00  0.00    +0.000 C 
ATOM     18  C   UNL     1      -0.041   0.716   0.518  0.00  0.00    +0.000 C 
ENDBRANCH  11  16
ENDBRANCH   1  11
TORSDOF 3
