REMARK  Name = *****
REMARK  4 active torsions:
REMARK  status: ('A' for Active; 'I' for Inactive)
REMARK    1  A    between atoms: C_1  and  C_2
REMARK    2  A    between atoms: C_2  and  C_14
REMARK    3  A    between atoms: C_9  and  O_12
REMARK    4  A    between atoms: O_12  and  C_13
REMARK                            x       y       z     vdW  Elec       q    Type
REMARK                         _______ _______ _______ _____ _____    ______ ____
ROOT
ATOM      1  C   UNL     1       1.268   0.154   0.131  0.00  0.00    +0.000 C 
ATOM      2  C   UNL     1       2.776  -0.044  -0.114  0.00  0.00    +0.000 C 
ATOM      3  C   UNL     1       3.261  -1.223   0.756  0.00  0.00    +0.000 C 
ATOM      4  C   UNL     1       4.773  -1.375   0.656  0.00  0.00    +0.000 C 
ATOM      5  C   UNL     1       5.434  -0.043   0.845  0.00  0.00    +0.000 A 
ATOM      6  C   UNL     1       4.713   1.140   0.682  0.00  0.00    +0.000 A 
ATOM      7  O   UNL     1       3.386   1.186   0.346  0.00  0.00    +0.000 OA
ATOM      8  C   UNL     1       5.336   2.374   0.875  0.00  0.00    +0.000 A 
ATOM      9  C   UNL     1       6.691   2.447   1.203  0.00  0.00    +0.000 A 
ATOM     10  C   UNL     1       7.421   1.267   1.343  0.00  0.00    +0.000 A 
ATOM     11  C   UNL     1       6.796   0.028   1.163  0.00  0.00    +0.000 A 
ENDROOT
BRANCH   2  12
ATOM     12  C   UNL     1       2.975  -0.248  -1.627  0.00  0.00    +0.000 A 
ATOM     13  C   UNL     1       3.448   0.791  -2.446  0.00  0.00    +0.000 A 
ATOM     14  C   UNL     1       3.616   0.610  -3.821  0.00  0.00    +0.000 A 
ATOM     15  C   UNL     1       3.303  -0.612  -4.408  0.00  0.00    +0.000 A 
ATOM     16  C   UNL     1       2.815  -1.650  -3.621  0.00  0.00    +0.000 A 
ATOM     17  C   UNL     1       2.647  -1.469  -2.246  0.00  0.00    +0.000 A 
ENDBRANCH   2  12
BRANCH   9  18
ATOM     18  O   UNL     1       7.177   3.716   1.355  0.00  0.00    +0.000 OA
ATOM     19  C   UNL     1       8.556   3.843   1.678  0.00  0.00    +0.000 C 
ENDBRANCH   9  18
TORSDOF 2
