REMARK  Name = *****
REMARK  3 active torsions:
REMARK  status: ('A' for Active; 'I' for Inactive)
REMARK    1  A    between atoms: C_10  and  C_11
REMARK    2  A    between atoms: C_11  and  C_12
REMARK    3  A    between atoms: C_11  and  O_19
REMARK                            x       y       z     vdW  Elec       q    Type
REMARK                         _______ _______ _______ _____ _____    ______ ____
ROOT
ATOM      1  C   UNL     1      -2.430   0.724  -0.356  0.00  0.00    +0.000 A 
ATOM      2  C   UNL     1      -2.455  -0.664  -0.382  0.00  0.00    +0.000 A 
ATOM      3  C   UNL     1      -1.266  -1.386  -0.253  0.00  0.00    +0.000 A 
ATOM      4  C   UNL     1      -0.019  -0.736  -0.092  0.00  0.00    +0.000 A 
ATOM      5  C   UNL     1      -0.012   0.678  -0.065  0.00  0.00    +0.000 A 
ATOM      6  C   UNL     1      -1.216   1.391  -0.200  0.00  0.00    +0.000 A 
ATOM      7  C   UNL     1       1.194   1.364   0.101  0.00  0.00    +0.000 A 
ATOM      8  C   UNL     1       2.360   0.640   0.247  0.00  0.00    +0.000 A 
ATOM      9  N   UNL     1       2.411  -0.704   0.236  0.00  0.00    +0.000 NA
ATOM     10  C   UNL     1       1.233  -1.384   0.057  0.00  0.00    +0.000 A 
ENDROOT
BRANCH  10  11
ATOM     11  C   UNL     1       1.381  -2.909   0.037  0.00  0.00    +0.000 C 
BRANCH  11  12
ATOM     12  C   UNL     1       1.386  -3.520  -1.352  0.00  0.00    +0.000 A 
ATOM     13  C   UNL     1       2.312  -3.046  -2.307  0.00  0.00    +0.000 A 
ATOM     14  C   UNL     1       2.372  -3.583  -3.594  0.00  0.00    +0.000 A 
ATOM     15  C   UNL     1       1.511  -4.613  -3.955  0.00  0.00    +0.000 A 
ATOM     16  C   UNL     1       0.599  -5.109  -3.025  0.00  0.00    +0.000 A 
ATOM     17  C   UNL     1       0.540  -4.574  -1.731  0.00  0.00    +0.000 A 
ATOM     18 CL   UNL     1      -0.607  -5.285  -0.650  0.00  0.00    +0.000 Cl
ENDBRANCH  11  12
BRANCH  11  19
ATOM     19  O   UNL     1       2.633  -3.279   0.648  0.00  0.00    +0.000 OA
ATOM     20  H   UNL     1       3.367  -2.916   0.128  0.00  0.00    +0.000 HD
ENDBRANCH  11  19
ENDBRANCH  10  11
TORSDOF 3
