REMARK  Name = *****
REMARK  2 active torsions:
REMARK  status: ('A' for Active; 'I' for Inactive)
REMARK    1  A    between atoms: C_2  and  C_12
REMARK    2  A    between atoms: C_8  and  O_11
REMARK                            x       y       z     vdW  Elec       q    Type
REMARK                         _______ _______ _______ _____ _____    ______ ____
ROOT
ATOM      1  C   UNL     1      -2.518   0.611  -0.435  0.00  0.00    +0.000 C 
ATOM      2  C   UNL     1      -2.200  -0.555   0.508  0.00  0.00    +0.000 C 
ATOM      3  O   UNL     1      -1.013  -1.248   0.072  0.00  0.00    +0.000 OA
ATOM      4  C   UNL     1       0.127  -0.497  -0.061  0.00  0.00    +0.000 A 
ATOM      5  C   UNL     1       0.178   0.895  -0.223  0.00  0.00    +0.000 A 
ATOM      6  S   UNL     1      -1.272   1.927  -0.331  0.00  0.00    +0.000 S 
ATOM      7  C   UNL     1       1.426   1.527  -0.333  0.00  0.00    +0.000 A 
ATOM      8  C   UNL     1       2.595   0.772  -0.301  0.00  0.00    +0.000 A 
ATOM      9  C   UNL     1       2.546  -0.608  -0.166  0.00  0.00    +0.000 A 
ATOM     10  C   UNL     1       1.311  -1.242  -0.049  0.00  0.00    +0.000 A 
ENDROOT
BRANCH   2  11
ATOM     11  C   UNL     1      -2.219  -0.321   2.019  0.00  0.00    +0.000 A 
ATOM     12  C   UNL     1      -2.922   0.743   2.607  0.00  0.00    +0.000 A 
ATOM     13  C   UNL     1      -2.952   0.905   3.995  0.00  0.00    +0.000 A 
ATOM     14  C   UNL     1      -2.296  -0.002   4.822  0.00  0.00    +0.000 A 
ATOM     15  C   UNL     1      -1.613  -1.076   4.262  0.00  0.00    +0.000 A 
ATOM     16  C   UNL     1      -1.582  -1.238   2.875  0.00  0.00    +0.000 A 
ENDBRANCH   2  11
BRANCH   8  17
ATOM     17  O   UNL     1       3.822   1.356  -0.408  0.00  0.00    +0.000 OA
ATOM     18  H   UNL     1       3.892   2.285  -0.501  0.00  0.00    +0.000 HD
ENDBRANCH   8  17
TORSDOF 2
