REMARK  Name = *****
REMARK  3 active torsions:
REMARK  status: ('A' for Active; 'I' for Inactive)
REMARK    1  A    between atoms: C_1  and  C_2
REMARK    2  A    between atoms: N_12  and  N_13
REMARK    3  A    between atoms: C_14  and  C_15
REMARK                            x       y       z     vdW  Elec       q    Type
REMARK                         _______ _______ _______ _____ _____    ______ ____
ROOT
ATOM      1  C   UNL     1       1.708  -0.262   2.493  0.00  0.00    +0.000 C 
ATOM      2  C   UNL     1       2.788  -0.094   1.452  0.00  0.00    +0.000 A 
ATOM      3  N   UNL     1       3.495   0.994   1.507  0.00  0.00    +0.000 NA
ATOM      4  C   UNL     1       4.542   1.148   0.590  0.00  0.00    +0.000 A 
ATOM      5  C   UNL     1       5.250   2.352   0.570  0.00  0.00    +0.000 A 
ATOM      6  C   UNL     1       6.326   2.531  -0.305  0.00  0.00    +0.000 A 
ATOM      7  C   UNL     1       6.707   1.501  -1.164  0.00  0.00    +0.000 A 
ATOM      8  C   UNL     1       6.011   0.294  -1.151  0.00  0.00    +0.000 A 
ATOM      9  C   UNL     1       4.931   0.128  -0.275  0.00  0.00    +0.000 A 
ATOM     10  C   UNL     1       4.158  -1.126  -0.249  0.00  0.00    +0.000 A 
ATOM     11  O   UNL     1       4.584  -2.103  -0.864  0.00  0.00    +0.000 OA
ATOM     12  N   UNL     1       2.976  -1.081   0.499  0.00  0.00    +0.000 N 
ENDROOT
BRANCH  12  13
ATOM     13  N   UNL     1       2.212  -2.231   0.499  0.00  0.00    +0.000 NA
ATOM     14  C   UNL     1       1.049  -2.206  -0.088  0.00  0.00    +0.000 C 
BRANCH  14  15
ATOM     15  C   UNL     1       0.368  -1.078  -0.753  0.00  0.00    +0.000 A 
ATOM     16  C   UNL     1       0.816  -0.547  -1.968  0.00  0.00    +0.000 A 
ATOM     17  C   UNL     1       0.144   0.535  -2.550  0.00  0.00    +0.000 A 
ATOM     18  C   UNL     1      -0.993   1.068  -1.946  0.00  0.00    +0.000 A 
ATOM     19  C   UNL     1      -1.479   0.502  -0.770  0.00  0.00    +0.000 A 
ATOM     20  C   UNL     1      -0.812  -0.577  -0.182  0.00  0.00    +0.000 A 
ATOM     21 CL   UNL     1      -1.515  -1.260   1.243  0.00  0.00    +0.000 Cl
ATOM     22 CL   UNL     1       2.115  -1.232  -2.870  0.00  0.00    +0.000 Cl
ENDBRANCH  14  15
ENDBRANCH  12  13
TORSDOF 2
