REMARK  Name = *****
REMARK  5 active torsions:
REMARK  status: ('A' for Active; 'I' for Inactive)
REMARK    1  A    between atoms: C_1  and  C_2
REMARK    2  A    between atoms: C_4  and  C_20
REMARK    3  A    between atoms: C_7  and  C_11
REMARK    4  A    between atoms: C_7  and  O_19
REMARK    5  A    between atoms: C_15  and  C_17
REMARK                            x       y       z     vdW  Elec       q    Type
REMARK                         _______ _______ _______ _____ _____    ______ ____
ROOT
ATOM      1  C   UNL     1       0.974  -0.203   0.608  0.00  0.00    +0.000 C 
ATOM      2  C   UNL     1       2.454  -0.096   0.382  0.00  0.00    +0.000 A 
ATOM      3  C   UNL     1       3.265  -1.249   0.379  0.00  0.00    +0.000 A 
ATOM      4  C   UNL     1       4.647  -1.173   0.141  0.00  0.00    +0.000 A 
ATOM      5  C   UNL     1       5.196   0.087  -0.077  0.00  0.00    +0.000 A 
ATOM      6  C   UNL     1       6.626   0.425  -0.398  0.00  0.00    +0.000 C 
ATOM      7  C   UNL     1       6.654   1.972  -0.227  0.00  0.00    +0.000 C 
ATOM      8  C   UNL     1       5.189   2.468  -0.394  0.00  0.00    +0.000 C 
ATOM      9  C   UNL     1       4.397   1.234  -0.075  0.00  0.00    +0.000 A 
ATOM     10  C   UNL     1       3.031   1.158   0.147  0.00  0.00    +0.000 A 
ATOM     11  C   UNL     1       5.493  -2.409   0.131  0.00  0.00    +0.000 C 
ENDROOT
BRANCH   7  12
ATOM     12  C   UNL     1       7.611   2.654  -1.200  0.00  0.00    +0.000 A 
ATOM     13  C   UNL     1       7.436   2.517  -2.590  0.00  0.00    +0.000 A 
ATOM     14  C   UNL     1       8.300   3.137  -3.495  0.00  0.00    +0.000 A 
ATOM     15  C   UNL     1       9.360   3.910  -3.029  0.00  0.00    +0.000 A 
ATOM     16  C   UNL     1       9.557   4.063  -1.655  0.00  0.00    +0.000 A 
ATOM     17  C   UNL     1       8.688   3.439  -0.750  0.00  0.00    +0.000 A 
BRANCH  16  18
ATOM     18  C   UNL     1      10.648   4.861  -1.173  0.00  0.00    +0.000 C 
ATOM     19  N   UNL     1      11.534   5.509  -0.796  0.00  0.00    +0.000 NA
ENDBRANCH  16  18
ENDBRANCH   7  12
BRANCH   7  20
ATOM     20  O   UNL     1       7.064   2.257   1.126  0.00  0.00    +0.000 OA
ATOM     21  H   UNL     1       6.457   1.824   1.746  0.00  0.00    +0.000 HD
ENDBRANCH   7  20
TORSDOF 3
