REMARK  Name = *****
REMARK  6 active torsions:
REMARK  status: ('A' for Active; 'I' for Inactive)
REMARK    1  A    between atoms: C_1  and  C_2
REMARK    2  A    between atoms: C_3  and  C_21
REMARK    3  A    between atoms: C_8  and  C_10
REMARK    4  A    between atoms: C_8  and  C_11
REMARK    5  A    between atoms: C_17  and  C_20
REMARK    6  A    between atoms: C_18  and  O_19
REMARK                            x       y       z     vdW  Elec       q    Type
REMARK                         _______ _______ _______ _____ _____    ______ ____
ROOT
ATOM      1  C   UNL     1       1.027   0.002  -0.271  0.00  0.00    +0.000 C 
ATOM      2  C   UNL     1       2.527  -0.046  -0.120  0.00  0.00    +0.000 A 
ATOM      3  C   UNL     1       3.273   1.135   0.077  0.00  0.00    +0.000 A 
ATOM      4  C   UNL     1       4.678   1.057   0.170  0.00  0.00    +0.000 A 
ATOM      5  C   UNL     1       5.346  -0.179   0.122  0.00  0.00    +0.000 A 
ATOM      6  C   UNL     1       6.848  -0.217   0.210  0.00  0.00    +0.000 C 
ATOM      7  C   UNL     1       7.463   1.134  -0.108  0.00  0.00    +0.000 C 
ATOM      8  C   UNL     1       6.730   2.261   0.631  0.00  0.00    +0.000 C 
ATOM      9  O   UNL     1       5.332   2.257   0.288  0.00  0.00    +0.000 OA
ATOM     10  C   UNL     1       6.822   2.142   2.166  0.00  0.00    +0.000 C 
ATOM     11  C   UNL     1       4.594  -1.373   0.031  0.00  0.00    +0.000 A 
ATOM     12  C   UNL     1       3.199  -1.279  -0.129  0.00  0.00    +0.000 A 
ATOM     13  C   UNL     1       5.274  -2.718   0.064  0.00  0.00    +0.000 C 
ATOM     14  C   UNL     1       2.590   2.481   0.126  0.00  0.00    +0.000 C 
ENDROOT
BRANCH   8  15
ATOM     15  C   UNL     1       7.337   3.603   0.173  0.00  0.00    +0.000 A 
ATOM     16  C   UNL     1       6.644   4.456  -0.705  0.00  0.00    +0.000 A 
ATOM     17  C   UNL     1       7.204   5.662  -1.134  0.00  0.00    +0.000 A 
ATOM     18  C   UNL     1       8.471   6.038  -0.699  0.00  0.00    +0.000 A 
ATOM     19  C   UNL     1       9.182   5.205   0.161  0.00  0.00    +0.000 A 
ATOM     20  C   UNL     1       8.623   3.998   0.589  0.00  0.00    +0.000 A 
ENDBRANCH   8  15
BRANCH  12  21
ATOM     21  O   UNL     1       2.435  -2.405  -0.303  0.00  0.00    +0.000 OA
ATOM     22  H   UNL     1       1.507  -2.329  -0.408  0.00  0.00    +0.000 HD
ENDBRANCH  12  21
TORSDOF 2
