REMARK  Name = *****
REMARK  4 active torsions:
REMARK  status: ('A' for Active; 'I' for Inactive)
REMARK    1  A    between atoms: C_1  and  C_2
REMARK    2  A    between atoms: C_3  and  C_11
REMARK    3  A    between atoms: C_11  and  O_13
REMARK    4  A    between atoms: O_13  and  C_14
REMARK                            x       y       z     vdW  Elec       q    Type
REMARK                         _______ _______ _______ _____ _____    ______ ____
ROOT
ATOM      1  C   UNL     1       2.547  -1.370  -0.083  0.00  0.00    +0.000 C 
ATOM      2  C   UNL     1       1.437  -0.385  -0.136  0.00  0.00    +0.000 A 
ATOM      3  C   UNL     1       1.536   0.953  -0.509  0.00  0.00    +0.000 A 
ATOM      4  O   UNL     1       0.304   1.546  -0.435  0.00  0.00    +0.000 OA
ATOM      5  C   UNL     1      -0.582   0.604  -0.023  0.00  0.00    +0.000 A 
ATOM      6  C   UNL     1      -1.945   0.813   0.174  0.00  0.00    +0.000 A 
ATOM      7  C   UNL     1      -2.691  -0.290   0.601  0.00  0.00    +0.000 A 
ATOM      8  C   UNL     1      -2.085  -1.530   0.816  0.00  0.00    +0.000 A 
ATOM      9  C   UNL     1      -0.709  -1.707   0.609  0.00  0.00    +0.000 A 
ATOM     10  C   UNL     1       0.061  -0.610   0.178  0.00  0.00    +0.000 A 
ENDROOT
BRANCH   3  11
ATOM     11  C   UNL     1       2.679   1.737  -0.929  0.00  0.00    +0.000 C 
ATOM     12  O   UNL     1       3.832   1.321  -0.988  0.00  0.00    +0.000 OA
BRANCH  11  13
ATOM     13  O   UNL     1       2.272   3.035  -1.226  0.00  0.00    +0.000 OA
BRANCH  13  14
ATOM     14  C   UNL     1       3.292   3.827  -1.756  0.00  0.00    +0.000 A 
ATOM     15  C   UNL     1       3.798   4.869  -0.981  0.00  0.00    +0.000 A 
ATOM     16  C   UNL     1       4.788   5.695  -1.516  0.00  0.00    +0.000 A 
ATOM     17  C   UNL     1       5.253   5.485  -2.819  0.00  0.00    +0.000 A 
ATOM     18  C   UNL     1       4.724   4.451  -3.595  0.00  0.00    +0.000 A 
ATOM     19  C   UNL     1       3.739   3.629  -3.061  0.00  0.00    +0.000 A 
ATOM     20  F   UNL     1       3.215   2.651  -3.814  0.00  0.00    +0.000 F 
ENDBRANCH  13  14
ENDBRANCH  11  13
ENDBRANCH   3  11
TORSDOF 3
