REMARK  Name = *****
REMARK  4 active torsions:
REMARK  status: ('A' for Active; 'I' for Inactive)
REMARK    1  A    between atoms: C_1  and  C_2
REMARK    2  A    between atoms: C_10  and  O_12
REMARK    3  A    between atoms: O_12  and  C_13
REMARK    4  A    between atoms: C_13  and  C_14
REMARK                            x       y       z     vdW  Elec       q    Type
REMARK                         _______ _______ _______ _____ _____    ______ ____
ROOT
ATOM      1  C   UNL     1       0.962  -0.057   0.388  0.00  0.00    +0.000 C 
ATOM      2  C   UNL     1       2.442  -0.139   0.150  0.00  0.00    +0.000 C 
ATOM      3  C   UNL     1       3.081  -1.324   0.141  0.00  0.00    +0.000 C 
ATOM      4  C   UNL     1       4.554  -1.461  -0.102  0.00  0.00    +0.000 C 
ATOM      5  C   UNL     1       5.337  -0.210   0.295  0.00  0.00    +0.000 C 
ATOM      6  C   UNL     1       4.626   1.066  -0.084  0.00  0.00    +0.000 A 
ATOM      7  C   UNL     1       3.216   1.100  -0.118  0.00  0.00    +0.000 A 
ATOM      8  C   UNL     1       2.592   2.321  -0.406  0.00  0.00    +0.000 A 
ATOM      9  C   UNL     1       3.346   3.472  -0.654  0.00  0.00    +0.000 A 
ATOM     10  C   UNL     1       4.739   3.437  -0.614  0.00  0.00    +0.000 A 
ATOM     11  C   UNL     1       5.377   2.234  -0.319  0.00  0.00    +0.000 A 
ENDROOT
BRANCH  10  12
ATOM     12  O   UNL     1       5.347   4.634  -0.870  0.00  0.00    +0.000 OA
BRANCH  12  13
ATOM     13  C   UNL     1       6.771   4.649  -0.886  0.00  0.00    +0.000 C 
BRANCH  13  14
ATOM     14  C   UNL     1       7.223   6.046  -1.232  0.00  0.00    +0.000 A 
ATOM     15  C   UNL     1       7.385   7.011  -0.228  0.00  0.00    +0.000 A 
ATOM     16  C   UNL     1       7.789   8.308  -0.551  0.00  0.00    +0.000 A 
ATOM     17  C   UNL     1       8.026   8.655  -1.880  0.00  0.00    +0.000 A 
ATOM     18  C   UNL     1       7.853   7.708  -2.888  0.00  0.00    +0.000 A 
ATOM     19  C   UNL     1       7.449   6.411  -2.567  0.00  0.00    +0.000 A 
ENDBRANCH  13  14
ENDBRANCH  12  13
ENDBRANCH  10  12
TORSDOF 3
