REMARK  Name = *****
REMARK  1 active torsions:
REMARK  status: ('A' for Active; 'I' for Inactive)
REMARK    1  A    between atoms: C_3  and  C_11
REMARK                            x       y       z     vdW  Elec       q    Type
REMARK                         _______ _______ _______ _____ _____    ______ ____
ROOT
ATOM      1  C   UNL     1      -1.210   1.663   0.103  0.00  0.00    +0.000 C 
ATOM      2  C   UNL     1      -2.483   0.912  -0.300  0.00  0.00    +0.000 C 
ATOM      3  C   UNL     1      -2.495  -0.455   0.412  0.00  0.00    +0.000 C 
ATOM      4  O   UNL     1      -1.359  -1.259   0.039  0.00  0.00    +0.000 OA
ATOM      5  C   UNL     1      -0.152  -0.621   0.019  0.00  0.00    +0.000 A 
ATOM      6  C   UNL     1       0.971  -1.444  -0.054  0.00  0.00    +0.000 A 
ATOM      7  C   UNL     1       2.249  -0.887  -0.085  0.00  0.00    +0.000 A 
ATOM      8  C   UNL     1       2.403   0.497  -0.048  0.00  0.00    +0.000 A 
ATOM      9  C   UNL     1       1.279   1.322   0.012  0.00  0.00    +0.000 A 
ATOM     10  C   UNL     1      -0.009   0.767   0.031  0.00  0.00    +0.000 A 
ATOM     11  I   UNL     1      -4.194   2.153   0.226  0.00  0.00    +0.000 I 
ENDROOT
BRANCH   3  12
ATOM     12  C   UNL     1      -3.715  -1.304   0.085  0.00  0.00    +0.000 A 
ATOM     13  C   UNL     1      -3.959  -1.752  -1.224  0.00  0.00    +0.000 A 
ATOM     14  C   UNL     1      -5.086  -2.522  -1.514  0.00  0.00    +0.000 A 
ATOM     15  C   UNL     1      -5.981  -2.860  -0.500  0.00  0.00    +0.000 A 
ATOM     16  C   UNL     1      -5.747  -2.431   0.804  0.00  0.00    +0.000 A 
ATOM     17  C   UNL     1      -4.620  -1.661   1.097  0.00  0.00    +0.000 A 
ENDBRANCH   3  12
TORSDOF 1
