REMARK  Name = *****
REMARK  3 active torsions:
REMARK  status: ('A' for Active; 'I' for Inactive)
REMARK    1  A    between atoms: C_1  and  C_2
REMARK    2  A    between atoms: C_2  and  C_3
REMARK    3  A    between atoms: C_5  and  C_13
REMARK                            x       y       z     vdW  Elec       q    Type
REMARK                         _______ _______ _______ _____ _____    ______ ____
ROOT
ATOM      1  C   UNL     1       2.888  -0.464   1.264  0.00  0.00    +0.000 C 
ATOM      2  C   UNL     1       4.231   0.202   1.591  0.00  0.00    +0.000 C 
ATOM      3  C   UNL     1       4.839  -0.382   2.868  0.00  0.00    +0.000 C 
ATOM      4  O   UNL     1       5.078  -1.790   2.739  0.00  0.00    +0.000 OA
ATOM      5  C   UNL     1       4.121  -2.521   2.087  0.00  0.00    +0.000 A 
ATOM      6  C   UNL     1       4.282  -3.907   2.183  0.00  0.00    +0.000 A 
ATOM      7  C   UNL     1       3.347  -4.766   1.612  0.00  0.00    +0.000 A 
ATOM      8  C   UNL     1       2.245  -4.238   0.950  0.00  0.00    +0.000 A 
ATOM      9  C   UNL     1       2.091  -2.853   0.843  0.00  0.00    +0.000 A 
ATOM     10  C   UNL     1       3.042  -1.970   1.383  0.00  0.00    +0.000 A 
ENDROOT
BRANCH   3  11
ATOM     11  C   UNL     1       4.103   0.005   4.149  0.00  0.00    +0.000 A 
ATOM     12  C   UNL     1       3.527  -0.946   5.004  0.00  0.00    +0.000 A 
ATOM     13  C   UNL     1       2.862  -0.556   6.169  0.00  0.00    +0.000 A 
ATOM     14  C   UNL     1       2.768   0.792   6.503  0.00  0.00    +0.000 A 
ATOM     15  C   UNL     1       3.344   1.752   5.676  0.00  0.00    +0.000 A 
ATOM     16  C   UNL     1       4.009   1.361   4.511  0.00  0.00    +0.000 A 
ENDBRANCH   3  11
BRANCH   1  18
ATOM     17  C   UNL     1       2.229   1.506  -0.263  0.00  0.00    +0.000 C 
ATOM     18  C   UNL     1       2.373  -0.004  -0.122  0.00  0.00    +0.000 C 
ENDBRANCH   1  18
TORSDOF 2
