REMARK  Name = *****
REMARK  0 active torsions:
REMARK  status: ('A' for Active; 'I' for Inactive)
REMARK                            x       y       z     vdW  Elec       q    Type
REMARK                         _______ _______ _______ _____ _____    ______ ____
ROOT
ATOM      1  C   UNL     1       2.023   1.597  -0.307  0.00  0.00    +0.000 C 
ATOM      2  C   UNL     1       2.498   2.845   0.423  0.00  0.00    +0.000 C 
ATOM      3  C   UNL     1       3.955   3.116   0.056  0.00  0.00    +0.000 C 
ATOM      4  C   UNL     1       4.493   4.372   0.677  0.00  0.00    +0.000 A 
ATOM      5  C   UNL     1       4.435   4.823   1.988  0.00  0.00    +0.000 A 
ATOM      6  C   UNL     1       5.051   6.037   2.302  0.00  0.00    +0.000 A 
ATOM      7  C   UNL     1       5.721   6.773   1.313  0.00  0.00    +0.000 A 
ATOM      8  C   UNL     1       5.786   6.305  -0.000  0.00  0.00    +0.000 A 
ATOM      9  C   UNL     1       5.160   5.106  -0.297  0.00  0.00    +0.000 A 
ATOM     10  C   UNL     1       5.097   4.367  -1.582  0.00  0.00    +0.000 C 
ATOM     11  O   UNL     1       4.052   3.397  -1.368  0.00  0.00    +0.000 OA
ATOM     12  O   UNL     1       4.824   2.045   0.441  0.00  0.00    +0.000 OA
ATOM     13  C   UNL     1       4.364   0.787   0.162  0.00  0.00    +0.000 A 
ATOM     14  C   UNL     1       5.301  -0.242   0.276  0.00  0.00    +0.000 A 
ATOM     15  C   UNL     1       4.929  -1.560   0.013  0.00  0.00    +0.000 A 
ATOM     16  C   UNL     1       3.619  -1.851  -0.359  0.00  0.00    +0.000 A 
ATOM     17  C   UNL     1       2.678  -0.825  -0.460  0.00  0.00    +0.000 A 
ATOM     18  C   UNL     1       3.040   0.501  -0.186  0.00  0.00    +0.000 A 
ENDROOT
TORSDOF 0
