REMARK  Name = *****
REMARK  3 active torsions:
REMARK  status: ('A' for Active; 'I' for Inactive)
REMARK    1  A    between atoms: C_1  and  O_2
REMARK    2  A    between atoms: O_2  and  C_3
REMARK    3  A    between atoms: C_3  and  C_14
REMARK                            x       y       z     vdW  Elec       q    Type
REMARK                         _______ _______ _______ _____ _____    ______ ____
ROOT
ATOM      1  C   UNL     1       2.894  -1.144   0.881  0.00  0.00    +0.000 C 
ATOM      2  C   UNL     1       2.719  -0.713   2.324  0.00  0.00    +0.000 C 
ATOM      3  C   UNL     1       1.990  -1.426   3.199  0.00  0.00    +0.000 C 
ATOM      4  C   UNL     1       1.199  -2.638   2.755  0.00  0.00    +0.000 C 
ATOM      5  C   UNL     1      -0.223  -2.562   3.346  0.00  0.00    +0.000 C 
ATOM      6  C   UNL     1      -1.066  -3.789   2.992  0.00  0.00    +0.000 C 
ATOM      7  C   UNL     1      -0.373  -5.084   3.398  0.00  0.00    +0.000 C 
ATOM      8  C   UNL     1       1.033  -5.177   2.815  0.00  0.00    +0.000 C 
ATOM      9  C   UNL     1       1.875  -3.954   3.179  0.00  0.00    +0.000 C 
ATOM     10  O   UNL     1       1.039  -2.578   1.320  0.00  0.00    +0.000 OA
ATOM     11  O   UNL     1       2.372  -2.483   0.694  0.00  0.00    +0.000 OA
ENDROOT
BRANCH   1  12
ATOM     12  C   UNL     1       4.406  -1.226   0.574  0.00  0.00    +0.000 A 
ATOM     13  C   UNL     1       5.085  -0.163  -0.059  0.00  0.00    +0.000 A 
ATOM     14  C   UNL     1       6.459  -0.230  -0.307  0.00  0.00    +0.000 A 
ATOM     15  C   UNL     1       7.172  -1.355   0.083  0.00  0.00    +0.000 A 
ATOM     16  C   UNL     1       6.539  -2.414   0.719  0.00  0.00    +0.000 A 
ATOM     17  C   UNL     1       5.165  -2.349   0.966  0.00  0.00    +0.000 A 
ATOM     18  F   UNL     1       8.489  -1.417  -0.152  0.00  0.00    +0.000 F 
ENDBRANCH   1  12
BRANCH   1  20
ATOM     19  C   UNL     1       0.931  -0.165  -0.135  0.00  0.00    +0.000 C 
ATOM     20  O   UNL     1       2.340  -0.156   0.004  0.00  0.00    +0.000 OA
ENDBRANCH   1  20
TORSDOF 2
