REMARK  Name = *****
REMARK  4 active torsions:
REMARK  status: ('A' for Active; 'I' for Inactive)
REMARK    1  A    between atoms: C_1  and  C_2
REMARK    2  A    between atoms: C_7  and  O_10
REMARK    3  A    between atoms: O_10  and  C_11
REMARK    4  A    between atoms: C_11  and  C_12
REMARK                            x       y       z     vdW  Elec       q    Type
REMARK                         _______ _______ _______ _____ _____    ______ ____
ROOT
ATOM      1  C   UNL     1       0.718   0.006  -0.367  0.00  0.00    +0.000 C 
ATOM      2  C   UNL     1       2.199  -0.061  -0.156  0.00  0.00    +0.000 A 
ATOM      3  C   UNL     1       2.870  -1.219  -0.077  0.00  0.00    +0.000 A 
ATOM      4  C   UNL     1       4.308  -1.222   0.131  0.00  0.00    +0.000 A 
ATOM      5  C   UNL     1       4.976  -0.008   0.245  0.00  0.00    +0.000 A 
ATOM      6  C   UNL     1       6.356   0.065   0.447  0.00  0.00    +0.000 A 
ATOM      7  C   UNL     1       7.089  -1.116   0.539  0.00  0.00    +0.000 A 
ATOM      8  C   UNL     1       6.428  -2.344   0.424  0.00  0.00    +0.000 A 
ATOM      9  C   UNL     1       5.044  -2.402   0.221  0.00  0.00    +0.000 A 
ATOM     10  O   UNL     1       4.274   1.210   0.160  0.00  0.00    +0.000 OA
ATOM     11  C   UNL     1       2.898   1.245  -0.037  0.00  0.00    +0.000 A 
ATOM     12  O   UNL     1       2.291   2.309  -0.108  0.00  0.00    +0.000 OA
ENDROOT
BRANCH   7  13
ATOM     13  O   UNL     1       8.438  -1.214   0.738  0.00  0.00    +0.000 OA
BRANCH  13  14
ATOM     14  C   UNL     1       9.166   0.005   0.888  0.00  0.00    +0.000 C 
BRANCH  14  15
ATOM     15  C   UNL     1      10.628  -0.317   1.091  0.00  0.00    +0.000 A 
ATOM     16  C   UNL     1      11.314  -1.120   0.168  0.00  0.00    +0.000 A 
ATOM     17  C   UNL     1      12.670  -1.400   0.339  0.00  0.00    +0.000 A 
ATOM     18  C   UNL     1      13.357  -0.876   1.432  0.00  0.00    +0.000 A 
ATOM     19  C   UNL     1      12.689  -0.072   2.353  0.00  0.00    +0.000 A 
ATOM     20  C   UNL     1      11.332   0.209   2.184  0.00  0.00    +0.000 A 
ENDBRANCH  14  15
ENDBRANCH  13  14
ENDBRANCH   7  13
TORSDOF 3
