REMARK  Name = *****
REMARK  6 active torsions:
REMARK  status: ('A' for Active; 'I' for Inactive)
REMARK    1  A    between atoms: C_1  and  C_2
REMARK    2  A    between atoms: C_5  and  C_8
REMARK    3  A    between atoms: C_8  and  C_9
REMARK    4  A    between atoms: C_8  and  C_11
REMARK    5  A    between atoms: C_11  and  C_13
REMARK    6  A    between atoms: C_16  and  C_19
REMARK                            x       y       z     vdW  Elec       q    Type
REMARK                         _______ _______ _______ _____ _____    ______ ____
ROOT
ATOM      1  C   UNL     1      -3.257   0.107  -0.060  0.00  0.00    +0.000 C 
ENDROOT
BRANCH   1   6
ATOM      2  C   UNL     1       2.449  -0.745   0.998  0.00  0.00    +0.000 C 
ATOM      3  C   UNL     1       0.987  -0.512   0.757  0.00  0.00    +0.000 A 
ATOM      4  C   UNL     1       0.032  -1.387   1.281  0.00  0.00    +0.000 A 
ATOM      5  C   UNL     1      -1.329  -1.188   1.031  0.00  0.00    +0.000 A 
ATOM      6  C   UNL     1      -1.774  -0.103   0.254  0.00  0.00    +0.000 A 
ATOM      7  C   UNL     1      -0.799   0.744  -0.303  0.00  0.00    +0.000 A 
ATOM      8  C   UNL     1       0.562   0.545  -0.051  0.00  0.00    +0.000 A 
ENDBRANCH   1   6
BRANCH   1   9
ATOM      9  C   UNL     1      -3.647   1.583  -0.252  0.00  0.00    +0.000 C 
ATOM     10  N   UNL     1      -3.892   2.046  -1.446  0.00  0.00    +0.000 NA
ATOM     11  H   UNL     1      -3.835   1.450  -2.227  0.00  0.00    +0.000 HD
BRANCH   9  12
ATOM     12  C   UNL     1      -3.744   2.524   0.920  0.00  0.00    +0.000 A 
ATOM     13  C   UNL     1      -3.209   2.238   2.180  0.00  0.00    +0.000 A 
ATOM     14  C   UNL     1      -3.331   3.159   3.228  0.00  0.00    +0.000 A 
ATOM     15  C   UNL     1      -3.994   4.375   3.037  0.00  0.00    +0.000 A 
ATOM     16  C   UNL     1      -4.509   4.673   1.773  0.00  0.00    +0.000 A 
ATOM     17  C   UNL     1      -4.388   3.755   0.726  0.00  0.00    +0.000 A 
ATOM     18  C   UNL     1      -4.092   5.372   4.154  0.00  0.00    +0.000 C 
ENDBRANCH   9  12
ENDBRANCH   1   9
BRANCH   1  19
ATOM     19  C   UNL     1      -4.206  -0.532   0.876  0.00  0.00    +0.000 C 
ATOM     20  N   UNL     1      -4.940  -1.055   1.609  0.00  0.00    +0.000 NA
ENDBRANCH   1  19
TORSDOF 4
