REMARK  Name = *****
REMARK  1 active torsions:
REMARK  status: ('A' for Active; 'I' for Inactive)
REMARK    1  A    between atoms: C_2  and  C_12
REMARK                            x       y       z     vdW  Elec       q    Type
REMARK                         _______ _______ _______ _____ _____    ______ ____
ROOT
ATOM      1  C   UNL     1       1.831   0.061   0.091  0.00  0.00    +0.000 C 
ATOM      2  C   UNL     1       2.540  -1.119   0.743  0.00  0.00    +0.000 C 
ATOM      3  O   UNL     1       3.923  -1.168   0.355  0.00  0.00    +0.000 OA
ATOM      4  C   UNL     1       4.596  -0.009   0.635  0.00  0.00    +0.000 A 
ATOM      5  C   UNL     1       5.979  -0.104   0.770  0.00  0.00    +0.000 A 
ATOM      6  C   UNL     1       6.731   1.036   1.061  0.00  0.00    +0.000 A 
ATOM      7  C   UNL     1       6.102   2.274   1.209  0.00  0.00    +0.000 A 
ATOM      8  C   UNL     1       4.719   2.376   1.055  0.00  0.00    +0.000 A 
ATOM      9  C   UNL     1       3.971   1.233   0.761  0.00  0.00    +0.000 A 
ATOM     10  C   UNL     1       2.514   1.322   0.537  0.00  0.00    +0.000 C 
ATOM     11  O   UNL     1       1.921   2.389   0.653  0.00  0.00    +0.000 OA
ENDROOT
BRANCH   2  12
ATOM     12  C   UNL     1       1.875  -2.425   0.347  0.00  0.00    +0.000 A 
ATOM     13  C   UNL     1       2.129  -3.026  -0.896  0.00  0.00    +0.000 A 
ATOM     14  C   UNL     1       1.490  -4.213  -1.256  0.00  0.00    +0.000 A 
ATOM     15  C   UNL     1       0.586  -4.812  -0.382  0.00  0.00    +0.000 A 
ATOM     16  C   UNL     1       0.319  -4.224   0.853  0.00  0.00    +0.000 A 
ATOM     17  C   UNL     1       0.957  -3.037   1.215  0.00  0.00    +0.000 A 
ENDBRANCH   2  12
TORSDOF 1
