REMARK  Name = *****
REMARK  4 active torsions:
REMARK  status: ('A' for Active; 'I' for Inactive)
REMARK    1  A    between atoms: C_1  and  S_2
REMARK    2  A    between atoms: C_4  and  C_13
REMARK    3  A    between atoms: C_13  and  C_14
REMARK    4  A    between atoms: C_13  and  O_21
REMARK                            x       y       z     vdW  Elec       q    Type
REMARK                         _______ _______ _______ _____ _____    ______ ____
ROOT
ATOM      1  C   UNL     1       0.905   0.126   0.270  0.00  0.00    +0.000 C 
ATOM      2  S   UNL     1       2.639   0.213  -0.235  0.00  0.00    +0.000 S 
ATOM      3  C   UNL     1       3.063  -1.541  -0.018  0.00  0.00    +0.000 C 
ATOM      4  C   UNL     1       3.084  -2.017   1.427  0.00  0.00    +0.000 C 
ATOM      5  C   UNL     1       4.179  -1.253   2.145  0.00  0.00    +0.000 C 
ATOM      6  O   UNL     1       5.150  -1.785   2.676  0.00  0.00    +0.000 OA
ATOM      7  C   UNL     1       4.021   0.215   2.233  0.00  0.00    +0.000 A 
ATOM      8  C   UNL     1       4.592   0.876   3.332  0.00  0.00    +0.000 A 
ATOM      9  C   UNL     1       4.449   2.255   3.473  0.00  0.00    +0.000 A 
ATOM     10  C   UNL     1       3.745   2.977   2.514  0.00  0.00    +0.000 A 
ATOM     11  C   UNL     1       3.190   2.321   1.413  0.00  0.00    +0.000 A 
ATOM     12  C   UNL     1       3.319   0.934   1.262  0.00  0.00    +0.000 A 
ENDROOT
BRANCH   4  13
ATOM     13  C   UNL     1       3.328  -3.538   1.527  0.00  0.00    +0.000 C 
BRANCH  13  14
ATOM     14  C   UNL     1       2.975  -4.111   2.891  0.00  0.00    +0.000 A 
ATOM     15  C   UNL     1       1.635  -4.240   3.297  0.00  0.00    +0.000 A 
ATOM     16  C   UNL     1       1.318  -4.763   4.553  0.00  0.00    +0.000 A 
ATOM     17  C   UNL     1       2.338  -5.158   5.415  0.00  0.00    +0.000 A 
ATOM     18  C   UNL     1       3.671  -5.036   5.031  0.00  0.00    +0.000 A 
ATOM     19  C   UNL     1       3.988  -4.515   3.774  0.00  0.00    +0.000 A 
ATOM     20 CL   UNL     1       1.949  -5.800   6.963  0.00  0.00    +0.000 Cl
ENDBRANCH  13  14
BRANCH  13  21
ATOM     21  O   UNL     1       2.537  -4.230   0.552  0.00  0.00    +0.000 OA
ATOM     22  H   UNL     1       1.596  -4.081   0.734  0.00  0.00    +0.000 HD
ENDBRANCH  13  21
ENDBRANCH   4  13
TORSDOF 3
