REMARK  Name = *****
REMARK  3 active torsions:
REMARK  status: ('A' for Active; 'I' for Inactive)
REMARK    1  A    between atoms: C_1  and  O_2
REMARK    2  A    between atoms: O_2  and  C_3
REMARK    3  A    between atoms: C_3  and  C_13
REMARK                            x       y       z     vdW  Elec       q    Type
REMARK                         _______ _______ _______ _____ _____    ______ ____
ROOT
ATOM      1  C   UNL     1       2.919   1.079   0.750  0.00  0.00    +0.000 C 
ATOM      2  N   UNL     1       4.400   1.008   0.912  0.00  0.00    +0.000 NA
ATOM      3  N   UNL     1       4.679   0.910   2.133  0.00  0.00    +0.000 NA
ATOM      4  C   UNL     1       3.417   0.910   2.897  0.00  0.00    +0.000 C 
ATOM      5  O   UNL     1       2.286   0.882   2.026  0.00  0.00    +0.000 OA
ATOM      6  C   UNL     1       3.364   2.183   3.757  0.00  0.00    +0.000 C 
ATOM      7  C   UNL     1       2.162   2.186   4.702  0.00  0.00    +0.000 C 
ATOM      8  C   UNL     1       2.129   0.933   5.572  0.00  0.00    +0.000 C 
ATOM      9  C   UNL     1       2.185  -0.341   4.734  0.00  0.00    +0.000 C 
ATOM     10  C   UNL     1       3.387  -0.339   3.789  0.00  0.00    +0.000 C 
ENDROOT
BRANCH   1  11
ATOM     11  C   UNL     1       2.498   2.461   0.225  0.00  0.00    +0.000 A 
ATOM     12  C   UNL     1       1.249   3.017   0.562  0.00  0.00    +0.000 A 
ATOM     13  C   UNL     1       0.860   4.266   0.071  0.00  0.00    +0.000 A 
ATOM     14  C   UNL     1       1.705   4.975  -0.779  0.00  0.00    +0.000 A 
ATOM     15  C   UNL     1       2.935   4.434  -1.144  0.00  0.00    +0.000 A 
ATOM     16  C   UNL     1       3.326   3.185  -0.653  0.00  0.00    +0.000 A 
ENDBRANCH   1  11
BRANCH   1  18
ATOM     17  C   UNL     1       2.635  -1.190   0.087  0.00  0.00    +0.000 C 
ATOM     18  O   UNL     1       2.354   0.167  -0.205  0.00  0.00    +0.000 OA
ENDBRANCH   1  18
TORSDOF 2
