REMARK  Name = *****
REMARK  4 active torsions:
REMARK  status: ('A' for Active; 'I' for Inactive)
REMARK    1  A    between atoms: C_4  and  C_7
REMARK    2  A    between atoms: C_7  and  O_8
REMARK    3  A    between atoms: O_8  and  C_9
REMARK    4  A    between atoms: N_15  and  N_18
REMARK                            x       y       z     vdW  Elec       q    Type
REMARK                         _______ _______ _______ _____ _____    ______ ____
ROOT
ATOM      1  C   UNL     1      -5.026  -0.803  -0.197  0.00  0.00    +0.000 A 
ATOM      2  C   UNL     1      -5.579  -0.532  -1.456  0.00  0.00    +0.000 A 
ATOM      3  C   UNL     1      -6.965  -0.670  -1.664  0.00  0.00    +0.000 A 
ATOM      4  C   UNL     1      -7.768  -1.089  -0.597  0.00  0.00    +0.000 A 
ATOM      5  C   UNL     1      -7.225  -1.391   0.664  0.00  0.00    +0.000 A 
ATOM      6  C   UNL     1      -5.843  -1.245   0.842  0.00  0.00    +0.000 A 
ATOM      7  N   UNL     1      -9.062  -1.113  -1.072  0.00  0.00    +0.000 N 
ATOM      8  C   UNL     1      -9.107  -0.743  -2.390  0.00  0.00    +0.000 A 
ATOM      9  C   UNL     1      -7.817  -0.464  -2.787  0.00  0.00    +0.000 A 
ENDROOT
BRANCH   7  10
ATOM     10  N   UNL     1     -10.150  -1.463  -0.278  0.00  0.00    +0.000 NA
ATOM     11  O   UNL     1     -11.244  -1.409  -0.852  0.00  0.00    +0.000 OA
ENDBRANCH   7  10
BRANCH   1  12
ATOM     12  O   UNL     1      -3.675  -0.594  -0.119  0.00  0.00    +0.000 OA
BRANCH  12  13
ATOM     13  C   UNL     1      -3.090  -0.607   1.185  0.00  0.00    +0.000 C 
BRANCH  13  17
ATOM     14  C   UNL     1       0.947   0.936   1.117  0.00  0.00    +0.000 A 
ATOM     15  C   UNL     1       0.138   1.127   2.235  0.00  0.00    +0.000 A 
ATOM     16  C   UNL     1      -1.166   0.629   2.248  0.00  0.00    +0.000 A 
ATOM     17  C   UNL     1      -1.681  -0.057   1.137  0.00  0.00    +0.000 A 
ATOM     18  C   UNL     1      -0.849  -0.259   0.026  0.00  0.00    +0.000 A 
ATOM     19  C   UNL     1       0.454   0.242   0.014  0.00  0.00    +0.000 A 
ENDBRANCH  13  17
ENDBRANCH  12  13
ENDBRANCH   1  12
TORSDOF 4
