REMARK  Name = *****
REMARK  2 active torsions:
REMARK  status: ('A' for Active; 'I' for Inactive)
REMARK    1  A    between atoms: C_1  and  C_2
REMARK    2  A    between atoms: C_9  and  C_13
REMARK                            x       y       z     vdW  Elec       q    Type
REMARK                         _______ _______ _______ _____ _____    ______ ____
ROOT
ATOM      1  C   UNL     1       1.098  -0.006  -0.049  0.00  0.00    +0.000 C 
ATOM      2  C   UNL     1       2.598   0.035  -0.026  0.00  0.00    +0.000 A 
ATOM      3  C   UNL     1       3.273   1.257   0.091  0.00  0.00    +0.000 A 
ATOM      4  C   UNL     1       4.670   1.280   0.148  0.00  0.00    +0.000 A 
ATOM      5  C   UNL     1       5.402   0.095   0.086  0.00  0.00    +0.000 A 
ATOM      6  C   UNL     1       4.735  -1.125   0.005  0.00  0.00    +0.000 A 
ATOM      7  C   UNL     1       3.339  -1.155  -0.050  0.00  0.00    +0.000 A 
ATOM      8  O   UNL     1       6.770   0.046   0.131  0.00  0.00    +0.000 OA
ATOM      9  C   UNL     1       7.388   1.271  -0.297  0.00  0.00    +0.000 C 
ATOM     10  C   UNL     1       6.881   2.453   0.518  0.00  0.00    +0.000 C 
ATOM     11  C   UNL     1       5.395   2.554   0.321  0.00  0.00    +0.000 C 
ATOM     12  O   UNL     1       4.797   3.624   0.360  0.00  0.00    +0.000 OA
ENDROOT
BRANCH   9  13
ATOM     13  C   UNL     1       8.894   1.135  -0.156  0.00  0.00    +0.000 A 
ATOM     14  C   UNL     1       9.743   1.696  -1.125  0.00  0.00    +0.000 A 
ATOM     15  C   UNL     1      11.131   1.600  -0.996  0.00  0.00    +0.000 A 
ATOM     16  C   UNL     1      11.681   0.948   0.104  0.00  0.00    +0.000 A 
ATOM     17  C   UNL     1      10.857   0.392   1.079  0.00  0.00    +0.000 A 
ATOM     18  C   UNL     1       9.469   0.488   0.951  0.00  0.00    +0.000 A 
ATOM     19 CL   UNL     1      13.391   0.831   0.262  0.00  0.00    +0.000 Cl
ENDBRANCH   9  13
TORSDOF 1
