REMARK  Name = *****
REMARK  3 active torsions:
REMARK  status: ('A' for Active; 'I' for Inactive)
REMARK    1  A    between atoms: C_1  and  O_2
REMARK    2  A    between atoms: O_2  and  C_3
REMARK    3  A    between atoms: C_6  and  C_9
REMARK                            x       y       z     vdW  Elec       q    Type
REMARK                         _______ _______ _______ _____ _____    ______ ____
ROOT
ATOM      1  C   UNL     1       5.179  -1.222   5.067  0.00  0.00    +0.000 C 
ATOM      2  C   UNL     1       4.748  -0.363   6.254  0.00  0.00    +0.000 C 
ATOM      3  C   UNL     1       5.638  -0.676   7.449  0.00  0.00    +0.000 C 
ATOM      4  C   UNL     1       5.846  -2.158   7.597  0.00  0.00    +0.000 A 
ATOM      5  C   UNL     1       6.355  -2.692   8.792  0.00  0.00    +0.000 A 
ATOM      6  C   UNL     1       6.526  -4.070   8.938  0.00  0.00    +0.000 A 
ATOM      7  C   UNL     1       6.185  -4.928   7.896  0.00  0.00    +0.000 A 
ATOM      8  C   UNL     1       5.680  -4.408   6.705  0.00  0.00    +0.000 A 
ATOM      9  C   UNL     1       5.524  -3.030   6.551  0.00  0.00    +0.000 A 
ATOM     10  O   UNL     1       5.007  -2.619   5.353  0.00  0.00    +0.000 OA
ATOM     11 CL   UNL     1       7.225   0.139   7.274  0.00  0.00    +0.000 Cl
ENDROOT
BRANCH   1  15
ATOM     12  C   UNL     1       2.852  -0.158   1.560  0.00  0.00    +0.000 A 
ATOM     13  C   UNL     1       4.130   0.366   1.748  0.00  0.00    +0.000 A 
ATOM     14  C   UNL     1       4.877   0.014   2.879  0.00  0.00    +0.000 A 
ATOM     15  C   UNL     1       4.360  -0.871   3.836  0.00  0.00    +0.000 A 
ATOM     16  C   UNL     1       3.071  -1.385   3.644  0.00  0.00    +0.000 A 
ATOM     17  C   UNL     1       2.327  -1.031   2.515  0.00  0.00    +0.000 A 
BRANCH  12  19
ATOM     18  C   UNL     1       2.543   0.919  -0.536  0.00  0.00    +0.000 C 
ATOM     19  O   UNL     1       2.022   0.102   0.504  0.00  0.00    +0.000 OA
ENDBRANCH  12  19
ENDBRANCH   1  15
TORSDOF 2
