REMARK  Name = *****
REMARK  3 active torsions:
REMARK  status: ('A' for Active; 'I' for Inactive)
REMARK    1  A    between atoms: C_4  and  O_7
REMARK    2  A    between atoms: O_7  and  C_8
REMARK    3  A    between atoms: C_8  and  C_9
REMARK                            x       y       z     vdW  Elec       q    Type
REMARK                         _______ _______ _______ _____ _____    ______ ____
ROOT
ATOM      1  C   UNL     1      -5.439  -0.299  -0.951  0.00  0.00    +0.000 A 
ATOM      2  N   UNL     1      -6.413  -0.719  -0.169  0.00  0.00    +0.000 NA
ATOM      3  C   UNL     1      -7.606  -0.113  -0.529  0.00  0.00    +0.000 A 
ATOM      4  C   UNL     1      -8.855  -0.314   0.092  0.00  0.00    +0.000 A 
ATOM      5  C   UNL     1      -9.985   0.363  -0.379  0.00  0.00    +0.000 A 
ATOM      6  C   UNL     1      -9.884   1.234  -1.459  0.00  0.00    +0.000 A 
ATOM      7  C   UNL     1      -8.657   1.450  -2.094  0.00  0.00    +0.000 A 
ATOM      8  C   UNL     1      -7.529   0.764  -1.612  0.00  0.00    +0.000 A 
ATOM      9  S   UNL     1      -5.905   0.812  -2.179  0.00  0.00    +0.000 S 
ENDROOT
BRANCH   1  10
ATOM     10  C   UNL     1      -4.016  -0.766  -0.854  0.00  0.00    +0.000 C 
BRANCH  10  11
ATOM     11  O   UNL     1      -3.211   0.367  -0.523  0.00  0.00    +0.000 OA
BRANCH  11  15
ATOM     12  C   UNL     1       0.939   0.057  -0.369  0.00  0.00    +0.000 A 
ATOM     13  C   UNL     1       0.196  -1.110  -0.535  0.00  0.00    +0.000 A 
ATOM     14  C   UNL     1      -1.200  -1.056  -0.591  0.00  0.00    +0.000 A 
ATOM     15  C   UNL     1      -1.858   0.171  -0.484  0.00  0.00    +0.000 A 
ATOM     16  C   UNL     1      -1.106   1.336  -0.311  0.00  0.00    +0.000 A 
ATOM     17  C   UNL     1       0.288   1.282  -0.256  0.00  0.00    +0.000 A 
ENDBRANCH  11  15
ENDBRANCH  10  11
ENDBRANCH   1  10
TORSDOF 3
