REMARK  Name = *****
REMARK  4 active torsions:
REMARK  status: ('A' for Active; 'I' for Inactive)
REMARK    1  A    between atoms: C_1  and  N_2
REMARK    2  A    between atoms: N_2  and  C_3
REMARK    3  A    between atoms: N_2  and  S_9
REMARK    4  A    between atoms: S_9  and  C_12
REMARK                            x       y       z     vdW  Elec       q    Type
REMARK                         _______ _______ _______ _____ _____    ______ ____
ROOT
ATOM      1  S   UNL     1       3.394   1.520  -0.319  0.00  0.00    +0.000 S 
ATOM      2  O   UNL     1       4.833   1.395  -0.367  0.00  0.00    +0.000 OA
ATOM      3  O   UNL     1       2.657   2.210  -1.357  0.00  0.00    +0.000 OA
ENDROOT
BRANCH   1   4
ATOM      4  C   UNL     1       3.043   2.312   1.238  0.00  0.00    +0.000 A 
ATOM      5  C   UNL     1       3.520   1.724   2.417  0.00  0.00    +0.000 A 
ATOM      6  C   UNL     1       3.253   2.335   3.642  0.00  0.00    +0.000 A 
ATOM      7  C   UNL     1       2.522   3.520   3.673  0.00  0.00    +0.000 A 
ATOM      8  C   UNL     1       2.052   4.110   2.502  0.00  0.00    +0.000 A 
ATOM      9  C   UNL     1       2.315   3.507   1.271  0.00  0.00    +0.000 A 
ATOM     10  F   UNL     1       2.266   4.103   4.851  0.00  0.00    +0.000 F 
ENDBRANCH   1   4
BRANCH   1  12
ATOM     11  C   UNL     1       1.196   0.045   0.127  0.00  0.00    +0.000 C 
ATOM     12  N   UNL     1       2.668  -0.037  -0.140  0.00  0.00    +0.000 NA
BRANCH  12  13
ATOM     13  C   UNL     1       2.950  -1.060  -1.236  0.00  0.00    +0.000 C 
ATOM     14  C   UNL     1       2.527  -2.458  -0.726  0.00  0.00    +0.000 C 
ATOM     15  C   UNL     1       2.830  -3.575  -1.720  0.00  0.00    +0.000 C 
ATOM     16  C   UNL     1       4.298  -3.590  -2.114  0.00  0.00    +0.000 C 
ATOM     17  C   UNL     1       4.721  -2.235  -2.660  0.00  0.00    +0.000 C 
ATOM     18  C   UNL     1       4.423  -1.105  -1.675  0.00  0.00    +0.000 C 
ENDBRANCH  12  13
ENDBRANCH   1  12
TORSDOF 3
