REMARK  Name = *****
REMARK  5 active torsions:
REMARK  status: ('A' for Active; 'I' for Inactive)
REMARK    1  A    between atoms: C_1  and  C_2
REMARK    2  A    between atoms: C_3  and  C_20
REMARK    3  A    between atoms: C_10  and  C_12
REMARK    4  A    between atoms: C_15  and  O_18
REMARK    5  A    between atoms: O_18  and  C_19
REMARK                            x       y       z     vdW  Elec       q    Type
REMARK                         _______ _______ _______ _____ _____    ______ ____
ROOT
ATOM      1  C   UNL     1       0.925   0.208   0.148  0.00  0.00    +0.000 C 
ATOM      2  C   UNL     1       2.424   0.091   0.085  0.00  0.00    +0.000 A 
ATOM      3  C   UNL     1       3.251   1.210  -0.156  0.00  0.00    +0.000 A 
ATOM      4  C   UNL     1       4.656   1.045  -0.164  0.00  0.00    +0.000 A 
ATOM      5  C   UNL     1       5.228  -0.229  -0.014  0.00  0.00    +0.000 A 
ATOM      6  C   UNL     1       4.392  -1.330   0.197  0.00  0.00    +0.000 A 
ATOM      7  C   UNL     1       3.008  -1.171   0.250  0.00  0.00    +0.000 A 
ATOM      8  S   UNL     1       6.983  -0.553  -0.090  0.00  0.00    +0.000 S 
ATOM      9  C   UNL     1       7.537   1.082  -0.646  0.00  0.00    +0.000 C 
ATOM     10  C   UNL     1       6.745   2.156   0.094  0.00  0.00    +0.000 C 
ATOM     11  O   UNL     1       5.385   2.195  -0.359  0.00  0.00    +0.000 OA
ATOM     12  C   UNL     1       2.659   2.588  -0.327  0.00  0.00    +0.000 C 
ENDROOT
BRANCH  10  13
ATOM     13  C   UNL     1       7.369   3.521  -0.165  0.00  0.00    +0.000 A 
ATOM     14  C   UNL     1       7.078   4.254  -1.327  0.00  0.00    +0.000 A 
ATOM     15  C   UNL     1       7.685   5.492  -1.566  0.00  0.00    +0.000 A 
ATOM     16  C   UNL     1       8.598   6.015  -0.652  0.00  0.00    +0.000 A 
ATOM     17  C   UNL     1       8.896   5.289   0.503  0.00  0.00    +0.000 A 
ATOM     18  C   UNL     1       8.291   4.053   0.746  0.00  0.00    +0.000 A 
BRANCH  16  19
ATOM     19  O   UNL     1       9.261   7.206  -0.766  0.00  0.00    +0.000 OA
ATOM     20  C   UNL     1       8.988   7.984  -1.924  0.00  0.00    +0.000 C 
ENDBRANCH  16  19
ENDBRANCH  10  13
TORSDOF 2
