REMARK  Name = *****
REMARK  4 active torsions:
REMARK  status: ('A' for Active; 'I' for Inactive)
REMARK    1  A    between atoms: C_1  and  C_2
REMARK    2  A    between atoms: C_3  and  C_12
REMARK    3  A    between atoms: C_3  and  O_18
REMARK    4  A    between atoms: O_18  and  C_19
REMARK                            x       y       z     vdW  Elec       q    Type
REMARK                         _______ _______ _______ _____ _____    ______ ____
ROOT
ATOM      1  C   UNL     1       1.030   0.525  -0.187  0.00  0.00    +0.000 C 
ATOM      2  C   UNL     1       2.544   0.345  -0.089  0.00  0.00    +0.000 C 
ATOM      3  C   UNL     1       3.000  -0.790   0.882  0.00  0.00    +0.000 C 
ATOM      4  O   UNL     1       4.439  -0.920   0.832  0.00  0.00    +0.000 OA
ATOM      5  C   UNL     1       5.101   0.276   0.753  0.00  0.00    +0.000 A 
ATOM      6  C   UNL     1       6.476   0.235   0.984  0.00  0.00    +0.000 A 
ATOM      7  C   UNL     1       7.226   1.411   0.951  0.00  0.00    +0.000 A 
ATOM      8  C   UNL     1       6.601   2.630   0.685  0.00  0.00    +0.000 A 
ATOM      9  C   UNL     1       5.227   2.671   0.444  0.00  0.00    +0.000 A 
ATOM     10  C   UNL     1       4.481   1.493   0.463  0.00  0.00    +0.000 A 
ATOM     11  O   UNL     1       3.141   1.617   0.207  0.00  0.00    +0.000 OA
ENDROOT
BRANCH   3  12
ATOM     12  C   UNL     1       2.633  -0.675   2.374  0.00  0.00    +0.000 A 
ATOM     13  C   UNL     1       2.229   0.520   2.993  0.00  0.00    +0.000 A 
ATOM     14  C   UNL     1       1.941   0.567   4.362  0.00  0.00    +0.000 A 
ATOM     15  C   UNL     1       2.062  -0.576   5.146  0.00  0.00    +0.000 A 
ATOM     16  C   UNL     1       2.478  -1.768   4.564  0.00  0.00    +0.000 A 
ATOM     17  C   UNL     1       2.765  -1.814   3.198  0.00  0.00    +0.000 A 
ENDBRANCH   3  12
BRANCH   3  18
ATOM     18  O   UNL     1       2.365  -2.023   0.446  0.00  0.00    +0.000 OA
ATOM     19  C   UNL     1       3.015  -2.683  -0.629  0.00  0.00    +0.000 C 
ENDBRANCH   3  18
TORSDOF 2
