REMARK  Name = *****
REMARK  1 active torsions:
REMARK  status: ('A' for Active; 'I' for Inactive)
REMARK    1  A    between atoms: C_13  and  C_14
REMARK                            x       y       z     vdW  Elec       q    Type
REMARK                         _______ _______ _______ _____ _____    ______ ____
ROOT
ATOM      1  C   UNL     1      -2.276  -1.259   1.096  0.00  0.00    +0.000 C 
ATOM      2  C   UNL     1      -2.324   0.248   0.857  0.00  0.00    +0.000 C 
ATOM      3  C   UNL     1      -1.807   0.465  -0.577  0.00  0.00    +0.000 C 
ATOM      4  C   UNL     1      -0.891  -0.732  -0.837  0.00  0.00    +0.000 C 
ATOM      5  C   UNL     1      -1.669  -1.870  -0.164  0.00  0.00    +0.000 C 
ATOM      6  C   UNL     1       0.492  -0.497  -0.285  0.00  0.00    +0.000 A 
ATOM      7  C   UNL     1       1.424  -1.545  -0.221  0.00  0.00    +0.000 A 
ATOM      8  C   UNL     1       2.704  -1.334   0.298  0.00  0.00    +0.000 A 
ATOM      9  C   UNL     1       3.070  -0.071   0.753  0.00  0.00    +0.000 A 
ATOM     10  C   UNL     1       2.163   0.983   0.671  0.00  0.00    +0.000 A 
ATOM     11  C   UNL     1       0.889   0.776   0.136  0.00  0.00    +0.000 A 
ATOM     12  O   UNL     1       0.096   1.891   0.066  0.00  0.00    +0.000 OA
ATOM     13  C   UNL     1      -1.074   1.799  -0.766  0.00  0.00    +0.000 C 
ENDROOT
BRANCH  13  14
ATOM     14  C   UNL     1      -0.801   2.164  -2.228  0.00  0.00    +0.000 A 
ATOM     15  C   UNL     1       0.477   2.525  -2.683  0.00  0.00    +0.000 A 
ATOM     16  C   UNL     1       0.699   2.866  -4.020  0.00  0.00    +0.000 A 
ATOM     17  C   UNL     1      -0.357   2.864  -4.926  0.00  0.00    +0.000 A 
ATOM     18  C   UNL     1      -1.637   2.531  -4.494  0.00  0.00    +0.000 A 
ATOM     19  C   UNL     1      -1.859   2.192  -3.156  0.00  0.00    +0.000 A 
ENDBRANCH  13  14
TORSDOF 1
