REMARK  Name = *****
REMARK  5 active torsions:
REMARK  status: ('A' for Active; 'I' for Inactive)
REMARK    1  A    between atoms: C_1  and  C_2
REMARK    2  A    between atoms: C_3  and  C_20
REMARK    3  A    between atoms: C_8  and  C_10
REMARK    4  A    between atoms: C_16  and  C_19
REMARK    5  A    between atoms: C_17  and  O_18
REMARK                            x       y       z     vdW  Elec       q    Type
REMARK                         _______ _______ _______ _____ _____    ______ ____
ROOT
ATOM      1  C   UNL     1       1.020   0.022   0.196  0.00  0.00    +0.000 C 
ATOM      2  C   UNL     1       2.527  -0.010   0.169  0.00  0.00    +0.000 A 
ATOM      3  C   UNL     1       3.277   1.181   0.075  0.00  0.00    +0.000 A 
ATOM      4  C   UNL     1       4.685   1.109   0.071  0.00  0.00    +0.000 A 
ATOM      5  C   UNL     1       5.357  -0.129   0.087  0.00  0.00    +0.000 A 
ATOM      6  C   UNL     1       6.865  -0.161   0.029  0.00  0.00    +0.000 C 
ATOM      7  C   UNL     1       7.450   1.176  -0.394  0.00  0.00    +0.000 C 
ATOM      8  C   UNL     1       6.733   2.273   0.379  0.00  0.00    +0.000 C 
ATOM      9  O   UNL     1       5.348   2.311   0.017  0.00  0.00    +0.000 OA
ATOM     10  C   UNL     1       4.610  -1.325   0.181  0.00  0.00    +0.000 A 
ATOM     11  C   UNL     1       3.205  -1.241   0.180  0.00  0.00    +0.000 A 
ATOM     12  C   UNL     1       5.299  -2.664   0.250  0.00  0.00    +0.000 C 
ATOM     13  C   UNL     1       2.590   2.524   0.034  0.00  0.00    +0.000 C 
ENDROOT
BRANCH   8  14
ATOM     14  C   UNL     1       7.360   3.626   0.090  0.00  0.00    +0.000 A 
ATOM     15  C   UNL     1       7.020   4.360  -1.057  0.00  0.00    +0.000 A 
ATOM     16  C   UNL     1       7.624   5.590  -1.321  0.00  0.00    +0.000 A 
ATOM     17  C   UNL     1       8.580   6.100  -0.445  0.00  0.00    +0.000 A 
ATOM     18  C   UNL     1       8.933   5.380   0.694  0.00  0.00    +0.000 A 
ATOM     19  C   UNL     1       8.329   4.150   0.960  0.00  0.00    +0.000 A 
ENDBRANCH   8  14
BRANCH  11  20
ATOM     20  O   UNL     1       2.434  -2.376   0.181  0.00  0.00    +0.000 OA
ATOM     21  H   UNL     1       1.500  -2.307   0.179  0.00  0.00    +0.000 HD
ENDBRANCH  11  20
TORSDOF 2
