REMARK  Name = *****
REMARK  3 active torsions:
REMARK  status: ('A' for Active; 'I' for Inactive)
REMARK    1  A    between atoms: C_2  and  C_3
REMARK    2  A    between atoms: C_2  and  O_8
REMARK    3  A    between atoms: O_8  and  C_9
REMARK                            x       y       z     vdW  Elec       q    Type
REMARK                         _______ _______ _______ _____ _____    ______ ____
ROOT
ATOM      1  C   UNL     1       4.384   0.625   0.526  0.00  0.00    +0.000 A 
ATOM      2  C   UNL     1       5.057   0.677  -0.630  0.00  0.00    +0.000 A 
ATOM      3  C   UNL     1       6.499   0.956  -0.629  0.00  0.00    +0.000 A 
ATOM      4  O   UNL     1       7.135   0.999  -1.674  0.00  0.00    +0.000 OA
ATOM      5  C   UNL     1       7.122   1.175   0.683  0.00  0.00    +0.000 A 
ATOM      6  C   UNL     1       8.489   1.444   0.793  0.00  0.00    +0.000 A 
ATOM      7  C   UNL     1       9.049   1.648   2.055  0.00  0.00    +0.000 A 
ATOM      8  C   UNL     1       8.246   1.584   3.195  0.00  0.00    +0.000 A 
ATOM      9  C   UNL     1       6.880   1.314   3.078  0.00  0.00    +0.000 A 
ATOM     10  C   UNL     1       6.319   1.109   1.817  0.00  0.00    +0.000 A 
ATOM     11  O   UNL     1       4.974   0.847   1.765  0.00  0.00    +0.000 OA
ENDROOT
BRANCH   1  12
ATOM     12  O   UNL     1       3.012   0.371   0.460  0.00  0.00    +0.000 OA
BRANCH  12  14
ATOM     13  C   UNL     1       2.637  -1.052   2.327  0.00  0.00    +0.000 C 
ATOM     14  C   UNL     1       2.311   0.041   1.618  0.00  0.00    +0.000 C 
BRANCH  14  15
ATOM     15  C   UNL     1       1.189   0.903   1.896  0.00  0.00    +0.000 A 
ATOM     16  C   UNL     1       0.941   2.072   1.198  0.00  0.00    +0.000 A 
ATOM     17  S   UNL     1      -0.457   2.893   1.746  0.00  0.00    +0.000 S 
ATOM     18  C   UNL     1      -0.757   1.699   2.928  0.00  0.00    +0.000 A 
ATOM     19  C   UNL     1       0.190   0.698   2.904  0.00  0.00    +0.000 A 
ENDBRANCH  14  15
ENDBRANCH  12  14
ENDBRANCH   1  12
TORSDOF 3
