REMARK  Name = *****
REMARK  1 active torsions:
REMARK  status: ('A' for Active; 'I' for Inactive)
REMARK    1  A    between atoms: C_2  and  C_13
REMARK                            x       y       z     vdW  Elec       q    Type
REMARK                         _______ _______ _______ _____ _____    ______ ____
ROOT
ATOM      1  C   UNL     1      -2.466   0.573  -0.427  0.00  0.00    +0.000 C 
ATOM      2  C   UNL     1      -2.216  -0.607   0.506  0.00  0.00    +0.000 C 
ATOM      3  O   UNL     1      -1.039  -1.333   0.093  0.00  0.00    +0.000 OA
ATOM      4  C   UNL     1       0.082  -0.558  -0.044  0.00  0.00    +0.000 A 
ATOM      5  C   UNL     1       0.045   0.819  -0.273  0.00  0.00    +0.000 A 
ATOM      6  C   UNL     1      -1.265   1.476  -0.431  0.00  0.00    +0.000 C 
ATOM      7  O   UNL     1      -1.352   2.685  -0.617  0.00  0.00    +0.000 OA
ATOM      8  C   UNL     1       1.230   1.554  -0.388  0.00  0.00    +0.000 A 
ATOM      9  C   UNL     1       2.457   0.898  -0.288  0.00  0.00    +0.000 A 
ATOM     10  C   UNL     1       2.484  -0.479  -0.082  0.00  0.00    +0.000 A 
ATOM     11  C   UNL     1       1.308  -1.214   0.036  0.00  0.00    +0.000 A 
ATOM     12  F   UNL     1       3.663  -1.108   0.004  0.00  0.00    +0.000 F 
ENDROOT
BRANCH   2  13
ATOM     13  C   UNL     1      -2.188  -0.353   2.013  0.00  0.00    +0.000 A 
ATOM     14  C   UNL     1      -2.492   0.891   2.591  0.00  0.00    +0.000 A 
ATOM     15  C   UNL     1      -2.462   1.059   3.979  0.00  0.00    +0.000 A 
ATOM     16  C   UNL     1      -2.137  -0.014   4.797  0.00  0.00    +0.000 A 
ATOM     17  C   UNL     1      -1.843  -1.257   4.256  0.00  0.00    +0.000 A 
ATOM     18  C   UNL     1      -1.873  -1.426   2.871  0.00  0.00    +0.000 A 
ATOM     19  F   UNL     1      -2.111   0.152   6.126  0.00  0.00    +0.000 F 
ENDBRANCH   2  13
TORSDOF 1
