REMARK  Name = *****
REMARK  3 active torsions:
REMARK  status: ('A' for Active; 'I' for Inactive)
REMARK    1  A    between atoms: C_1  and  N_2
REMARK    2  A    between atoms: C_6  and  S_13
REMARK    3  A    between atoms: S_13  and  C_14
REMARK                            x       y       z     vdW  Elec       q    Type
REMARK                         _______ _______ _______ _____ _____    ______ ____
ROOT
ATOM      1  C   UNL     1      -1.306  -2.289  -0.180  0.00  0.00    +0.000 C 
ATOM      2  N   UNL     1      -0.989  -0.874  -0.065  0.00  0.00    +0.000 N 
ATOM      3  C   UNL     1      -2.043   0.036  -0.011  0.00  0.00    +0.000 C 
ATOM      4  O   UNL     1      -3.230  -0.292  -0.020  0.00  0.00    +0.000 OA
ATOM      5  C   UNL     1      -1.663   1.493  -0.085  0.00  0.00    +0.000 C 
ATOM      6  C   UNL     1      -0.445   1.807   0.764  0.00  0.00    +0.000 C 
ATOM      7  C   UNL     1       0.672   0.861   0.394  0.00  0.00    +0.000 A 
ATOM      8  C   UNL     1       2.010   1.282   0.490  0.00  0.00    +0.000 A 
ATOM      9  C   UNL     1       3.049   0.401   0.200  0.00  0.00    +0.000 A 
ATOM     10  C   UNL     1       2.761  -0.906  -0.175  0.00  0.00    +0.000 A 
ATOM     11  C   UNL     1       1.434  -1.335  -0.264  0.00  0.00    +0.000 A 
ATOM     12  C   UNL     1       0.374  -0.458   0.011  0.00  0.00    +0.000 A 
ENDROOT
BRANCH   6  13
ATOM     13  S   UNL     1      -0.779   1.701   2.577  0.00  0.00    +0.000 S 
BRANCH  13  14
ATOM     14  C   UNL     1      -1.857   3.104   2.780  0.00  0.00    +0.000 A 
ATOM     15  C   UNL     1      -3.216   2.899   3.033  0.00  0.00    +0.000 A 
ATOM     16  C   UNL     1      -4.074   3.989   3.192  0.00  0.00    +0.000 A 
ATOM     17  C   UNL     1      -3.574   5.288   3.109  0.00  0.00    +0.000 A 
ATOM     18  C   UNL     1      -2.217   5.498   2.871  0.00  0.00    +0.000 A 
ATOM     19  C   UNL     1      -1.359   4.409   2.709  0.00  0.00    +0.000 A 
ENDBRANCH  13  14
ENDBRANCH   6  13
TORSDOF 2
