REMARK  Name = *****
REMARK  2 active torsions:
REMARK  status: ('A' for Active; 'I' for Inactive)
REMARK    1  A    between atoms: C_2  and  C_10
REMARK    2  A    between atoms: C_10  and  C_11
REMARK                            x       y       z     vdW  Elec       q    Type
REMARK                         _______ _______ _______ _____ _____    ______ ____
ROOT
ATOM      1  C   UNL     1       1.528   1.258   0.029  0.00  0.00    +0.000 C 
ATOM      2  C   UNL     1       2.235  -0.067  -0.319  0.00  0.00    +0.000 C 
ATOM      3  O   UNL     1       1.327  -1.162  -0.005  0.00  0.00    +0.000 OA
ATOM      4  C   UNL     1       0.088  -0.581   0.030  0.00  0.00    +0.000 A 
ATOM      5  C   UNL     1      -1.096  -1.286   0.083  0.00  0.00    +0.000 A 
ATOM      6  C   UNL     1      -2.287  -0.558   0.111  0.00  0.00    +0.000 A 
ATOM      7  C   UNL     1      -2.263   0.847   0.095  0.00  0.00    +0.000 A 
ATOM      8  C   UNL     1      -1.050   1.540   0.055  0.00  0.00    +0.000 A 
ATOM      9  C   UNL     1       0.120   0.803   0.016  0.00  0.00    +0.000 A 
ENDROOT
BRANCH   2  10
ATOM     10  C   UNL     1       2.630  -0.134  -1.807  0.00  0.00    +0.000 C 
BRANCH  10  11
ATOM     11  C   UNL     1       3.503  -1.328  -2.124  0.00  0.00    +0.000 A 
ATOM     12  C   UNL     1       2.919  -2.562  -2.445  0.00  0.00    +0.000 A 
ATOM     13  C   UNL     1       3.718  -3.672  -2.726  0.00  0.00    +0.000 A 
ATOM     14  C   UNL     1       5.105  -3.554  -2.682  0.00  0.00    +0.000 A 
ATOM     15  C   UNL     1       5.699  -2.336  -2.358  0.00  0.00    +0.000 A 
ATOM     16  C   UNL     1       4.900  -1.225  -2.078  0.00  0.00    +0.000 A 
ATOM     17 CL   UNL     1       6.091  -4.921  -3.026  0.00  0.00    +0.000 Cl
ENDBRANCH  10  11
ENDBRANCH   2  10
TORSDOF 2
