REMARK  Name = *****
REMARK  2 active torsions:
REMARK  status: ('A' for Active; 'I' for Inactive)
REMARK    1  A    between atoms: C_4  and  C_7
REMARK    2  A    between atoms: C_7  and  C_9
REMARK                            x       y       z     vdW  Elec       q    Type
REMARK                         _______ _______ _______ _____ _____    ______ ____
ROOT
ATOM      1  C   UNL     1      -4.015  -0.890  -1.034  0.00  0.00    +0.000 C 
ATOM      2  N   UNL     1      -4.508  -2.166  -0.476  0.00  0.00    +0.000 N 
ATOM      3  C   UNL     1      -5.900  -2.309  -0.688  0.00  0.00    +0.000 A 
ATOM      4  C   UNL     1      -6.672  -3.424  -0.363  0.00  0.00    +0.000 A 
ATOM      5  C   UNL     1      -8.051  -3.422  -0.609  0.00  0.00    +0.000 A 
ATOM      6  C   UNL     1      -8.671  -2.303  -1.171  0.00  0.00    +0.000 A 
ATOM      7  C   UNL     1      -7.918  -1.175  -1.487  0.00  0.00    +0.000 A 
ATOM      8  C   UNL     1      -6.550  -1.194  -1.239  0.00  0.00    +0.000 A 
ATOM      9  S   UNL     1      -5.434   0.129  -1.575  0.00  0.00    +0.000 S 
ATOM     10  I   UNL     1      -3.266  -3.701  -0.334  0.00  0.00    +0.000 I 
ENDROOT
BRANCH   1  11
ATOM     11  C   UNL     1      -3.231  -0.097   0.018  0.00  0.00    +0.000 C 
ATOM     12  O   UNL     1      -3.606   0.066   1.181  0.00  0.00    +0.000 OA
BRANCH  11  16
ATOM     13  C   UNL     1       0.348   1.960  -1.136  0.00  0.00    +0.000 A 
ATOM     14  C   UNL     1       0.068   0.714  -1.696  0.00  0.00    +0.000 A 
ATOM     15  C   UNL     1      -1.091   0.023  -1.331  0.00  0.00    +0.000 A 
ATOM     16  C   UNL     1      -1.978   0.588  -0.407  0.00  0.00    +0.000 A 
ATOM     17  C   UNL     1      -1.680   1.831   0.167  0.00  0.00    +0.000 A 
ATOM     18  C   UNL     1      -0.522   2.516  -0.201  0.00  0.00    +0.000 A 
ENDBRANCH  11  16
ENDBRANCH   1  11
TORSDOF 2
