REMARK  Name = *****
REMARK  4 active torsions:
REMARK  status: ('A' for Active; 'I' for Inactive)
REMARK    1  A    between atoms: C_1  and  C_2
REMARK    2  A    between atoms: C_5  and  S_8
REMARK    3  A    between atoms: S_8  and  N_11
REMARK    4  A    between atoms: C_12  and  C_14
REMARK                            x       y       z     vdW  Elec       q    Type
REMARK                         _______ _______ _______ _____ _____    ______ ____
ROOT
ATOM      1  S   UNL     1      -3.967   0.311  -0.126  0.00  0.00    +0.000 S 
ATOM      2  O   UNL     1      -4.366  -0.233  -1.411  0.00  0.00    +0.000 OA
ATOM      3  O   UNL     1      -4.334  -0.360   1.106  0.00  0.00    +0.000 OA
ENDROOT
BRANCH   1   8
ATOM      4  C   UNL     1       2.086   0.797  -0.205  0.00  0.00    +0.000 C 
ATOM      5  C   UNL     1       0.592   0.654  -0.188  0.00  0.00    +0.000 A 
ATOM      6  C   UNL     1      -0.086   0.473   1.025  0.00  0.00    +0.000 A 
ATOM      7  C   UNL     1      -1.478   0.371   1.049  0.00  0.00    +0.000 A 
ATOM      8  C   UNL     1      -2.195   0.468  -0.145  0.00  0.00    +0.000 A 
ATOM      9  C   UNL     1      -1.533   0.651  -1.362  0.00  0.00    +0.000 A 
ATOM     10  C   UNL     1      -0.141   0.754  -1.378  0.00  0.00    +0.000 A 
ENDBRANCH   1   8
BRANCH   1  11
ATOM     11  N   UNL     1      -4.413   1.961  -0.043  0.00  0.00    +0.000 NA
ATOM     12  C   UNL     1      -5.657   2.290  -0.764  0.00  0.00    +0.000 C 
ATOM     13  O   UNL     1      -5.663   1.993   0.641  0.00  0.00    +0.000 OA
BRANCH  12  14
ATOM     14  C   UNL     1      -5.892   3.716  -1.191  0.00  0.00    +0.000 A 
ATOM     15  C   UNL     1      -6.812   4.533  -0.504  0.00  0.00    +0.000 A 
ATOM     16  C   UNL     1      -7.053   5.854  -0.891  0.00  0.00    +0.000 A 
ATOM     17  C   UNL     1      -6.380   6.393  -1.982  0.00  0.00    +0.000 A 
ATOM     18  C   UNL     1      -5.468   5.611  -2.685  0.00  0.00    +0.000 A 
ATOM     19  C   UNL     1      -5.229   4.289  -2.294  0.00  0.00    +0.000 A 
ATOM     20 CL   UNL     1      -4.094   3.369  -3.220  0.00  0.00    +0.000 Cl
ENDBRANCH  12  14
ENDBRANCH   1  11
TORSDOF 3
