REMARK  Name = *****
REMARK  3 active torsions:
REMARK  status: ('A' for Active; 'I' for Inactive)
REMARK    1  A    between atoms: C_10  and  C_12
REMARK    2  A    between atoms: C_12  and  C_13
REMARK    3  A    between atoms: C_12  and  O_20
REMARK                            x       y       z     vdW  Elec       q    Type
REMARK                         _______ _______ _______ _____ _____    ______ ____
ROOT
ATOM      1  C   UNL     1       2.226   0.032  -1.393  0.00  0.00    +0.000 C 
ATOM      2  C   UNL     1       2.424  -1.320  -0.702  0.00  0.00    +0.000 C 
ATOM      3  S   UNL     1       1.468  -1.635   0.833  0.00  0.00    +0.000 S 
ATOM      4  C   UNL     1      -0.021  -0.682   0.523  0.00  0.00    +0.000 A 
ATOM      5  C   UNL     1      -1.233  -1.388   0.517  0.00  0.00    +0.000 A 
ATOM      6  C   UNL     1      -2.441  -0.726   0.301  0.00  0.00    +0.000 A 
ATOM      7  C   UNL     1      -2.451   0.649   0.092  0.00  0.00    +0.000 A 
ATOM      8  C   UNL     1      -1.253   1.366   0.110  0.00  0.00    +0.000 A 
ATOM      9  C   UNL     1      -0.025   0.720   0.338  0.00  0.00    +0.000 A 
ATOM     10  C   UNL     1       1.223   1.534   0.369  0.00  0.00    +0.000 C 
ATOM     11  C   UNL     1       2.244   1.200  -0.449  0.00  0.00    +0.000 C 
ENDROOT
BRANCH  10  12
ATOM     12  C   UNL     1       1.258   2.704   1.344  0.00  0.00    +0.000 C 
BRANCH  12  13
ATOM     13  C   UNL     1       1.136   2.281   2.801  0.00  0.00    +0.000 A 
ATOM     14  C   UNL     1       2.094   1.432   3.387  0.00  0.00    +0.000 A 
ATOM     15  C   UNL     1       1.978   1.046   4.723  0.00  0.00    +0.000 A 
ATOM     16  C   UNL     1       0.909   1.510   5.478  0.00  0.00    +0.000 A 
ATOM     17  C   UNL     1      -0.047   2.352   4.923  0.00  0.00    +0.000 A 
ATOM     18  C   UNL     1       0.065   2.739   3.586  0.00  0.00    +0.000 A 
ATOM     19  F   UNL     1       0.798   1.142   6.761  0.00  0.00    +0.000 F 
ENDBRANCH  12  13
BRANCH  12  20
ATOM     20  O   UNL     1       2.460   3.466   1.183  0.00  0.00    +0.000 OA
ATOM     21  H   UNL     1       3.226   2.912   1.401  0.00  0.00    +0.000 HD
ENDBRANCH  12  20
ENDBRANCH  10  12
TORSDOF 3
