REMARK  Name = *****
REMARK  3 active torsions:
REMARK  status: ('A' for Active; 'I' for Inactive)
REMARK    1  A    between atoms: C_1  and  O_2
REMARK    2  A    between atoms: O_2  and  C_3
REMARK    3  A    between atoms: C_11  and  C_12
REMARK                            x       y       z     vdW  Elec       q    Type
REMARK                         _______ _______ _______ _____ _____    ______ ____
ROOT
ATOM      1  C   UNL     1       2.895   1.357   0.227  0.00  0.00    +0.000 C 
ATOM      2  C   UNL     1       2.762   1.809   1.698  0.00  0.00    +0.000 C 
ATOM      3  C   UNL     1       2.898   3.293   1.567  0.00  0.00    +0.000 A 
ATOM      4  C   UNL     1       3.183   4.214   2.561  0.00  0.00    +0.000 A 
ATOM      5  C   UNL     1       3.228   5.566   2.217  0.00  0.00    +0.000 A 
ATOM      6  C   UNL     1       2.978   5.980   0.899  0.00  0.00    +0.000 A 
ATOM      7  C   UNL     1       2.677   5.047  -0.095  0.00  0.00    +0.000 A 
ATOM      8  C   UNL     1       2.641   3.705   0.252  0.00  0.00    +0.000 A 
ATOM      9  C   UNL     1       2.306   2.524  -0.633  0.00  0.00    +0.000 C 
ENDROOT
BRANCH   9  10
ATOM     10  C   UNL     1       0.835   2.394  -0.996  0.00  0.00    +0.000 A 
ATOM     11  C   UNL     1       0.490   1.796  -2.221  0.00  0.00    +0.000 A 
ATOM     12  C   UNL     1      -0.846   1.648  -2.598  0.00  0.00    +0.000 A 
ATOM     13  C   UNL     1      -1.861   2.091  -1.755  0.00  0.00    +0.000 A 
ATOM     14  C   UNL     1      -1.540   2.676  -0.533  0.00  0.00    +0.000 A 
ATOM     15  C   UNL     1      -0.203   2.823  -0.154  0.00  0.00    +0.000 A 
ENDBRANCH   9  10
BRANCH   1  17
ATOM     16  C   UNL     1       2.922  -0.994   0.590  0.00  0.00    +0.000 C 
ATOM     17  O   UNL     1       2.277   0.100  -0.046  0.00  0.00    +0.000 OA
ENDBRANCH   1  17
TORSDOF 2
