REMARK  Name = *****
REMARK  3 active torsions:
REMARK  status: ('A' for Active; 'I' for Inactive)
REMARK    1  A    between atoms: C_1  and  C_2
REMARK    2  A    between atoms: C_2  and  C_11
REMARK    3  A    between atoms: C_11  and  C_12
REMARK                            x       y       z     vdW  Elec       q    Type
REMARK                         _______ _______ _______ _____ _____    ______ ____
ROOT
ATOM      1  C   UNL     1       3.282   0.100  -1.057  0.00  0.00    +0.000 C 
ATOM      2  C   UNL     1       2.540   0.178   0.289  0.00  0.00    +0.000 C 
ATOM      3  C   UNL     1       3.142   1.274   1.202  0.00  0.00    +0.000 C 
ATOM      4  C   UNL     1       4.035   0.449   2.049  0.00  0.00    +0.000 A 
ATOM      5  C   UNL     1       5.002   0.845   2.955  0.00  0.00    +0.000 A 
ATOM      6  C   UNL     1       5.669  -0.145   3.682  0.00  0.00    +0.000 A 
ATOM      7  C   UNL     1       5.351  -1.501   3.502  0.00  0.00    +0.000 A 
ATOM      8  C   UNL     1       4.365  -1.882   2.590  0.00  0.00    +0.000 A 
ATOM      9  C   UNL     1       3.728  -0.889   1.876  0.00  0.00    +0.000 A 
ATOM     10  O   UNL     1       2.745  -1.116   0.949  0.00  0.00    +0.000 OA
ENDROOT
BRANCH   2  11
ATOM     11  C   UNL     1       1.013   0.333   0.099  0.00  0.00    +0.000 C 
BRANCH  11  12
ATOM     12  C   UNL     1       0.548   1.594  -0.592  0.00  0.00    +0.000 A 
ATOM     13  C   UNL     1       0.437   1.641  -1.988  0.00  0.00    +0.000 A 
ATOM     14  C   UNL     1       0.016   2.808  -2.629  0.00  0.00    +0.000 A 
ATOM     15  C   UNL     1      -0.305   3.938  -1.880  0.00  0.00    +0.000 A 
ATOM     16  C   UNL     1      -0.210   3.900  -0.491  0.00  0.00    +0.000 A 
ATOM     17  C   UNL     1       0.212   2.734   0.151  0.00  0.00    +0.000 A 
ENDBRANCH  11  12
ENDBRANCH   2  11
TORSDOF 2
