REMARK  Name = *****
REMARK  1 active torsions:
REMARK  status: ('A' for Active; 'I' for Inactive)
REMARK    1  A    between atoms: C_4  and  C_7
REMARK                            x       y       z     vdW  Elec       q    Type
REMARK                         _______ _______ _______ _____ _____    ______ ____
ROOT
ATOM      1  C   UNL     1      -1.551   1.124  -0.545  0.00  0.00    +0.000 C 
ATOM      2  C   UNL     1      -0.114   1.611  -0.342  0.00  0.00    +0.000 C 
ATOM      3  C   UNL     1       0.199   2.580  -1.448  0.00  0.00    +0.000 C 
ATOM      4  O   UNL     1       1.322   2.714  -1.926  0.00  0.00    +0.000 OA
ATOM      5  C   UNL     1      -0.905   3.456  -1.883  0.00  0.00    +0.000 A 
ATOM      6  C   UNL     1      -2.187   3.226  -1.382  0.00  0.00    +0.000 A 
ATOM      7  O   UNL     1      -2.503   2.201  -0.536  0.00  0.00    +0.000 OA
ATOM      8  C   UNL     1      -3.229   4.086  -1.728  0.00  0.00    +0.000 A 
ATOM      9  C   UNL     1      -2.992   5.156  -2.594  0.00  0.00    +0.000 A 
ATOM     10  C   UNL     1      -1.711   5.366  -3.107  0.00  0.00    +0.000 A 
ATOM     11  C   UNL     1      -0.661   4.522  -2.755  0.00  0.00    +0.000 A 
ATOM     12 CL   UNL     1      -1.427   6.687  -4.171  0.00  0.00    +0.000 Cl
ATOM     13  F   UNL     1       0.038   2.208   0.877  0.00  0.00    +0.000 F 
ATOM     14  F   UNL     1      -1.634   0.551  -1.789  0.00  0.00    +0.000 F 
ENDROOT
BRANCH   1  18
ATOM     15  C   UNL     1      -2.694  -1.720   2.520  0.00  0.00    +0.000 A 
ATOM     16  C   UNL     1      -2.580  -0.368   2.837  0.00  0.00    +0.000 A 
ATOM     17  C   UNL     1      -2.216   0.552   1.853  0.00  0.00    +0.000 A 
ATOM     18  C   UNL     1      -1.961   0.132   0.536  0.00  0.00    +0.000 A 
ATOM     19  C   UNL     1      -2.083  -1.234   0.233  0.00  0.00    +0.000 A 
ATOM     20  C   UNL     1      -2.447  -2.153   1.220  0.00  0.00    +0.000 A 
ENDBRANCH   1  18
TORSDOF 1
