REMARK  Name = *****
REMARK  3 active torsions:
REMARK  status: ('A' for Active; 'I' for Inactive)
REMARK    1  A    between atoms: C_10  and  C_11
REMARK    2  A    between atoms: C_11  and  C_12
REMARK    3  A    between atoms: C_11  and  O_19
REMARK                            x       y       z     vdW  Elec       q    Type
REMARK                         _______ _______ _______ _____ _____    ______ ____
ROOT
ATOM      1  C   UNL     1       2.438  -0.559  -0.359  0.00  0.00    +0.000 A 
ATOM      2  C   UNL     1       2.359   0.825  -0.396  0.00  0.00    +0.000 A 
ATOM      3  C   UNL     1       1.119   1.457  -0.261  0.00  0.00    +0.000 A 
ATOM      4  C   UNL     1      -0.081   0.727  -0.087  0.00  0.00    +0.000 A 
ATOM      5  C   UNL     1       0.025  -0.689  -0.051  0.00  0.00    +0.000 A 
ATOM      6  C   UNL     1       1.278  -1.310  -0.187  0.00  0.00    +0.000 A 
ATOM      7  C   UNL     1      -1.121  -1.477   0.120  0.00  0.00    +0.000 A 
ATOM      8  C   UNL     1      -2.375  -0.892   0.258  0.00  0.00    +0.000 A 
ATOM      9  C   UNL     1      -2.498   0.492   0.224  0.00  0.00    +0.000 A 
ATOM     10  C   UNL     1      -1.373   1.324   0.053  0.00  0.00    +0.000 A 
ENDROOT
BRANCH  10  11
ATOM     11  C   UNL     1      -1.567   2.838   0.005  0.00  0.00    +0.000 C 
BRANCH  11  12
ATOM     12  C   UNL     1      -1.410   3.465  -1.374  0.00  0.00    +0.000 A 
ATOM     13  C   UNL     1      -1.997   2.889  -2.515  0.00  0.00    +0.000 A 
ATOM     14  C   UNL     1      -1.867   3.498  -3.765  0.00  0.00    +0.000 A 
ATOM     15  C   UNL     1      -1.163   4.690  -3.877  0.00  0.00    +0.000 A 
ATOM     16  C   UNL     1      -0.590   5.289  -2.763  0.00  0.00    +0.000 A 
ATOM     17  C   UNL     1      -0.716   4.682  -1.512  0.00  0.00    +0.000 A 
ATOM     18  F   UNL     1      -1.042   5.275  -5.076  0.00  0.00    +0.000 F 
ENDBRANCH  11  12
BRANCH  11  19
ATOM     19  O   UNL     1      -2.846   3.220   0.526  0.00  0.00    +0.000 OA
ATOM     20  H   UNL     1      -3.546   2.867  -0.046  0.00  0.00    +0.000 HD
ENDBRANCH  11  19
ENDBRANCH  10  11
TORSDOF 3
