REMARK  Name = *****
REMARK  1 active torsions:
REMARK  status: ('A' for Active; 'I' for Inactive)
REMARK    1  A    between atoms: C_2  and  C_12
REMARK                            x       y       z     vdW  Elec       q    Type
REMARK                         _______ _______ _______ _____ _____    ______ ____
ROOT
ATOM      1  C   UNL     1      -2.296   0.254  -0.422  0.00  0.00    +0.000 C 
ATOM      2  C   UNL     1      -1.785   1.418   0.420  0.00  0.00    +0.000 C 
ATOM      3  O   UNL     1      -0.473   1.825  -0.021  0.00  0.00    +0.000 OA
ATOM      4  C   UNL     1       0.441   0.807  -0.076  0.00  0.00    +0.000 A 
ATOM      5  C   UNL     1       1.785   1.171  -0.016  0.00  0.00    +0.000 A 
ATOM      6  C   UNL     1       2.777   0.188  -0.053  0.00  0.00    +0.000 A 
ATOM      7  C   UNL     1       2.427  -1.159  -0.159  0.00  0.00    +0.000 A 
ATOM      8  C   UNL     1       1.083  -1.526  -0.240  0.00  0.00    +0.000 A 
ATOM      9  C   UNL     1       0.095  -0.538  -0.205  0.00  0.00    +0.000 A 
ATOM     10  C   UNL     1      -1.328  -0.893  -0.345  0.00  0.00    +0.000 C 
ATOM     11  O   UNL     1      -1.686  -2.061  -0.457  0.00  0.00    +0.000 OA
ENDROOT
BRANCH   2  12
ATOM     12  C   UNL     1      -1.824   1.293   1.940  0.00  0.00    +0.000 A 
ATOM     13  C   UNL     1      -2.375   0.192   2.612  0.00  0.00    +0.000 A 
ATOM     14  C   UNL     1      -2.388   0.155   4.006  0.00  0.00    +0.000 A 
ATOM     15  C   UNL     1      -1.868   1.197   4.761  0.00  0.00    +0.000 A 
ATOM     16  C   UNL     1      -1.325   2.302   4.115  0.00  0.00    +0.000 A 
ATOM     17  C   UNL     1      -1.307   2.350   2.718  0.00  0.00    +0.000 A 
ATOM     18  F   UNL     1      -2.917  -0.907   4.628  0.00  0.00    +0.000 F 
ENDBRANCH   2  12
TORSDOF 1
