REMARK  Name = *****
REMARK  2 active torsions:
REMARK  status: ('A' for Active; 'I' for Inactive)
REMARK    1  A    between atoms: C_1  and  C_2
REMARK    2  A    between atoms: C_9  and  C_13
REMARK                            x       y       z     vdW  Elec       q    Type
REMARK                         _______ _______ _______ _____ _____    ______ ____
ROOT
ATOM      1  C   UNL     1       1.088  -0.083   0.208  0.00  0.00    +0.000 C 
ATOM      2  C   UNL     1       2.583  -0.005   0.116  0.00  0.00    +0.000 A 
ATOM      3  C   UNL     1       3.240   1.232   0.092  0.00  0.00    +0.000 A 
ATOM      4  C   UNL     1       4.640   1.302   0.029  0.00  0.00    +0.000 A 
ATOM      5  C   UNL     1       5.380   0.121  -0.033  0.00  0.00    +0.000 A 
ATOM      6  C   UNL     1       4.735  -1.114   0.011  0.00  0.00    +0.000 A 
ATOM      7  C   UNL     1       3.343  -1.178   0.085  0.00  0.00    +0.000 A 
ATOM      8  O   UNL     1       6.743   0.080  -0.098  0.00  0.00    +0.000 OA
ATOM      9  C   UNL     1       7.403   1.319  -0.424  0.00  0.00    +0.000 C 
ATOM     10  C   UNL     1       6.805   2.509   0.353  0.00  0.00    +0.000 C 
ATOM     11  C   UNL     1       5.322   2.637  -0.011  0.00  0.00    +0.000 C 
ATOM     12  I   UNL     1       7.781   4.399  -0.117  0.00  0.00    +0.000 I 
ENDROOT
BRANCH   9  13
ATOM     13  C   UNL     1       8.876   1.079  -0.129  0.00  0.00    +0.000 A 
ATOM     14  C   UNL     1       9.833   1.213  -1.148  0.00  0.00    +0.000 A 
ATOM     15  C   UNL     1      11.188   1.004  -0.883  0.00  0.00    +0.000 A 
ATOM     16  C   UNL     1      11.603   0.653   0.400  0.00  0.00    +0.000 A 
ATOM     17  C   UNL     1      10.664   0.505   1.419  0.00  0.00    +0.000 A 
ATOM     18  C   UNL     1       9.309   0.714   1.156  0.00  0.00    +0.000 A 
ENDBRANCH   9  13
TORSDOF 1
