REMARK  Name = *****
REMARK  1 active torsions:
REMARK  status: ('A' for Active; 'I' for Inactive)
REMARK    1  A    between atoms: C_4  and  C_7
REMARK                            x       y       z     vdW  Elec       q    Type
REMARK                         _______ _______ _______ _____ _____    ______ ____
ROOT
ATOM      1  C   UNL     1       2.761  -0.731  -0.321  0.00  0.00    +0.000 C 
ATOM      2  C   UNL     1       2.886  -0.734  -1.842  0.00  0.00    +0.000 C 
ATOM      3  C   UNL     1       2.118  -1.892  -2.410  0.00  0.00    +0.000 C 
ATOM      4  O   UNL     1       1.567  -1.849  -3.504  0.00  0.00    +0.000 OA
ATOM      5  C   UNL     1       2.135  -3.128  -1.607  0.00  0.00    +0.000 A 
ATOM      6  C   UNL     1       1.599  -4.316  -2.115  0.00  0.00    +0.000 A 
ATOM      7  C   UNL     1       1.671  -5.483  -1.355  0.00  0.00    +0.000 A 
ATOM      8  C   UNL     1       2.281  -5.462  -0.099  0.00  0.00    +0.000 A 
ATOM      9  C   UNL     1       2.811  -4.271   0.404  0.00  0.00    +0.000 A 
ATOM     10  C   UNL     1       2.725  -3.098  -0.344  0.00  0.00    +0.000 A 
ATOM     11  O   UNL     1       3.251  -1.970   0.227  0.00  0.00    +0.000 OA
ENDROOT
BRANCH   1  15
ATOM     12  C   UNL     1      -0.458   1.311   1.894  0.00  0.00    +0.000 C 
ATOM     13  C   UNL     1      -0.515   1.337   0.372  0.00  0.00    +0.000 C 
ATOM     14  C   UNL     1       0.827   0.964  -0.255  0.00  0.00    +0.000 C 
ATOM     15  C   UNL     1       1.353  -0.391   0.251  0.00  0.00    +0.000 C 
ATOM     16  C   UNL     1       1.381  -0.412   1.795  0.00  0.00    +0.000 C 
ATOM     17  C   UNL     1       0.032  -0.038   2.404  0.00  0.00    +0.000 C 
ENDBRANCH   1  15
TORSDOF 1
