REMARK  Name = *****
REMARK  2 active torsions:
REMARK  status: ('A' for Active; 'I' for Inactive)
REMARK    1  A    between atoms: C_7  and  C_9
REMARK    2  A    between atoms: C_12  and  C_13
REMARK                            x       y       z     vdW  Elec       q    Type
REMARK                         _______ _______ _______ _____ _____    ______ ____
ROOT
ATOM      1  C   UNL     1      -2.141  -0.863  -0.090  0.00  0.00    +0.000 C 
ATOM      2  C   UNL     1      -0.889  -1.680   0.183  0.00  0.00    +0.000 C 
ATOM      3  C   UNL     1       0.326  -0.837  -0.065  0.00  0.00    +0.000 A 
ATOM      4  C   UNL     1       0.245   0.558  -0.024  0.00  0.00    +0.000 A 
ATOM      5  C   UNL     1       1.381   1.338  -0.258  0.00  0.00    +0.000 A 
ATOM      6  C   UNL     1       2.612   0.732  -0.515  0.00  0.00    +0.000 A 
ATOM      7  C   UNL     1       2.700  -0.661  -0.535  0.00  0.00    +0.000 A 
ATOM      8  C   UNL     1       1.565  -1.446  -0.308  0.00  0.00    +0.000 A 
ATOM      9  O   UNL     1      -0.904   1.251   0.239  0.00  0.00    +0.000 OA
ATOM     10  C   UNL     1      -2.063   0.490   0.626  0.00  0.00    +0.000 C 
ENDROOT
BRANCH  10  11
ATOM     11  C   UNL     1      -2.243   0.396   2.139  0.00  0.00    +0.000 A 
ATOM     12  C   UNL     1      -1.226   0.739   3.043  0.00  0.00    +0.000 A 
ATOM     13  C   UNL     1      -1.427   0.633   4.422  0.00  0.00    +0.000 A 
ATOM     14  C   UNL     1      -2.648   0.189   4.920  0.00  0.00    +0.000 A 
ATOM     15  C   UNL     1      -3.673  -0.147   4.040  0.00  0.00    +0.000 A 
ATOM     16  C   UNL     1      -3.473  -0.043   2.662  0.00  0.00    +0.000 A 
ENDBRANCH  10  11
BRANCH   7  17
ATOM     17  C   UNL     1       4.005  -1.300  -0.799  0.00  0.00    +0.000 C 
ATOM     18  O   UNL     1       4.141  -2.516  -0.833  0.00  0.00    +0.000 OA
ENDBRANCH   7  17
TORSDOF 2
