REMARK  Name = *****
REMARK  7 active torsions:
REMARK  status: ('A' for Active; 'I' for Inactive)
REMARK    1  A    between atoms: C_4  and  C_7
REMARK    2  A    between atoms: C_7  and  C_8
REMARK    3  A    between atoms: C_7  and  O_20
REMARK    4  A    between atoms: C_8  and  C_9
REMARK    5  A    between atoms: C_8  and  C_12
REMARK    6  A    between atoms: C_9  and  C_10
REMARK    7  A    between atoms: C_12  and  C_14
REMARK                            x       y       z     vdW  Elec       q    Type
REMARK                         _______ _______ _______ _____ _____    ______ ____
ROOT
ATOM      1  C   UNL     1      -3.249   1.350  -1.336  0.00  0.00    +0.000 C 
ENDROOT
BRANCH   1   2
ATOM      2  C   UNL     1      -2.569   2.719  -1.283  0.00  0.00    +0.000 C 
ATOM      3  O   UNL     1      -3.124   3.675  -0.735  0.00  0.00    +0.000 OA
BRANCH   2   4
ATOM      4  C   UNL     1      -1.186   2.904  -1.826  0.00  0.00    +0.000 A 
ATOM      5  C   UNL     1      -0.378   1.839  -2.242  0.00  0.00    +0.000 A 
ATOM      6  C   UNL     1       0.921   2.079  -2.704  0.00  0.00    +0.000 A 
ATOM      7  C   UNL     1       1.420   3.379  -2.754  0.00  0.00    +0.000 A 
ATOM      8  C   UNL     1       0.624   4.445  -2.344  0.00  0.00    +0.000 A 
ATOM      9  C   UNL     1      -0.672   4.209  -1.881  0.00  0.00    +0.000 A 
ENDBRANCH   2   4
ENDBRANCH   1   2
BRANCH   1  10
ATOM     10  C   UNL     1      -4.781   1.502  -1.516  0.00  0.00    +0.000 C 
BRANCH  10  14
ATOM     11  C   UNL     1      -5.979   2.975  -5.412  0.00  0.00    +0.000 A 
ATOM     12  C   UNL     1      -5.671   3.879  -4.398  0.00  0.00    +0.000 A 
ATOM     13  C   UNL     1      -5.286   3.417  -3.137  0.00  0.00    +0.000 A 
ATOM     14  C   UNL     1      -5.197   2.042  -2.873  0.00  0.00    +0.000 A 
ATOM     15  C   UNL     1      -5.505   1.144  -3.910  0.00  0.00    +0.000 A 
ATOM     16  C   UNL     1      -5.898   1.607  -5.168  0.00  0.00    +0.000 A 
ENDBRANCH  10  14
BRANCH  10  17
ATOM     17  O   UNL     1      -5.384   2.238  -0.454  0.00  0.00    +0.000 OA
ATOM     18  H   UNL     1      -5.058   3.151  -0.468  0.00  0.00    +0.000 HD
ENDBRANCH  10  17
ENDBRANCH   1  10
BRANCH   1  19
ATOM     19  C   UNL     1      -2.873   0.610  -0.032  0.00  0.00    +0.000 C 
BRANCH  19  20
ATOM     20  C   UNL     1      -3.378  -0.833   0.015  0.00  0.00    +0.000 C 
ATOM     21  I   UNL     1      -2.524  -1.875   1.682  0.00  0.00    +0.000 I 
ENDBRANCH  19  20
ENDBRANCH   1  19
TORSDOF 7
