REMARK  Name = *****
REMARK  4 active torsions:
REMARK  status: ('A' for Active; 'I' for Inactive)
REMARK    1  A    between atoms: C_1  and  O_2
REMARK    2  A    between atoms: O_2  and  C_3
REMARK    3  A    between atoms: C_10  and  C_12
REMARK    4  A    between atoms: C_12  and  C_13
REMARK                            x       y       z     vdW  Elec       q    Type
REMARK                         _______ _______ _______ _____ _____    ______ ____
ROOT
ATOM      1  C   UNL     1       2.791   1.005   0.686  0.00  0.00    +0.000 A 
ATOM      2  C   UNL     1       3.913   1.776   0.357  0.00  0.00    +0.000 A 
ATOM      3  C   UNL     1       4.608   2.409   1.372  0.00  0.00    +0.000 A 
ATOM      4  C   UNL     1       4.197   2.296   2.687  0.00  0.00    +0.000 A 
ATOM      5  C   UNL     1       3.091   1.554   3.041  0.00  0.00    +0.000 A 
ATOM      6  C   UNL     1       2.383   0.898   2.027  0.00  0.00    +0.000 A 
ATOM      7  O   UNL     1       4.978   2.988   3.572  0.00  0.00    +0.000 OA
ATOM      8  C   UNL     1       6.139   3.400   2.794  0.00  0.00    +0.000 C 
ATOM      9  C   UNL     1       5.772   3.319   1.299  0.00  0.00    +0.000 C 
ENDROOT
BRANCH   1  11
ATOM     10  C   UNL     1       1.030  -0.379  -0.113  0.00  0.00    +0.000 C 
ATOM     11  O   UNL     1       2.177   0.415  -0.386  0.00  0.00    +0.000 OA
ENDBRANCH   1  11
BRANCH   8  12
ATOM     12  C   UNL     1       7.339   2.499   3.144  0.00  0.00    +0.000 C 
BRANCH  12  13
ATOM     13  C   UNL     1       7.928   2.824   4.499  0.00  0.00    +0.000 A 
ATOM     14  C   UNL     1       7.358   2.297   5.665  0.00  0.00    +0.000 A 
ATOM     15  C   UNL     1       7.892   2.606   6.917  0.00  0.00    +0.000 A 
ATOM     16  C   UNL     1       9.000   3.446   7.014  0.00  0.00    +0.000 A 
ATOM     17  C   UNL     1       9.572   3.979   5.861  0.00  0.00    +0.000 A 
ATOM     18  C   UNL     1       9.038   3.672   4.608  0.00  0.00    +0.000 A 
ENDBRANCH  12  13
ENDBRANCH   8  12
TORSDOF 3
