REMARK  Name = *****
REMARK  3 active torsions:
REMARK  status: ('A' for Active; 'I' for Inactive)
REMARK    1  A    between atoms: C_1  and  O_2
REMARK    2  A    between atoms: O_2  and  C_3
REMARK    3  A    between atoms: C_3  and  C_15
REMARK                            x       y       z     vdW  Elec       q    Type
REMARK                         _______ _______ _______ _____ _____    ______ ____
ROOT
ATOM      1  C   UNL     1       4.066  -1.846  -0.059  0.00  0.00    +0.000 C 
ATOM      2  C   UNL     1       2.847  -2.744  -0.151  0.00  0.00    +0.000 C 
ATOM      3  C   UNL     1       2.946  -4.058  -0.412  0.00  0.00    +0.000 C 
ATOM      4  C   UNL     1       4.279  -4.699  -0.756  0.00  0.00    +0.000 C 
ATOM      5  C   UNL     1       4.083  -5.551  -2.028  0.00  0.00    +0.000 C 
ATOM      6  C   UNL     1       5.239  -6.502  -2.349  0.00  0.00    +0.000 C 
ATOM      7  C   UNL     1       5.071  -7.870  -1.689  0.00  0.00    +0.000 C 
ATOM      8  C   UNL     1       5.270  -7.894  -0.178  0.00  0.00    +0.000 C 
ATOM      9  C   UNL     1       4.412  -6.906   0.611  0.00  0.00    +0.000 C 
ATOM     10  C   UNL     1       4.880  -5.461   0.440  0.00  0.00    +0.000 C 
ATOM     11  O   UNL     1       5.196  -3.644  -1.146  0.00  0.00    +0.000 OA
ATOM     12  O   UNL     1       5.272  -2.650  -0.057  0.00  0.00    +0.000 OA
ENDROOT
BRANCH   1  13
ATOM     13  C   UNL     1       4.048  -1.115   1.300  0.00  0.00    +0.000 A 
ATOM     14  C   UNL     1       4.329  -1.810   2.494  0.00  0.00    +0.000 A 
ATOM     15  C   UNL     1       4.292  -1.168   3.734  0.00  0.00    +0.000 A 
ATOM     16  C   UNL     1       3.971   0.184   3.809  0.00  0.00    +0.000 A 
ATOM     17  C   UNL     1       3.685   0.893   2.646  0.00  0.00    +0.000 A 
ATOM     18  C   UNL     1       3.719   0.250   1.405  0.00  0.00    +0.000 A 
ENDBRANCH   1  13
BRANCH   1  20
ATOM     19  C   UNL     1       4.373  -1.262  -2.387  0.00  0.00    +0.000 C 
ATOM     20  O   UNL     1       4.007  -0.846  -1.086  0.00  0.00    +0.000 OA
ENDBRANCH   1  20
TORSDOF 2
