REMARK  Name = *****
REMARK  1 active torsions:
REMARK  status: ('A' for Active; 'I' for Inactive)
REMARK    1  A    between atoms: C_2  and  C_12
REMARK                            x       y       z     vdW  Elec       q    Type
REMARK                         _______ _______ _______ _____ _____    ______ ____
ROOT
ATOM      1  C   UNL     1      -2.331   0.779  -0.285  0.00  0.00    +0.000 C 
ATOM      2  C   UNL     1      -2.216  -0.499   0.547  0.00  0.00    +0.000 C 
ATOM      3  O   UNL     1      -1.093  -1.278   0.092  0.00  0.00    +0.000 OA
ATOM      4  C   UNL     1       0.078  -0.595  -0.117  0.00  0.00    +0.000 A 
ATOM      5  C   UNL     1       1.220  -1.392  -0.233  0.00  0.00    +0.000 A 
ATOM      6  C   UNL     1       2.473  -0.803  -0.385  0.00  0.00    +0.000 A 
ATOM      7  C   UNL     1       2.584   0.583  -0.415  0.00  0.00    +0.000 A 
ATOM      8  C   UNL     1       1.441   1.379  -0.315  0.00  0.00    +0.000 A 
ATOM      9  C   UNL     1       0.166   0.800  -0.201  0.00  0.00    +0.000 A 
ATOM     10  C   UNL     1      -1.083   1.629  -0.088  0.00  0.00    +0.000 C 
ATOM     11 BR   UNL     1      -1.133   3.052  -1.442  0.00  0.00    +0.000 Br
ENDROOT
BRANCH   2  12
ATOM     12  C   UNL     1      -2.243  -0.310   2.064  0.00  0.00    +0.000 A 
ATOM     13  C   UNL     1      -3.182   0.549   2.664  0.00  0.00    +0.000 A 
ATOM     14  C   UNL     1      -3.225   0.713   4.051  0.00  0.00    +0.000 A 
ATOM     15  C   UNL     1      -2.343   0.008   4.865  0.00  0.00    +0.000 A 
ATOM     16  C   UNL     1      -1.425  -0.867   4.294  0.00  0.00    +0.000 A 
ATOM     17  C   UNL     1      -1.381  -1.030   2.907  0.00  0.00    +0.000 A 
ENDBRANCH   2  12
TORSDOF 1
