REMARK  Name = *****
REMARK  4 active torsions:
REMARK  status: ('A' for Active; 'I' for Inactive)
REMARK    1  A    between atoms: C_1  and  C_2
REMARK    2  A    between atoms: C_2  and  C_14
REMARK    3  A    between atoms: C_11  and  O_12
REMARK    4  A    between atoms: O_12  and  C_13
REMARK                            x       y       z     vdW  Elec       q    Type
REMARK                         _______ _______ _______ _____ _____    ______ ____
ROOT
ATOM      1  C   UNL     1       1.162   0.254   0.162  0.00  0.00    +0.000 C 
ATOM      2  C   UNL     1       2.657  -0.032  -0.076  0.00  0.00    +0.000 C 
ATOM      3  C   UNL     1       3.075  -1.217   0.816  0.00  0.00    +0.000 C 
ATOM      4  C   UNL     1       4.573  -1.466   0.705  0.00  0.00    +0.000 C 
ATOM      5  C   UNL     1       5.335  -0.176   0.823  0.00  0.00    +0.000 A 
ATOM      6  C   UNL     1       4.671   1.046   0.665  0.00  0.00    +0.000 A 
ATOM      7  O   UNL     1       3.337   1.164   0.374  0.00  0.00    +0.000 OA
ATOM      8  C   UNL     1       5.361   2.249   0.807  0.00  0.00    +0.000 A 
ATOM      9  C   UNL     1       6.726   2.243   1.076  0.00  0.00    +0.000 A 
ATOM     10  C   UNL     1       7.408   1.031   1.195  0.00  0.00    +0.000 A 
ATOM     11  C   UNL     1       6.723  -0.181   1.057  0.00  0.00    +0.000 A 
ENDROOT
BRANCH   2  12
ATOM     12  C   UNL     1       2.844  -0.266  -1.585  0.00  0.00    +0.000 A 
ATOM     13  C   UNL     1       3.324   0.756  -2.425  0.00  0.00    +0.000 A 
ATOM     14  C   UNL     1       3.488   0.549  -3.796  0.00  0.00    +0.000 A 
ATOM     15  C   UNL     1       3.164  -0.681  -4.361  0.00  0.00    +0.000 A 
ATOM     16  C   UNL     1       2.667  -1.701  -3.555  0.00  0.00    +0.000 A 
ATOM     17  C   UNL     1       2.503  -1.494  -2.182  0.00  0.00    +0.000 A 
ENDBRANCH   2  12
BRANCH  11  18
ATOM     18  O   UNL     1       7.310  -1.416   1.159  0.00  0.00    +0.000 OA
ATOM     19  C   UNL     1       8.723  -1.465   1.003  0.00  0.00    +0.000 C 
ENDBRANCH  11  18
TORSDOF 2
