REMARK  Name = *****
REMARK  2 active torsions:
REMARK  status: ('A' for Active; 'I' for Inactive)
REMARK    1  A    between atoms: C_1  and  C_2
REMARK    2  A    between atoms: C_2  and  C_12
REMARK                            x       y       z     vdW  Elec       q    Type
REMARK                         _______ _______ _______ _____ _____    ______ ____
ROOT
ATOM      1  C   UNL     1       1.199   0.100   0.084  0.00  0.00    +0.000 C 
ATOM      2  C   UNL     1       2.726   0.004  -0.070  0.00  0.00    +0.000 C 
ATOM      3  C   UNL     1       3.243  -1.110   0.868  0.00  0.00    +0.000 C 
ATOM      4  O   UNL     1       4.671  -1.224   0.838  0.00  0.00    +0.000 OA
ATOM      5  C   UNL     1       5.266   0.007   0.930  0.00  0.00    +0.000 A 
ATOM      6  C   UNL     1       6.630   0.025   1.215  0.00  0.00    +0.000 A 
ATOM      7  C   UNL     1       7.299   1.244   1.345  0.00  0.00    +0.000 A 
ATOM      8  C   UNL     1       6.602   2.443   1.189  0.00  0.00    +0.000 A 
ATOM      9  C   UNL     1       5.239   2.425   0.889  0.00  0.00    +0.000 A 
ATOM     10  C   UNL     1       4.576   1.207   0.743  0.00  0.00    +0.000 A 
ATOM     11  O   UNL     1       3.248   1.269   0.404  0.00  0.00    +0.000 OA
ENDROOT
BRANCH   2  12
ATOM     12  C   UNL     1       3.033  -0.189  -1.566  0.00  0.00    +0.000 A 
ATOM     13  C   UNL     1       3.208   0.929  -2.404  0.00  0.00    +0.000 A 
ATOM     14  C   UNL     1       3.479   0.778  -3.766  0.00  0.00    +0.000 A 
ATOM     15  C   UNL     1       3.567  -0.494  -4.321  0.00  0.00    +0.000 A 
ATOM     16  C   UNL     1       3.379  -1.613  -3.517  0.00  0.00    +0.000 A 
ATOM     17  C   UNL     1       3.111  -1.464  -2.152  0.00  0.00    +0.000 A 
ENDBRANCH   2  12
TORSDOF 1
