REMARK  Name = *****
REMARK  2 active torsions:
REMARK  status: ('A' for Active; 'I' for Inactive)
REMARK    1  A    between atoms: N_4  and  S_5
REMARK    2  A    between atoms: S_5  and  C_8
REMARK                            x       y       z     vdW  Elec       q    Type
REMARK                         _______ _______ _______ _____ _____    ______ ____
ROOT
ATOM      1  C   UNL     1      -0.178  -2.550   0.421  0.00  0.00    +0.000 C 
ATOM      2  C   UNL     1      -1.578  -2.781  -0.111  0.00  0.00    +0.000 C 
ATOM      3  C   UNL     1      -2.185  -1.456  -0.557  0.00  0.00    +0.000 C 
ATOM      4  N   UNL     1      -2.718  -2.193   0.595  0.00  0.00    +0.000 NA
ATOM      5  C   UNL     1      -1.094  -0.457  -0.355  0.00  0.00    +0.000 A 
ATOM      6  C   UNL     1      -1.084   0.905  -0.622  0.00  0.00    +0.000 A 
ATOM      7  C   UNL     1       0.071   1.641  -0.347  0.00  0.00    +0.000 A 
ATOM      8  C   UNL     1       1.207   1.018   0.193  0.00  0.00    +0.000 A 
ATOM      9  C   UNL     1       1.204  -0.350   0.468  0.00  0.00    +0.000 A 
ATOM     10  C   UNL     1       0.053  -1.072   0.190  0.00  0.00    +0.000 A 
ENDROOT
BRANCH   4  11
ATOM     11  S   UNL     1      -4.204  -2.999   0.362  0.00  0.00    +0.000 S 
ATOM     12  O   UNL     1      -4.428  -3.200  -1.057  0.00  0.00    +0.000 OA
ATOM     13  O   UNL     1      -4.263  -4.114   1.285  0.00  0.00    +0.000 OA
BRANCH  11  14
ATOM     14  C   UNL     1      -5.348  -1.767   0.934  0.00  0.00    +0.000 A 
ATOM     15  C   UNL     1      -6.171  -1.097   0.024  0.00  0.00    +0.000 A 
ATOM     16  C   UNL     1      -7.071  -0.140   0.493  0.00  0.00    +0.000 A 
ATOM     17  C   UNL     1      -7.147   0.140   1.859  0.00  0.00    +0.000 A 
ATOM     18  C   UNL     1      -6.328  -0.539   2.764  0.00  0.00    +0.000 A 
ATOM     19  C   UNL     1      -5.427  -1.498   2.304  0.00  0.00    +0.000 A 
ENDBRANCH  11  14
ENDBRANCH   4  11
TORSDOF 2
