REMARK  Name = *****
REMARK  1 active torsions:
REMARK  status: ('A' for Active; 'I' for Inactive)
REMARK    1  A    between atoms: C_2  and  C_12
REMARK                            x       y       z     vdW  Elec       q    Type
REMARK                         _______ _______ _______ _____ _____    ______ ____
ROOT
ATOM      1  C   UNL     1      -2.106   0.473  -0.314  0.00  0.00    +0.000 C 
ATOM      2  C   UNL     1      -1.495   1.587   0.533  0.00  0.00    +0.000 C 
ATOM      3  O   UNL     1      -0.110   1.842   0.221  0.00  0.00    +0.000 OA
ATOM      4  C   UNL     1       0.673   0.763  -0.076  0.00  0.00    +0.000 A 
ATOM      5  C   UNL     1       2.045   1.006  -0.155  0.00  0.00    +0.000 A 
ATOM      6  C   UNL     1       2.932  -0.045  -0.400  0.00  0.00    +0.000 A 
ATOM      7  C   UNL     1       2.450  -1.344  -0.567  0.00  0.00    +0.000 A 
ATOM      8  C   UNL     1       1.079  -1.590  -0.501  0.00  0.00    +0.000 A 
ATOM      9  C   UNL     1       0.197  -0.531  -0.264  0.00  0.00    +0.000 A 
ATOM     10  C   UNL     1      -1.255  -0.758  -0.246  0.00  0.00    +0.000 C 
ATOM     11  O   UNL     1      -1.721  -1.892  -0.270  0.00  0.00    +0.000 OA
ENDROOT
BRANCH   2  12
ATOM     12  C   UNL     1      -1.765   1.449   2.034  0.00  0.00    +0.000 A 
ATOM     13  C   UNL     1      -3.027   1.774   2.592  0.00  0.00    +0.000 A 
ATOM     14  C   UNL     1      -3.256   1.619   3.972  0.00  0.00    +0.000 A 
ATOM     15  C   UNL     1      -2.243   1.144   4.806  0.00  0.00    +0.000 A 
ATOM     16  C   UNL     1      -0.999   0.827   4.274  0.00  0.00    +0.000 A 
ATOM     17  C   UNL     1      -0.764   0.978   2.906  0.00  0.00    +0.000 A 
ATOM     18 CL   UNL     1      -4.773   1.998   4.717  0.00  0.00    +0.000 Cl
ATOM     19 CL   UNL     1      -4.302   2.384   1.578  0.00  0.00    +0.000 Cl
ENDBRANCH   2  12
TORSDOF 1
