REMARK  Name = *****
REMARK  3 active torsions:
REMARK  status: ('A' for Active; 'I' for Inactive)
REMARK    1  A    between atoms: C_1  and  C_2
REMARK    2  A    between atoms: N_9  and  N_12
REMARK    3  A    between atoms: C_13  and  C_14
REMARK                            x       y       z     vdW  Elec       q    Type
REMARK                         _______ _______ _______ _____ _____    ______ ____
ROOT
ATOM      1  C   UNL     1       0.622  -0.313   0.317  0.00  0.00    +0.000 C 
ATOM      2  C   UNL     1       2.016  -0.240  -0.234  0.00  0.00    +0.000 A 
ATOM      3  C   UNL     1       3.044  -0.987   0.359  0.00  0.00    +0.000 A 
ATOM      4  C   UNL     1       4.330  -0.872  -0.155  0.00  0.00    +0.000 A 
ATOM      5  C   UNL     1       4.617  -0.043  -1.233  0.00  0.00    +0.000 A 
ATOM      6  C   UNL     1       3.615   0.710  -1.823  0.00  0.00    +0.000 A 
ATOM      7  C   UNL     1       2.314   0.614  -1.315  0.00  0.00    +0.000 A 
ATOM      8  S   UNL     1       6.324  -0.105  -1.678  0.00  0.00    +0.000 S 
ATOM      9  N   UNL     1       6.663  -1.141  -0.339  0.00  0.00    +0.000 N 
ATOM     10  C   UNL     1       5.520  -1.587   0.339  0.00  0.00    +0.000 A 
ATOM     11  O   UNL     1       5.441  -2.419   1.233  0.00  0.00    +0.000 OA
ENDROOT
BRANCH   9  12
ATOM     12  N   UNL     1       7.753  -1.960  -0.393  0.00  0.00    +0.000 NA
ATOM     13  C   UNL     1       8.936  -1.426  -0.305  0.00  0.00    +0.000 C 
BRANCH  13  14
ATOM     14  C   UNL     1       9.292  -0.033   0.033  0.00  0.00    +0.000 A 
ATOM     15  C   UNL     1       8.702   0.572   1.151  0.00  0.00    +0.000 A 
ATOM     16  C   UNL     1       9.048   1.877   1.502  0.00  0.00    +0.000 A 
ATOM     17  C   UNL     1       9.991   2.575   0.748  0.00  0.00    +0.000 A 
ATOM     18  C   UNL     1      10.595   1.966  -0.354  0.00  0.00    +0.000 A 
ATOM     19  C   UNL     1      10.253   0.658  -0.711  0.00  0.00    +0.000 A 
ATOM     20 CL   UNL     1      11.027  -0.032  -2.092  0.00  0.00    +0.000 Cl
ENDBRANCH  13  14
ENDBRANCH   9  12
TORSDOF 2
