REMARK  Name = *****
REMARK  2 active torsions:
REMARK  status: ('A' for Active; 'I' for Inactive)
REMARK    1  A    between atoms: C_10  and  C_11
REMARK    2  A    between atoms: C_10  and  O_17
REMARK                            x       y       z     vdW  Elec       q    Type
REMARK                         _______ _______ _______ _____ _____    ______ ____
ROOT
ATOM      1  C   UNL     1       2.605   0.453  -0.220  0.00  0.00    +0.000 C 
ATOM      2  C   UNL     1       1.621   1.572   0.084  0.00  0.00    +0.000 C 
ATOM      3  C   UNL     1       0.305   1.098  -0.538  0.00  0.00    +0.000 C 
ATOM      4  C   UNL     1       0.414  -0.442  -0.640  0.00  0.00    +0.000 C 
ATOM      5  C   UNL     1       1.773  -0.807  -0.035  0.00  0.00    +0.000 C 
ATOM      6  C   UNL     1      -0.822  -0.926   0.159  0.00  0.00    +0.000 C 
ATOM      7  C   UNL     1      -0.882   0.100   1.301  0.00  0.00    +0.000 C 
ATOM      8  C   UNL     1      -0.941   1.296   0.348  0.00  0.00    +0.000 C 
ATOM      9  C   UNL     1      -2.202   0.957  -0.480  0.00  0.00    +0.000 C 
ATOM     10  C   UNL     1      -2.140  -0.597  -0.620  0.00  0.00    +0.000 C 
ENDROOT
BRANCH  10  11
ATOM     11  C   UNL     1      -3.428  -1.247  -0.123  0.00  0.00    +0.000 A 
ATOM     12  C   UNL     1      -4.639  -0.950  -0.780  0.00  0.00    +0.000 A 
ATOM     13  C   UNL     1      -5.850  -1.510  -0.365  0.00  0.00    +0.000 A 
ATOM     14  C   UNL     1      -5.875  -2.386   0.714  0.00  0.00    +0.000 A 
ATOM     15  C   UNL     1      -4.691  -2.705   1.372  0.00  0.00    +0.000 A 
ATOM     16  C   UNL     1      -3.478  -2.143   0.955  0.00  0.00    +0.000 A 
ENDBRANCH  10  11
BRANCH  10  17
ATOM     17  O   UNL     1      -2.017  -0.987  -1.988  0.00  0.00    +0.000 OA
ATOM     18  H   UNL     1      -1.210  -0.602  -2.364  0.00  0.00    +0.000 HD
ENDBRANCH  10  17
TORSDOF 2
