REMARK  Name = *****
REMARK  4 active torsions:
REMARK  status: ('A' for Active; 'I' for Inactive)
REMARK    1  A    between atoms: C_1  and  C_2
REMARK    2  A    between atoms: C_2  and  C_14
REMARK    3  A    between atoms: C_10  and  O_12
REMARK    4  A    between atoms: O_12  and  C_13
REMARK                            x       y       z     vdW  Elec       q    Type
REMARK                         _______ _______ _______ _____ _____    ______ ____
ROOT
ATOM      1  C   UNL     1       1.089   0.101   0.104  0.00  0.00    +0.000 C 
ATOM      2  C   UNL     1       2.596  -0.086  -0.155  0.00  0.00    +0.000 C 
ATOM      3  C   UNL     1       3.091  -1.283   0.685  0.00  0.00    +0.000 C 
ATOM      4  C   UNL     1       4.602  -1.425   0.573  0.00  0.00    +0.000 C 
ATOM      5  C   UNL     1       5.261  -0.096   0.789  0.00  0.00    +0.000 A 
ATOM      6  C   UNL     1       4.532   1.087   0.658  0.00  0.00    +0.000 A 
ATOM      7  O   UNL     1       3.205   1.136   0.329  0.00  0.00    +0.000 OA
ATOM      8  C   UNL     1       5.148   2.316   0.881  0.00  0.00    +0.000 A 
ATOM      9  C   UNL     1       6.504   2.370   1.206  0.00  0.00    +0.000 A 
ATOM     10  C   UNL     1       7.255   1.198   1.313  0.00  0.00    +0.000 A 
ATOM     11  C   UNL     1       6.630  -0.033   1.103  0.00  0.00    +0.000 A 
ENDROOT
BRANCH   2  12
ATOM     12  C   UNL     1       2.787  -0.258  -1.673  0.00  0.00    +0.000 A 
ATOM     13  C   UNL     1       3.258   0.798  -2.472  0.00  0.00    +0.000 A 
ATOM     14  C   UNL     1       3.420   0.645  -3.852  0.00  0.00    +0.000 A 
ATOM     15  C   UNL     1       3.102  -0.564  -4.463  0.00  0.00    +0.000 A 
ATOM     16  C   UNL     1       2.616  -1.618  -3.696  0.00  0.00    +0.000 A 
ATOM     17  C   UNL     1       2.454  -1.465  -2.316  0.00  0.00    +0.000 A 
ENDBRANCH   2  12
BRANCH  10  18
ATOM     18  O   UNL     1       8.572   1.390   1.627  0.00  0.00    +0.000 OA
ATOM     19  C   UNL     1       9.388   0.229   1.714  0.00  0.00    +0.000 C 
ENDBRANCH  10  18
TORSDOF 2
