REMARK  Name = *****
REMARK  1 active torsions:
REMARK  status: ('A' for Active; 'I' for Inactive)
REMARK    1  A    between atoms: C_2  and  C_12
REMARK                            x       y       z     vdW  Elec       q    Type
REMARK                         _______ _______ _______ _____ _____    ______ ____
ROOT
ATOM      1  C   UNL     1      -2.289   0.160  -0.412  0.00  0.00    +0.000 C 
ATOM      2  C   UNL     1      -1.810   1.332   0.438  0.00  0.00    +0.000 C 
ATOM      3  O   UNL     1      -0.519   1.789  -0.012  0.00  0.00    +0.000 OA
ATOM      4  C   UNL     1       0.429   0.803  -0.098  0.00  0.00    +0.000 A 
ATOM      5  C   UNL     1       1.761   1.215  -0.062  0.00  0.00    +0.000 A 
ATOM      6  C   UNL     1       2.785   0.268  -0.130  0.00  0.00    +0.000 A 
ATOM      7  C   UNL     1       2.481  -1.090  -0.244  0.00  0.00    +0.000 A 
ATOM      8  C   UNL     1       1.150  -1.503  -0.301  0.00  0.00    +0.000 A 
ATOM      9  C   UNL     1       0.128  -0.551  -0.235  0.00  0.00    +0.000 A 
ATOM     10  C   UNL     1      -1.284  -0.955  -0.345  0.00  0.00    +0.000 C 
ATOM     11  O   UNL     1      -1.607  -2.135  -0.431  0.00  0.00    +0.000 OA
ENDROOT
BRANCH   2  12
ATOM     12  C   UNL     1      -1.822   1.185   1.959  0.00  0.00    +0.000 A 
ATOM     13  C   UNL     1      -1.318   2.243   2.741  0.00  0.00    +0.000 A 
ATOM     14  C   UNL     1      -1.306   2.175   4.139  0.00  0.00    +0.000 A 
ATOM     15  C   UNL     1      -1.809   1.043   4.782  0.00  0.00    +0.000 A 
ATOM     16  C   UNL     1      -2.323  -0.009   4.022  0.00  0.00    +0.000 A 
ATOM     17  C   UNL     1      -2.334   0.061   2.624  0.00  0.00    +0.000 A 
ATOM     18 CL   UNL     1      -1.832   0.882   6.501  0.00  0.00    +0.000 Cl
ATOM     19 CL   UNL     1      -0.658   3.523   5.004  0.00  0.00    +0.000 Cl
ENDBRANCH   2  12
TORSDOF 1
