REMARK  Name = *****
REMARK  1 active torsions:
REMARK  status: ('A' for Active; 'I' for Inactive)
REMARK    1  A    between atoms: C_2  and  C_13
REMARK                            x       y       z     vdW  Elec       q    Type
REMARK                         _______ _______ _______ _____ _____    ______ ____
ROOT
ATOM      1  C   UNL     1      -2.473   0.801  -0.488  0.00  0.00    +0.000 C 
ATOM      2  C   UNL     1      -2.406  -0.540   0.231  0.00  0.00    +0.000 C 
ATOM      3  O   UNL     1      -1.274  -1.308  -0.210  0.00  0.00    +0.000 OA
ATOM      4  C   UNL     1      -0.087  -0.641  -0.069  0.00  0.00    +0.000 A 
ATOM      5  C   UNL     1       0.015   0.751  -0.025  0.00  0.00    +0.000 A 
ATOM      6  C   UNL     1      -1.211   1.557  -0.183  0.00  0.00    +0.000 C 
ATOM      7  O   UNL     1      -1.171   2.781  -0.127  0.00  0.00    +0.000 OA
ATOM      8  C   UNL     1       1.258   1.371   0.126  0.00  0.00    +0.000 A 
ATOM      9  C   UNL     1       2.402   0.582   0.217  0.00  0.00    +0.000 A 
ATOM     10  C   UNL     1       2.312  -0.810   0.150  0.00  0.00    +0.000 A 
ATOM     11  C   UNL     1       1.065  -1.422   0.002  0.00  0.00    +0.000 A 
ATOM     12 CL   UNL     1       3.942   1.326   0.399  0.00  0.00    +0.000 Cl
ENDROOT
BRANCH   2  13
ATOM     13  C   UNL     1      -3.671  -1.343  -0.022  0.00  0.00    +0.000 A 
ATOM     14  C   UNL     1      -3.834  -2.097  -1.198  0.00  0.00    +0.000 A 
ATOM     15  C   UNL     1      -5.012  -2.810  -1.425  0.00  0.00    +0.000 A 
ATOM     16  C   UNL     1      -6.032  -2.767  -0.484  0.00  0.00    +0.000 A 
ATOM     17  C   UNL     1      -5.898  -2.023   0.682  0.00  0.00    +0.000 A 
ATOM     18  C   UNL     1      -4.721  -1.309   0.913  0.00  0.00    +0.000 A 
ATOM     19  F   UNL     1      -7.163  -3.451  -0.703  0.00  0.00    +0.000 F 
ENDBRANCH   2  13
TORSDOF 1
