REMARK  Name = *****
REMARK  3 active torsions:
REMARK  status: ('A' for Active; 'I' for Inactive)
REMARK    1  A    between atoms: C_1  and  O_2
REMARK    2  A    between atoms: O_2  and  C_3
REMARK    3  A    between atoms: C_8  and  C_9
REMARK                            x       y       z     vdW  Elec       q    Type
REMARK                         _______ _______ _______ _____ _____    ______ ____
ROOT
ATOM      1  C   UNL     1       5.133   1.830  -2.056  0.00  0.00    +0.000 C 
ATOM      2  C   UNL     1       6.367   1.121  -2.626  0.00  0.00    +0.000 C 
ATOM      3  C   UNL     1       6.034  -0.307  -3.021  0.00  0.00    +0.000 C 
ATOM      4  C   UNL     1       4.801  -0.315  -3.871  0.00  0.00    +0.000 A 
ATOM      5  C   UNL     1       4.549  -1.387  -4.739  0.00  0.00    +0.000 A 
ATOM      6  C   UNL     1       3.397  -1.403  -5.526  0.00  0.00    +0.000 A 
ATOM      7  C   UNL     1       2.485  -0.353  -5.447  0.00  0.00    +0.000 A 
ATOM      8  C   UNL     1       2.723   0.708  -4.574  0.00  0.00    +0.000 A 
ATOM      9  C   UNL     1       3.873   0.725  -3.784  0.00  0.00    +0.000 A 
ATOM     10  O   UNL     1       3.998   1.797  -2.943  0.00  0.00    +0.000 OA
ENDROOT
BRANCH   1  16
ATOM     11  C   UNL     1       5.552   1.849   0.461  0.00  0.00    +0.000 A 
ATOM     12  C   UNL     1       5.238   1.427   1.758  0.00  0.00    +0.000 A 
ATOM     13  C   UNL     1       4.165   0.564   1.983  0.00  0.00    +0.000 A 
ATOM     14  C   UNL     1       3.398   0.115   0.915  0.00  0.00    +0.000 A 
ATOM     15  C   UNL     1       3.704   0.526  -0.382  0.00  0.00    +0.000 A 
ATOM     16  C   UNL     1       4.783   1.393  -0.633  0.00  0.00    +0.000 A 
BRANCH  11  18
ATOM     17  C   UNL     1       7.278   3.304   1.238  0.00  0.00    +0.000 C 
ATOM     18  O   UNL     1       6.590   2.693   0.155  0.00  0.00    +0.000 OA
ENDBRANCH  11  18
ENDBRANCH   1  16
TORSDOF 2
