REMARK  Name = *****
REMARK  1 active torsions:
REMARK  status: ('A' for Active; 'I' for Inactive)
REMARK    1  A    between atoms: C_8  and  C_10
REMARK                            x       y       z     vdW  Elec       q    Type
REMARK                         _______ _______ _______ _____ _____    ______ ____
ROOT
ATOM      1  C   UNL     1      -2.193   0.818  -0.237  0.00  0.00    +0.000 C 
ATOM      2  C   UNL     1      -2.252  -0.668   0.156  0.00  0.00    +0.000 C 
ATOM      3  C   UNL     1      -0.975  -1.438  -0.206  0.00  0.00    +0.000 C 
ATOM      4  C   UNL     1       0.231  -0.696   0.342  0.00  0.00    +0.000 C 
ATOM      5  C   UNL     1       0.290   0.707  -0.226  0.00  0.00    +0.000 C 
ATOM      6  C   UNL     1      -0.908   1.516   0.233  0.00  0.00    +0.000 C 
ATOM      7  C   UNL     1       1.671   1.117   0.226  0.00  0.00    +0.000 C 
ATOM      8  C   UNL     1       2.462  -0.188   0.010  0.00  0.00    +0.000 C 
ATOM      9  O   UNL     1       1.492  -1.271   0.002  0.00  0.00    +0.000 OA
ENDROOT
BRANCH   8  10
ATOM     10  C   UNL     1       3.273  -0.174  -1.271  0.00  0.00    +0.000 A 
ATOM     11  C   UNL     1       4.486   0.533  -1.310  0.00  0.00    +0.000 A 
ATOM     12  C   UNL     1       5.249   0.581  -2.479  0.00  0.00    +0.000 A 
ATOM     13  C   UNL     1       4.808  -0.077  -3.625  0.00  0.00    +0.000 A 
ATOM     14  C   UNL     1       3.607  -0.782  -3.603  0.00  0.00    +0.000 A 
ATOM     15  C   UNL     1       2.844  -0.830  -2.434  0.00  0.00    +0.000 A 
ENDBRANCH   8  10
TORSDOF 1
