REMARK  Name = *****
REMARK  3 active torsions:
REMARK  status: ('A' for Active; 'I' for Inactive)
REMARK    1  A    between atoms: C_1  and  C_2
REMARK    2  A    between atoms: C_4  and  C_13
REMARK    3  A    between atoms: C_9  and  C_12
REMARK                            x       y       z     vdW  Elec       q    Type
REMARK                         _______ _______ _______ _____ _____    ______ ____
ROOT
ATOM      1  C   UNL     1       1.014   0.142  -0.230  0.00  0.00    +0.000 C 
ATOM      2  C   UNL     1       2.537   0.027  -0.106  0.00  0.00    +0.000 C 
ATOM      3  C   UNL     1       2.996  -1.433  -0.099  0.00  0.00    +0.000 C 
ATOM      4  C   UNL     1       2.775  -2.045   1.285  0.00  0.00    +0.000 C 
ATOM      5  O   UNL     1       3.541  -1.367   2.290  0.00  0.00    +0.000 OA
ATOM      6  C   UNL     1       3.492  -0.001   2.240  0.00  0.00    +0.000 A 
ATOM      7  C   UNL     1       3.035   0.726   1.136  0.00  0.00    +0.000 A 
ATOM      8  C   UNL     1       3.055   2.131   1.191  0.00  0.00    +0.000 A 
ATOM      9  C   UNL     1       3.527   2.802   2.326  0.00  0.00    +0.000 A 
ATOM     10  C   UNL     1       3.991   2.056   3.414  0.00  0.00    +0.000 A 
ATOM     11  C   UNL     1       3.977   0.662   3.367  0.00  0.00    +0.000 A 
ATOM     12  C   UNL     1       3.552   4.301   2.383  0.00  0.00    +0.000 C 
ENDROOT
BRANCH   4  13
ATOM     13  C   UNL     1       3.160  -3.516   1.277  0.00  0.00    +0.000 A 
ATOM     14  C   UNL     1       4.491  -3.924   1.458  0.00  0.00    +0.000 A 
ATOM     15  C   UNL     1       4.832  -5.278   1.419  0.00  0.00    +0.000 A 
ATOM     16  C   UNL     1       3.849  -6.239   1.192  0.00  0.00    +0.000 A 
ATOM     17  C   UNL     1       2.525  -5.848   1.003  0.00  0.00    +0.000 A 
ATOM     18  C   UNL     1       2.182  -4.495   1.043  0.00  0.00    +0.000 A 
ENDBRANCH   4  13
TORSDOF 1
