REMARK  Name = *****
REMARK  1 active torsions:
REMARK  status: ('A' for Active; 'I' for Inactive)
REMARK    1  A    between atoms: C_11  and  C_12
REMARK                            x       y       z     vdW  Elec       q    Type
REMARK                         _______ _______ _______ _____ _____    ______ ____
ROOT
ATOM      1  C   UNL     1      -2.483   0.675  -0.233  0.00  0.00    +0.000 C 
ATOM      2  C   UNL     1      -1.292   1.523   0.188  0.00  0.00    +0.000 C 
ATOM      3  C   UNL     1      -0.015   0.744   0.062  0.00  0.00    +0.000 A 
ATOM      4  C   UNL     1      -0.033  -0.651  -0.041  0.00  0.00    +0.000 A 
ATOM      5  C   UNL     1       1.158  -1.366  -0.172  0.00  0.00    +0.000 A 
ATOM      6  C   UNL     1       2.382  -0.697  -0.171  0.00  0.00    +0.000 A 
ATOM      7  C   UNL     1       2.408   0.691  -0.044  0.00  0.00    +0.000 A 
ATOM      8  C   UNL     1       1.218   1.413   0.074  0.00  0.00    +0.000 A 
ATOM      9  I   UNL     1       4.229   1.694  -0.033  0.00  0.00    +0.000 I 
ATOM     10  O   UNL     1      -1.182  -1.395  -0.058  0.00  0.00    +0.000 OA
ATOM     11  C   UNL     1      -2.354  -0.707   0.409  0.00  0.00    +0.000 C 
ENDROOT
BRANCH  11  12
ATOM     12  C   UNL     1      -3.573  -1.557   0.098  0.00  0.00    +0.000 A 
ATOM     13  C   UNL     1      -4.581  -1.722   1.060  0.00  0.00    +0.000 A 
ATOM     14  C   UNL     1      -5.717  -2.483   0.776  0.00  0.00    +0.000 A 
ATOM     15  C   UNL     1      -5.861  -3.083  -0.473  0.00  0.00    +0.000 A 
ATOM     16  C   UNL     1      -4.870  -2.925  -1.439  0.00  0.00    +0.000 A 
ATOM     17  C   UNL     1      -3.734  -2.165  -1.157  0.00  0.00    +0.000 A 
ENDBRANCH  11  12
TORSDOF 1
