REMARK  Name = *****
REMARK  3 active torsions:
REMARK  status: ('A' for Active; 'I' for Inactive)
REMARK    1  A    between atoms: C_7  and  C_11
REMARK    2  A    between atoms: C_11  and  C_12
REMARK    3  A    between atoms: C_11  and  O_20
REMARK                            x       y       z     vdW  Elec       q    Type
REMARK                         _______ _______ _______ _____ _____    ______ ____
ROOT
ATOM      1  C   UNL     1       1.014  -2.565   1.265  0.00  0.00    +0.000 C 
ENDROOT
BRANCH   1   8
ATOM      2  C   UNL     1      -2.683  -0.249  -0.097  0.00  0.00    +0.000 A 
ATOM      3  C   UNL     1      -2.337   1.113  -0.104  0.00  0.00    +0.000 A 
ATOM      4  C   UNL     1      -0.998   1.501  -0.070  0.00  0.00    +0.000 A 
ATOM      5  C   UNL     1      -0.044   0.499  -0.029  0.00  0.00    +0.000 A 
ATOM      6  C   UNL     1      -0.369  -0.843  -0.015  0.00  0.00    +0.000 A 
ATOM      7  C   UNL     1      -1.696  -1.240  -0.055  0.00  0.00    +0.000 A 
ATOM      8  C   UNL     1       0.877  -1.651   0.022  0.00  0.00    +0.000 C 
ATOM      9  O   UNL     1       1.915  -0.630   0.058  0.00  0.00    +0.000 OA
ATOM     10  C   UNL     1       1.403   0.636   0.020  0.00  0.00    +0.000 C 
ATOM     11  O   UNL     1       2.039   1.669   0.056  0.00  0.00    +0.000 OA
ENDBRANCH   1   8
BRANCH   1  12
ATOM     12  C   UNL     1       2.159  -3.557   1.113  0.00  0.00    +0.000 A 
ATOM     13  C   UNL     1       2.003  -4.758   0.394  0.00  0.00    +0.000 A 
ATOM     14  C   UNL     1       3.067  -5.653   0.242  0.00  0.00    +0.000 A 
ATOM     15  C   UNL     1       4.305  -5.355   0.802  0.00  0.00    +0.000 A 
ATOM     16  C   UNL     1       4.490  -4.172   1.509  0.00  0.00    +0.000 A 
ATOM     17  C   UNL     1       3.426  -3.280   1.662  0.00  0.00    +0.000 A 
ATOM     18 CL   UNL     1       5.616  -6.453   0.613  0.00  0.00    +0.000 Cl
ATOM     19 CL   UNL     1       0.501  -5.184  -0.353  0.00  0.00    +0.000 Cl
ENDBRANCH   1  12
BRANCH   1  20
ATOM     20  O   UNL     1       1.187  -1.795   2.465  0.00  0.00    +0.000 OA
ATOM     21  H   UNL     1       2.012  -1.288   2.408  0.00  0.00    +0.000 HD
ENDBRANCH   1  20
TORSDOF 3
