REMARK  Name = *****
REMARK  7 active torsions:
REMARK  status: ('A' for Active; 'I' for Inactive)
REMARK    1  A    between atoms: C_1  and  O_2
REMARK    2  A    between atoms: O_2  and  C_3
REMARK    3  A    between atoms: C_3  and  C_5
REMARK    4  A    between atoms: C_5  and  C_6
REMARK    5  A    between atoms: C_5  and  C_13
REMARK    6  A    between atoms: C_5  and  O_19
REMARK    7  A    between atoms: C_6  and  C_7
REMARK                            x       y       z     vdW  Elec       q    Type
REMARK                         _______ _______ _______ _____ _____    ______ ____
ROOT
ATOM      1  C   UNL     1       4.529  -1.176  -0.260  0.00  0.00    +0.000 C 
ENDROOT
BRANCH   1   2
ATOM      2  C   UNL     1       5.169  -0.917   1.112  0.00  0.00    +0.000 A 
ATOM      3  C   UNL     1       4.417  -0.693   2.280  0.00  0.00    +0.000 A 
ATOM      4  C   UNL     1       5.037  -0.455   3.511  0.00  0.00    +0.000 A 
ATOM      5  C   UNL     1       6.425  -0.443   3.606  0.00  0.00    +0.000 A 
ATOM      6  C   UNL     1       7.195  -0.677   2.472  0.00  0.00    +0.000 A 
ATOM      7  C   UNL     1       6.574  -0.914   1.243  0.00  0.00    +0.000 A 
ENDBRANCH   1   2
BRANCH   1   8
ATOM      8  C   UNL     1       2.991  -1.395  -0.224  0.00  0.00    +0.000 C 
ATOM      9  C   UNL     1       2.426  -2.618  -0.262  0.00  0.00    +0.000 C 
BRANCH   8  11
ATOM     10  C   UNL     1       0.850  -0.285  -0.041  0.00  0.00    +0.000 C 
ATOM     11  O   UNL     1       2.267  -0.219  -0.125  0.00  0.00    +0.000 OA
ENDBRANCH   8  11
ENDBRANCH   1   8
BRANCH   1  12
ATOM     12  O   UNL     1       5.135  -2.429  -0.686  0.00  0.00    +0.000 OA
ATOM     13  H   UNL     1       4.787  -2.677  -1.556  0.00  0.00    +0.000 HD
ENDBRANCH   1  12
BRANCH   1  14
ATOM     14  C   UNL     1       4.978  -0.158  -1.363  0.00  0.00    +0.000 C 
BRANCH  14  15
ATOM     15  C   UNL     1       4.498   1.314  -1.357  0.00  0.00    +0.000 C 
ATOM     16  C   UNL     1       5.129   2.042  -2.565  0.00  0.00    +0.000 C 
ATOM     17  C   UNL     1       4.713   3.508  -2.641  0.00  0.00    +0.000 C 
ATOM     18  C   UNL     1       5.039   4.245  -1.349  0.00  0.00    +0.000 C 
ATOM     19  C   UNL     1       4.411   3.551  -0.147  0.00  0.00    +0.000 C 
ATOM     20  C   UNL     1       4.809   2.077  -0.063  0.00  0.00    +0.000 C 
ENDBRANCH  14  15
ENDBRANCH   1  14
TORSDOF 6
