REMARK  Name = *****
REMARK  3 active torsions:
REMARK  status: ('A' for Active; 'I' for Inactive)
REMARK    1  A    between atoms: C_10  and  C_11
REMARK    2  A    between atoms: C_11  and  C_12
REMARK    3  A    between atoms: C_11  and  O_19
REMARK                            x       y       z     vdW  Elec       q    Type
REMARK                         _______ _______ _______ _____ _____    ______ ____
ROOT
ATOM      1  C   UNL     1       2.343  -0.758  -0.527  0.00  0.00    +0.000 A 
ATOM      2  C   UNL     1       2.360   0.629  -0.540  0.00  0.00    +0.000 A 
ATOM      3  C   UNL     1       1.177   1.344  -0.334  0.00  0.00    +0.000 A 
ATOM      4  C   UNL     1      -0.063   0.697  -0.110  0.00  0.00    +0.000 A 
ATOM      5  C   UNL     1      -0.055  -0.724  -0.097  0.00  0.00    +0.000 A 
ATOM      6  C   UNL     1       1.143  -1.428  -0.306  0.00  0.00    +0.000 A 
ATOM      7  C   UNL     1      -1.243  -1.432   0.126  0.00  0.00    +0.000 A 
ATOM      8  C   UNL     1      -2.443  -0.764   0.340  0.00  0.00    +0.000 A 
ATOM      9  C   UNL     1      -2.471   0.626   0.328  0.00  0.00    +0.000 A 
ATOM     10  C   UNL     1      -1.300   1.380   0.103  0.00  0.00    +0.000 A 
ENDROOT
BRANCH  10  11
ATOM     11  C   UNL     1      -1.390   2.909   0.075  0.00  0.00    +0.000 C 
BRANCH  11  12
ATOM     12  C   UNL     1      -1.292   3.526  -1.314  0.00  0.00    +0.000 A 
ATOM     13  C   UNL     1      -2.053   2.988  -2.372  0.00  0.00    +0.000 A 
ATOM     14  C   UNL     1      -2.005   3.539  -3.655  0.00  0.00    +0.000 A 
ATOM     15  C   UNL     1      -1.205   4.647  -3.906  0.00  0.00    +0.000 A 
ATOM     16  C   UNL     1      -0.461   5.210  -2.871  0.00  0.00    +0.000 A 
ATOM     17  C   UNL     1      -0.508   4.661  -1.584  0.00  0.00    +0.000 A 
ATOM     18 CL   UNL     1       0.417   5.460  -0.361  0.00  0.00    +0.000 Cl
ENDBRANCH  11  12
BRANCH  11  19
ATOM     19  O   UNL     1      -2.613   3.363   0.670  0.00  0.00    +0.000 OA
ATOM     20  H   UNL     1      -3.365   3.054   0.141  0.00  0.00    +0.000 HD
ENDBRANCH  11  19
ENDBRANCH  10  11
TORSDOF 3
