REMARK  Name = *****
REMARK  6 active torsions:
REMARK  status: ('A' for Active; 'I' for Inactive)
REMARK    1  A    between atoms: C_1  and  C_2
REMARK    2  A    between atoms: C_5  and  C_8
REMARK    3  A    between atoms: C_8  and  C_9
REMARK    4  A    between atoms: C_8  and  O_19
REMARK    5  A    between atoms: C_9  and  S_12
REMARK    6  A    between atoms: S_12  and  C_13
REMARK                            x       y       z     vdW  Elec       q    Type
REMARK                         _______ _______ _______ _____ _____    ______ ____
ROOT
ATOM      1  C   UNL     1      -2.785  -0.036  -0.080  0.00  0.00    +0.000 C 
ENDROOT
BRANCH   1   6
ATOM      2  C   UNL     1      -6.082   4.772   0.357  0.00  0.00    +0.000 C 
ATOM      3  C   UNL     1      -5.215   3.555   0.230  0.00  0.00    +0.000 A 
ATOM      4  C   UNL     1      -4.489   3.083   1.328  0.00  0.00    +0.000 A 
ATOM      5  C   UNL     1      -3.704   1.932   1.217  0.00  0.00    +0.000 A 
ATOM      6  C   UNL     1      -3.637   1.217   0.010  0.00  0.00    +0.000 A 
ATOM      7  C   UNL     1      -4.377   1.693  -1.083  0.00  0.00    +0.000 A 
ATOM      8  C   UNL     1      -5.162   2.845  -0.973  0.00  0.00    +0.000 A 
ENDBRANCH   1   6
BRANCH   1   9
ATOM      9  C   UNL     1      -3.436  -1.264   0.577  0.00  0.00    +0.000 C 
ATOM     10  C   UNL     1      -3.209  -1.518   2.060  0.00  0.00    +0.000 C 
ATOM     11  C   UNL     1      -2.463  -2.341   1.061  0.00  0.00    +0.000 C 
BRANCH   9  12
ATOM     12  S   UNL     1      -4.861  -1.906  -0.282  0.00  0.00    +0.000 S 
BRANCH  12  13
ATOM     13  C   UNL     1      -6.117  -1.757   0.974  0.00  0.00    +0.000 A 
ATOM     14  C   UNL     1      -6.671  -0.519   1.310  0.00  0.00    +0.000 A 
ATOM     15  C   UNL     1      -7.662  -0.431   2.290  0.00  0.00    +0.000 A 
ATOM     16  C   UNL     1      -8.115  -1.583   2.931  0.00  0.00    +0.000 A 
ATOM     17  C   UNL     1      -7.582  -2.824   2.588  0.00  0.00    +0.000 A 
ATOM     18  C   UNL     1      -6.589  -2.911   1.610  0.00  0.00    +0.000 A 
ENDBRANCH  12  13
ENDBRANCH   9  12
ENDBRANCH   1   9
BRANCH   1  19
ATOM     19  O   UNL     1      -2.435  -0.335  -1.436  0.00  0.00    +0.000 OA
ATOM     20  H   UNL     1      -3.238  -0.535  -1.941  0.00  0.00    +0.000 HD
ENDBRANCH   1  19
TORSDOF 5
