REMARK  Name = *****
REMARK  3 active torsions:
REMARK  status: ('A' for Active; 'I' for Inactive)
REMARK    1  A    between atoms: C_1  and  O_2
REMARK    2  A    between atoms: O_2  and  C_3
REMARK    3  A    between atoms: C_12  and  C_13
REMARK                            x       y       z     vdW  Elec       q    Type
REMARK                         _______ _______ _______ _____ _____    ______ ____
ROOT
ATOM      1  C   UNL     1       2.939  -0.897   1.011  0.00  0.00    +0.000 C 
ATOM      2  C   UNL     1       4.412  -0.508   1.206  0.00  0.00    +0.000 C 
ATOM      3  C   UNL     1       4.545   0.816   1.914  0.00  0.00    +0.000 A 
ATOM      4  C   UNL     1       5.779   1.482   1.925  0.00  0.00    +0.000 A 
ATOM      5  C   UNL     1       5.911   2.713   2.568  0.00  0.00    +0.000 A 
ATOM      6  C   UNL     1       4.814   3.289   3.207  0.00  0.00    +0.000 A 
ATOM      7  C   UNL     1       3.586   2.628   3.210  0.00  0.00    +0.000 A 
ATOM      8  C   UNL     1       3.456   1.389   2.581  0.00  0.00    +0.000 A 
ATOM      9  O   UNL     1       2.216   0.810   2.642  0.00  0.00    +0.000 OA
ATOM     10  C   UNL     1       2.219  -0.598   2.352  0.00  0.00    +0.000 C 
ENDROOT
BRANCH  10  11
ATOM     11  C   UNL     1       0.819  -1.188   2.468  0.00  0.00    +0.000 A 
ATOM     12  C   UNL     1      -0.322  -0.380   2.594  0.00  0.00    +0.000 A 
ATOM     13  C   UNL     1      -1.593  -0.949   2.707  0.00  0.00    +0.000 A 
ATOM     14  C   UNL     1      -1.742  -2.334   2.705  0.00  0.00    +0.000 A 
ATOM     15  C   UNL     1      -0.620  -3.152   2.594  0.00  0.00    +0.000 A 
ATOM     16  C   UNL     1       0.651  -2.584   2.479  0.00  0.00    +0.000 A 
ENDBRANCH  10  11
BRANCH   1  18
ATOM     17  C   UNL     1       1.218  -0.563  -0.641  0.00  0.00    +0.000 C 
ATOM     18  O   UNL     1       2.477  -0.156  -0.133  0.00  0.00    +0.000 OA
ENDBRANCH   1  18
TORSDOF 2
