REMARK  Name = *****
REMARK  4 active torsions:
REMARK  status: ('A' for Active; 'I' for Inactive)
REMARK    1  A    between atoms: C_1  and  C_2
REMARK    2  A    between atoms: C_2  and  C_3
REMARK    3  A    between atoms: C_2  and  O_12
REMARK    4  A    between atoms: O_12  and  C_13
REMARK                            x       y       z     vdW  Elec       q    Type
REMARK                         _______ _______ _______ _____ _____    ______ ____
ROOT
ATOM      1  C   UNL     1       0.984   0.113   0.109  0.00  0.00    +0.000 C 
ATOM      2  C   UNL     1       2.499   0.125  -0.083  0.00  0.00    +0.000 C 
ENDROOT
BRANCH   2   3
ATOM      3  C   UNL     1       2.858   0.426  -1.520  0.00  0.00    +0.000 A 
ATOM      4  N   UNL     1       3.271  -0.496  -2.367  0.00  0.00    +0.000 NA
ATOM      5  C   UNL     1       3.524   0.071  -3.605  0.00  0.00    +0.000 A 
ATOM      6  C   UNL     1       3.980  -0.614  -4.749  0.00  0.00    +0.000 A 
ATOM      7  C   UNL     1       4.196   0.086  -5.941  0.00  0.00    +0.000 A 
ATOM      8  C   UNL     1       3.963   1.457  -6.003  0.00  0.00    +0.000 A 
ATOM      9  C   UNL     1       3.509   2.159  -4.882  0.00  0.00    +0.000 A 
ATOM     10  C   UNL     1       3.294   1.444  -3.692  0.00  0.00    +0.000 A 
ATOM     11  S   UNL     1       2.740   2.017  -2.168  0.00  0.00    +0.000 S 
ENDBRANCH   2   3
BRANCH   2  12
ATOM     12  O   UNL     1       3.037   1.133   0.786  0.00  0.00    +0.000 OA
BRANCH  12  13
ATOM     13  C   UNL     1       4.320   0.991   1.238  0.00  0.00    +0.000 A 
ATOM     14  C   UNL     1       5.281   0.113   0.735  0.00  0.00    +0.000 A 
ATOM     15  C   UNL     1       6.565   0.086   1.289  0.00  0.00    +0.000 A 
ATOM     16  C   UNL     1       6.895   0.937   2.342  0.00  0.00    +0.000 A 
ATOM     17  C   UNL     1       5.944   1.823   2.840  0.00  0.00    +0.000 A 
ATOM     18  C   UNL     1       4.663   1.851   2.286  0.00  0.00    +0.000 A 
ENDBRANCH  12  13
ENDBRANCH   2  12
TORSDOF 3
