REMARK  Name = *****
REMARK  3 active torsions:
REMARK  status: ('A' for Active; 'I' for Inactive)
REMARK    1  A    between atoms: C_1  and  C_2
REMARK    2  A    between atoms: C_5  and  C_8
REMARK    3  A    between atoms: C_17  and  C_19
REMARK                            x       y       z     vdW  Elec       q    Type
REMARK                         _______ _______ _______ _____ _____    ______ ____
ROOT
ATOM      1  C   UNL     1      -3.631  -0.027   0.573  0.00  0.00    +0.000 C 
ATOM      2  C   UNL     1      -4.304  -0.345   1.902  0.00  0.00    +0.000 C 
ATOM      3  C   UNL     1      -5.789  -0.213   1.717  0.00  0.00    +0.000 C 
ATOM      4  O   UNL     1      -6.594  -0.882   2.356  0.00  0.00    +0.000 OA
ATOM      5  C   UNL     1      -6.241   0.826   0.772  0.00  0.00    +0.000 A 
ATOM      6  C   UNL     1      -5.284   1.546   0.057  0.00  0.00    +0.000 A 
ATOM      7  O   UNL     1      -3.938   1.312   0.147  0.00  0.00    +0.000 OA
ATOM      8  C   UNL     1      -5.685   2.586  -0.778  0.00  0.00    +0.000 A 
ATOM      9  C   UNL     1      -7.043   2.881  -0.925  0.00  0.00    +0.000 A 
ATOM     10  C   UNL     1      -8.013   2.138  -0.238  0.00  0.00    +0.000 A 
ATOM     11  C   UNL     1      -7.602   1.115   0.627  0.00  0.00    +0.000 A 
ATOM     12  C   UNL     1      -9.468   2.478  -0.370  0.00  0.00    +0.000 C 
ENDROOT
BRANCH   1  17
ATOM     13  C   UNL     1       2.147  -0.679   1.121  0.00  0.00    +0.000 C 
ATOM     14  C   UNL     1       0.668  -0.495   0.949  0.00  0.00    +0.000 A 
ATOM     15  C   UNL     1      -0.122  -1.529   0.436  0.00  0.00    +0.000 A 
ATOM     16  C   UNL     1      -1.504  -1.369   0.306  0.00  0.00    +0.000 A 
ATOM     17  C   UNL     1      -2.125  -0.172   0.692  0.00  0.00    +0.000 A 
ATOM     18  C   UNL     1      -1.331   0.853   1.226  0.00  0.00    +0.000 A 
ATOM     19  C   UNL     1       0.050   0.692   1.355  0.00  0.00    +0.000 A 
ENDBRANCH   1  17
TORSDOF 1
