REMARK  Name = *****
REMARK  1 active torsions:
REMARK  status: ('A' for Active; 'I' for Inactive)
REMARK    1  A    between atoms: C_2  and  C_12
REMARK                            x       y       z     vdW  Elec       q    Type
REMARK                         _______ _______ _______ _____ _____    ______ ____
ROOT
ATOM      1  C   UNL     1      -2.316   0.299  -0.354  0.00  0.00    +0.000 C 
ATOM      2  C   UNL     1      -1.775   1.470   0.450  0.00  0.00    +0.000 C 
ATOM      3  O   UNL     1      -0.440   1.834   0.057  0.00  0.00    +0.000 OA
ATOM      4  C   UNL     1       0.445   0.796  -0.032  0.00  0.00    +0.000 A 
ATOM      5  C   UNL     1       1.798   1.128   0.020  0.00  0.00    +0.000 A 
ATOM      6  C   UNL     1       2.768   0.126  -0.054  0.00  0.00    +0.000 A 
ATOM      7  C   UNL     1       2.387  -1.209  -0.189  0.00  0.00    +0.000 A 
ATOM      8  C   UNL     1       1.035  -1.544  -0.259  0.00  0.00    +0.000 A 
ATOM      9  C   UNL     1       0.068  -0.536  -0.187  0.00  0.00    +0.000 A 
ATOM     10  C   UNL     1      -1.363  -0.862  -0.306  0.00  0.00    +0.000 C 
ATOM     11  O   UNL     1      -1.742  -2.023  -0.418  0.00  0.00    +0.000 OA
ENDROOT
BRANCH   2  12
ATOM     12  C   UNL     1      -1.818   1.318   1.959  0.00  0.00    +0.000 A 
ATOM     13  C   UNL     1      -2.063   0.203   2.742  0.00  0.00    +0.000 A 
ATOM     14  C   UNL     1      -2.014   0.489   4.138  0.00  0.00    +0.000 A 
ATOM     15  C   UNL     1      -1.741   1.814   4.384  0.00  0.00    +0.000 A 
ATOM     16  S   UNL     1      -1.552   2.708   2.942  0.00  0.00    +0.000 S 
ENDBRANCH   2  12
TORSDOF 1
