REMARK  Name = *****
REMARK  1 active torsions:
REMARK  status: ('A' for Active; 'I' for Inactive)
REMARK    1  A    between atoms: C_3  and  C_13
REMARK                            x       y       z     vdW  Elec       q    Type
REMARK                         _______ _______ _______ _____ _____    ______ ____
ROOT
ATOM      1  C   UNL     1      -3.271  -0.105  -0.268  0.00  0.00    +0.000 C 
ATOM      2  C   UNL     1      -1.987   0.132   0.049  0.00  0.00    +0.000 C 
ATOM      3  C   UNL     1      -1.455   1.435   0.585  0.00  0.00    +0.000 C 
ATOM      4  O   UNL     1      -0.203   1.804  -0.023  0.00  0.00    +0.000 OA
ATOM      5  C   UNL     1       0.734   0.813  -0.090  0.00  0.00    +0.000 A 
ATOM      6  C   UNL     1       2.067   1.218  -0.150  0.00  0.00    +0.000 A 
ATOM      7  C   UNL     1       3.083   0.265  -0.234  0.00  0.00    +0.000 A 
ATOM      8  C   UNL     1       2.768  -1.093  -0.272  0.00  0.00    +0.000 A 
ATOM      9  C   UNL     1       1.433  -1.500  -0.233  0.00  0.00    +0.000 A 
ATOM     10  C   UNL     1       0.418  -0.541  -0.144  0.00  0.00    +0.000 A 
ATOM     11  C   UNL     1      -0.995  -0.955  -0.149  0.00  0.00    +0.000 C 
ATOM     12  O   UNL     1      -1.317  -2.130  -0.278  0.00  0.00    +0.000 OA
ENDROOT
BRANCH   3  13
ATOM     13  C   UNL     1      -1.350   1.561   2.108  0.00  0.00    +0.000 A 
ATOM     14  C   UNL     1      -1.200   2.826   2.716  0.00  0.00    +0.000 A 
ATOM     15  C   UNL     1      -1.082   2.955   4.104  0.00  0.00    +0.000 A 
ATOM     16  C   UNL     1      -1.108   1.822   4.908  0.00  0.00    +0.000 A 
ATOM     17  C   UNL     1      -1.254   0.562   4.340  0.00  0.00    +0.000 A 
ATOM     18  C   UNL     1      -1.373   0.432   2.952  0.00  0.00    +0.000 A 
ATOM     19 CL   UNL     1      -0.963   1.979   6.615  0.00  0.00    +0.000 Cl
ATOM     20 CL   UNL     1      -1.163   4.291   1.795  0.00  0.00    +0.000 Cl
ENDBRANCH   3  13
TORSDOF 1
