REMARK  Name = *****
REMARK  6 active torsions:
REMARK  status: ('A' for Active; 'I' for Inactive)
REMARK    1  A    between atoms: C_1  and  C_2
REMARK    2  A    between atoms: C_2  and  O_3
REMARK    3  A    between atoms: O_3  and  C_4
REMARK    4  A    between atoms: C_4  and  C_5
REMARK    5  A    between atoms: C_4  and  O_11
REMARK    6  A    between atoms: O_11  and  C_12
REMARK                            x       y       z     vdW  Elec       q    Type
REMARK                         _______ _______ _______ _____ _____    ______ ____
ROOT
ATOM      1  C   UNL     1       4.170  -0.886   0.852  0.00  0.00    +0.000 C 
ENDROOT
BRANCH   1   2
ATOM      2  C   UNL     1       4.663   0.410   1.478  0.00  0.00    +0.000 A 
ATOM      3  C   UNL     1       4.241   0.790   2.762  0.00  0.00    +0.000 A 
ATOM      4  C   UNL     1       4.693   1.978   3.338  0.00  0.00    +0.000 A 
ATOM      5  C   UNL     1       5.576   2.798   2.638  0.00  0.00    +0.000 A 
ATOM      6  C   UNL     1       6.011   2.430   1.366  0.00  0.00    +0.000 A 
ATOM      7  C   UNL     1       5.560   1.241   0.789  0.00  0.00    +0.000 A 
ENDBRANCH   1   2
BRANCH   1   8
ATOM      8  O   UNL     1       2.741  -0.952   0.930  0.00  0.00    +0.000 OA
BRANCH   8  10
ATOM      9  C   UNL     1       0.599  -0.349   0.080  0.00  0.00    +0.000 C 
ATOM     10  C   UNL     1       2.097  -0.164  -0.066  0.00  0.00    +0.000 C 
ENDBRANCH   8  10
ENDBRANCH   1   8
BRANCH   1  11
ATOM     11  O   UNL     1       4.783  -1.945   1.598  0.00  0.00    +0.000 OA
BRANCH  11  12
ATOM     12  C   UNL     1       4.799  -3.194   1.044  0.00  0.00    +0.000 A 
ATOM     13  C   UNL     1       4.034  -3.624  -0.040  0.00  0.00    +0.000 A 
ATOM     14  C   UNL     1       4.146  -4.940  -0.502  0.00  0.00    +0.000 A 
ATOM     15  C   UNL     1       5.017  -5.831   0.122  0.00  0.00    +0.000 A 
ATOM     16  C   UNL     1       5.774  -5.411   1.212  0.00  0.00    +0.000 A 
ATOM     17  C   UNL     1       5.661  -4.098   1.672  0.00  0.00    +0.000 A 
ENDBRANCH  11  12
ENDBRANCH   1  11
TORSDOF 5
