REMARK  Name = *****
REMARK  4 active torsions:
REMARK  status: ('A' for Active; 'I' for Inactive)
REMARK    1  A    between atoms: C_6  and  C_7
REMARK    2  A    between atoms: C_7  and  C_8
REMARK    3  A    between atoms: C_7  and  O_17
REMARK    4  A    between atoms: C_8  and  C_9
REMARK                            x       y       z     vdW  Elec       q    Type
REMARK                         _______ _______ _______ _____ _____    ______ ____
ROOT
ATOM      1  C   UNL     1      -5.434  -0.996   1.736  0.00  0.00    +0.000 C 
ENDROOT
BRANCH   1   7
ATOM      2  C   UNL     1      -6.644   1.183   1.300  0.00  0.00    +0.000 A 
ATOM      3  C   UNL     1      -7.288   2.346   1.728  0.00  0.00    +0.000 A 
ATOM      4  C   UNL     1      -7.448   2.580   3.087  0.00  0.00    +0.000 A 
ATOM      5  C   UNL     1      -6.977   1.674   4.028  0.00  0.00    +0.000 A 
ATOM      6  C   UNL     1      -6.331   0.511   3.603  0.00  0.00    +0.000 A 
ATOM      7  C   UNL     1      -6.158   0.248   2.233  0.00  0.00    +0.000 A 
ATOM      8  F   UNL     1      -8.065   3.697   3.496  0.00  0.00    +0.000 F 
ENDBRANCH   1   7
BRANCH   1   9
ATOM      9  C   UNL     1      -3.929  -0.726   1.440  0.00  0.00    +0.000 C 
ATOM     10 CL   UNL     1      -2.953  -0.770   2.953  0.00  0.00    +0.000 Cl
BRANCH   9  11
ATOM     11  C   UNL     1      -3.303  -1.683   0.436  0.00  0.00    +0.000 A 
ATOM     12  C   UNL     1      -3.466  -3.077   0.526  0.00  0.00    +0.000 A 
ATOM     13  C   UNL     1      -2.869  -3.926  -0.409  0.00  0.00    +0.000 A 
ATOM     14  C   UNL     1      -2.104  -3.389  -1.435  0.00  0.00    +0.000 A 
ATOM     15  C   UNL     1      -1.919  -2.018  -1.543  0.00  0.00    +0.000 A 
ATOM     16  C   UNL     1      -2.513  -1.166  -0.609  0.00  0.00    +0.000 A 
ATOM     17  F   UNL     1      -1.534  -4.205  -2.331  0.00  0.00    +0.000 F 
ENDBRANCH   9  11
ENDBRANCH   1   9
BRANCH   1  18
ATOM     18  O   UNL     1      -5.640  -2.076   2.657  0.00  0.00    +0.000 OA
ATOM     19  H   UNL     1      -5.268  -1.840   3.521  0.00  0.00    +0.000 HD
ENDBRANCH   1  18
TORSDOF 4
