REMARK  Name = *****
REMARK  3 active torsions:
REMARK  status: ('A' for Active; 'I' for Inactive)
REMARK    1  A    between atoms: C_1  and  C_2
REMARK    2  A    between atoms: C_3  and  C_13
REMARK    3  A    between atoms: N_11  and  C_12
REMARK                            x       y       z     vdW  Elec       q    Type
REMARK                         _______ _______ _______ _____ _____    ______ ____
ROOT
ATOM      1  C   UNL     1       2.766  -0.213  -1.485  0.00  0.00    +0.000 C 
ATOM      2  C   UNL     1       2.605   0.221  -0.020  0.00  0.00    +0.000 C 
ATOM      3  C   UNL     1       3.182  -0.844   0.951  0.00  0.00    +0.000 C 
ATOM      4  O   UNL     1       4.615  -0.947   0.873  0.00  0.00    +0.000 OA
ATOM      5  C   UNL     1       5.270   0.248   0.694  0.00  0.00    +0.000 A 
ATOM      6  C   UNL     1       6.657   0.186   0.864  0.00  0.00    +0.000 A 
ATOM      7  C   UNL     1       7.430   1.339   0.749  0.00  0.00    +0.000 A 
ATOM      8  C   UNL     1       6.816   2.552   0.454  0.00  0.00    +0.000 A 
ATOM      9  C   UNL     1       5.431   2.610   0.272  0.00  0.00    +0.000 A 
ATOM     10  C   UNL     1       4.628   1.463   0.389  0.00  0.00    +0.000 A 
ATOM     11  N   UNL     1       3.239   1.545   0.150  0.00  0.00    +0.000 N 
ATOM     12  C   UNL     1       2.544   2.489   1.028  0.00  0.00    +0.000 C 
ENDROOT
BRANCH   3  13
ATOM     13  C   UNL     1       2.660  -0.736   2.385  0.00  0.00    +0.000 A 
ATOM     14  C   UNL     1       1.296  -0.971   2.642  0.00  0.00    +0.000 A 
ATOM     15  C   UNL     1       0.782  -0.880   3.937  0.00  0.00    +0.000 A 
ATOM     16  C   UNL     1       1.622  -0.558   4.999  0.00  0.00    +0.000 A 
ATOM     17  C   UNL     1       2.976  -0.333   4.767  0.00  0.00    +0.000 A 
ATOM     18  C   UNL     1       3.492  -0.425   3.471  0.00  0.00    +0.000 A 
ENDBRANCH   3  13
TORSDOF 1
