REMARK  Name = *****
REMARK  3 active torsions:
REMARK  status: ('A' for Active; 'I' for Inactive)
REMARK    1  A    between atoms: N_7  and  S_11
REMARK    2  A    between atoms: S_11  and  C_12
REMARK    3  A    between atoms: C_12  and  C_13
REMARK                            x       y       z     vdW  Elec       q    Type
REMARK                         _______ _______ _______ _____ _____    ______ ____
ROOT
ATOM      1  C   UNL     1      -2.168   0.819  -0.030  0.00  0.00    +0.000 C 
ATOM      2  C   UNL     1      -2.100  -0.664  -0.438  0.00  0.00    +0.000 C 
ATOM      3  C   UNL     1      -0.886  -1.401   0.146  0.00  0.00    +0.000 C 
ATOM      4  C   UNL     1       0.364  -0.597  -0.158  0.00  0.00    +0.000 C 
ATOM      5  C   UNL     1       0.263   0.771   0.474  0.00  0.00    +0.000 C 
ATOM      6  C   UNL     1      -0.836   1.568  -0.208  0.00  0.00    +0.000 C 
ATOM      7  N   UNL     1       1.626   1.175   0.376  0.00  0.00    +0.000 N 
ATOM      8  C   UNL     1       2.391   0.011   0.540  0.00  0.00    +0.000 C 
ATOM      9  O   UNL     1       3.582  -0.072   0.800  0.00  0.00    +0.000 OA
ATOM     10  O   UNL     1       1.581  -1.102   0.377  0.00  0.00    +0.000 OA
ENDROOT
BRANCH   7  11
ATOM     11  S   UNL     1       2.135   2.690   0.949  0.00  0.00    +0.000 S 
BRANCH  11  12
ATOM     12  C   UNL     1       3.568   2.988  -0.139  0.00  0.00    +0.000 C 
BRANCH  12  13
ATOM     13  C   UNL     1       4.042   4.416  -0.041  0.00  0.00    +0.000 A 
ATOM     14  C   UNL     1       4.976   4.789   0.938  0.00  0.00    +0.000 A 
ATOM     15  C   UNL     1       5.406   6.113   1.039  0.00  0.00    +0.000 A 
ATOM     16  C   UNL     1       4.906   7.078   0.168  0.00  0.00    +0.000 A 
ATOM     17  C   UNL     1       3.972   6.721  -0.804  0.00  0.00    +0.000 A 
ATOM     18  C   UNL     1       3.540   5.398  -0.907  0.00  0.00    +0.000 A 
ENDBRANCH  12  13
ENDBRANCH  11  12
ENDBRANCH   7  11
TORSDOF 3
