REMARK  Name = *****
REMARK  5 active torsions:
REMARK  status: ('A' for Active; 'I' for Inactive)
REMARK    1  A    between atoms: C_1  and  C_2
REMARK    2  A    between atoms: C_6  and  C_20
REMARK    3  A    between atoms: C_7  and  O_12
REMARK    4  A    between atoms: O_12  and  C_13
REMARK    5  A    between atoms: C_13  and  C_14
REMARK                            x       y       z     vdW  Elec       q    Type
REMARK                         _______ _______ _______ _____ _____    ______ ____
ROOT
ATOM      1  C   UNL     1       0.974   0.010  -0.166  0.00  0.00    +0.000 C 
ATOM      2  C   UNL     1       2.461   0.047   0.026  0.00  0.00    +0.000 A 
ATOM      3  C   UNL     1       3.218  -1.132   0.002  0.00  0.00    +0.000 A 
ATOM      4  C   UNL     1       4.600  -1.118   0.155  0.00  0.00    +0.000 A 
ATOM      5  N   UNL     1       5.285  -2.278   0.135  0.00  0.00    +0.000 NA
ATOM      6  C   UNL     1       6.631  -2.200   0.296  0.00  0.00    +0.000 A 
ATOM      7  C   UNL     1       7.270  -0.976   0.470  0.00  0.00    +0.000 A 
ATOM      8  N   UNL     1       6.595   0.195   0.486  0.00  0.00    +0.000 NA
ATOM      9  C   UNL     1       5.261   0.121   0.329  0.00  0.00    +0.000 A 
ATOM     10  C   UNL     1       4.510   1.290   0.335  0.00  0.00    +0.000 A 
ATOM     11  C   UNL     1       3.123   1.264   0.182  0.00  0.00    +0.000 A 
ATOM     12  C   UNL     1       7.399  -3.485   0.276  0.00  0.00    +0.000 C 
ENDROOT
BRANCH   7  13
ATOM     13  O   UNL     1       8.640  -0.970   0.633  0.00  0.00    +0.000 OA
BRANCH  13  14
ATOM     14  C   UNL     1       9.176   0.343   0.806  0.00  0.00    +0.000 C 
BRANCH  14  15
ATOM     15  C   UNL     1      10.680   0.283   0.979  0.00  0.00    +0.000 A 
ATOM     16  C   UNL     1      11.458  -0.691   0.335  0.00  0.00    +0.000 A 
ATOM     17  C   UNL     1      12.847  -0.696   0.473  0.00  0.00    +0.000 A 
ATOM     18  C   UNL     1      13.477   0.280   1.244  0.00  0.00    +0.000 A 
ATOM     19  C   UNL     1      12.718   1.263   1.875  0.00  0.00    +0.000 A 
ATOM     20  C   UNL     1      11.329   1.267   1.740  0.00  0.00    +0.000 A 
ENDBRANCH  14  15
ENDBRANCH  13  14
ENDBRANCH   7  13
TORSDOF 3
