REMARK  Name = *****
REMARK  4 active torsions:
REMARK  status: ('A' for Active; 'I' for Inactive)
REMARK    1  A    between atoms: C_1  and  C_2
REMARK    2  A    between atoms: C_3  and  C_12
REMARK    3  A    between atoms: C_3  and  O_19
REMARK    4  A    between atoms: O_19  and  C_20
REMARK                            x       y       z     vdW  Elec       q    Type
REMARK                         _______ _______ _______ _____ _____    ______ ____
ROOT
ATOM      1  C   UNL     1       1.071   0.435  -0.048  0.00  0.00    +0.000 C 
ATOM      2  C   UNL     1       2.586   0.256   0.045  0.00  0.00    +0.000 C 
ATOM      3  C   UNL     1       3.045  -0.874   1.020  0.00  0.00    +0.000 C 
ATOM      4  O   UNL     1       4.483  -1.005   0.967  0.00  0.00    +0.000 OA
ATOM      5  C   UNL     1       5.146   0.190   0.880  0.00  0.00    +0.000 A 
ATOM      6  C   UNL     1       6.522   0.149   1.105  0.00  0.00    +0.000 A 
ATOM      7  C   UNL     1       7.271   1.325   1.064  0.00  0.00    +0.000 A 
ATOM      8  C   UNL     1       6.645   2.543   0.798  0.00  0.00    +0.000 A 
ATOM      9  C   UNL     1       5.270   2.583   0.562  0.00  0.00    +0.000 A 
ATOM     10  C   UNL     1       4.524   1.406   0.589  0.00  0.00    +0.000 A 
ATOM     11  O   UNL     1       3.183   1.529   0.339  0.00  0.00    +0.000 OA
ENDROOT
BRANCH   3  12
ATOM     12  C   UNL     1       2.684  -0.752   2.515  0.00  0.00    +0.000 A 
ATOM     13  C   UNL     1       2.281   0.445   3.130  0.00  0.00    +0.000 A 
ATOM     14  C   UNL     1       2.000   0.499   4.500  0.00  0.00    +0.000 A 
ATOM     15  C   UNL     1       2.130  -0.643   5.283  0.00  0.00    +0.000 A 
ATOM     16  C   UNL     1       2.543  -1.840   4.711  0.00  0.00    +0.000 A 
ATOM     17  C   UNL     1       2.822  -1.889   3.342  0.00  0.00    +0.000 A 
ATOM     18 BR   UNL     1       1.754  -0.564   7.134  0.00  0.00    +0.000 Br
ENDBRANCH   3  12
BRANCH   3  19
ATOM     19  O   UNL     1       2.407  -2.110   0.596  0.00  0.00    +0.000 OA
ATOM     20  C   UNL     1       3.047  -2.773  -0.484  0.00  0.00    +0.000 C 
ENDBRANCH   3  19
TORSDOF 2
