REMARK  Name = *****
REMARK  1 active torsions:
REMARK  status: ('A' for Active; 'I' for Inactive)
REMARK    1  A    between atoms: C_6  and  C_12
REMARK                            x       y       z     vdW  Elec       q    Type
REMARK                         _______ _______ _______ _____ _____    ______ ____
ROOT
ATOM      1  C   UNL     1      -2.553   0.978  -0.329  0.00  0.00    +0.000 C 
ATOM      2  C   UNL     1      -2.710  -0.529  -0.510  0.00  0.00    +0.000 C 
ATOM      3  C   UNL     1      -1.367  -1.258  -0.538  0.00  0.00    +0.000 C 
ATOM      4  C   UNL     1      -0.537  -0.924   0.712  0.00  0.00    +0.000 C 
ATOM      5  C   UNL     1       0.778  -1.714   0.769  0.00  0.00    +0.000 C 
ATOM      6  C   UNL     1       1.874  -1.134  -0.091  0.00  0.00    +0.000 C 
ATOM      7  C   UNL     1       1.814   0.315  -0.532  0.00  0.00    +0.000 C 
ATOM      8  O   UNL     1       2.580  -0.072   0.602  0.00  0.00    +0.000 OA
ATOM      9  C   UNL     1       0.614   1.155  -0.255  0.00  0.00    +0.000 C 
ATOM     10  C   UNL     1      -0.307   0.595   0.845  0.00  0.00    +0.000 C 
ATOM     11  C   UNL     1      -1.658   1.332   0.861  0.00  0.00    +0.000 C 
ENDROOT
BRANCH   6  12
ATOM     12  C   UNL     1       2.709  -2.107  -0.889  0.00  0.00    +0.000 A 
ATOM     13  C   UNL     1       2.315  -2.518  -2.175  0.00  0.00    +0.000 A 
ATOM     14  C   UNL     1       3.076  -3.426  -2.915  0.00  0.00    +0.000 A 
ATOM     15  C   UNL     1       4.252  -3.945  -2.381  0.00  0.00    +0.000 A 
ATOM     16  C   UNL     1       4.665  -3.556  -1.109  0.00  0.00    +0.000 A 
ATOM     17  C   UNL     1       3.899  -2.648  -0.374  0.00  0.00    +0.000 A 
ENDBRANCH   6  12
TORSDOF 1
