REMARK  Name = *****
REMARK  2 active torsions:
REMARK  status: ('A' for Active; 'I' for Inactive)
REMARK    1  A    between atoms: C_1  and  C_2
REMARK    2  A    between atoms: C_5  and  C_8
REMARK                            x       y       z     vdW  Elec       q    Type
REMARK                         _______ _______ _______ _____ _____    ______ ____
ROOT
ATOM      1  C   UNL     1      -3.368   0.213  -0.118  0.00  0.00    +0.000 C 
ATOM      2  C   UNL     1      -3.720   0.140   1.346  0.00  0.00    +0.000 C 
ATOM      3  C   UNL     1      -2.916  -0.120   2.392  0.00  0.00    +0.000 C 
ATOM      4  C   UNL     1      -5.167   0.356   1.626  0.00  0.00    +0.000 C 
ATOM      5  O   UNL     1      -5.713  -0.025   2.654  0.00  0.00    +0.000 OA
ATOM      6  C   UNL     1      -5.923   1.059   0.571  0.00  0.00    +0.000 A 
ATOM      7  C   UNL     1      -7.299   1.268   0.710  0.00  0.00    +0.000 A 
ATOM      8  C   UNL     1      -7.991   1.988  -0.265  0.00  0.00    +0.000 A 
ATOM      9  C   UNL     1      -7.308   2.506  -1.366  0.00  0.00    +0.000 A 
ATOM     10  C   UNL     1      -5.934   2.299  -1.500  0.00  0.00    +0.000 A 
ATOM     11  C   UNL     1      -5.245   1.560  -0.540  0.00  0.00    +0.000 A 
ATOM     12  O   UNL     1      -3.899   1.405  -0.729  0.00  0.00    +0.000 OA
ENDROOT
BRANCH   1  17
ATOM     13  C   UNL     1       2.367  -0.041  -1.227  0.00  0.00    +0.000 C 
ATOM     14  C   UNL     1       0.899   0.019  -0.926  0.00  0.00    +0.000 A 
ATOM     15  C   UNL     1       0.105  -1.130  -1.004  0.00  0.00    +0.000 A 
ATOM     16  C   UNL     1      -1.267  -1.062  -0.749  0.00  0.00    +0.000 A 
ATOM     17  C   UNL     1      -1.877   0.160  -0.424  0.00  0.00    +0.000 A 
ATOM     18  C   UNL     1      -1.076   1.310  -0.354  0.00  0.00    +0.000 A 
ATOM     19  C   UNL     1       0.296   1.241  -0.610  0.00  0.00    +0.000 A 
ENDBRANCH   1  17
TORSDOF 1
