REMARK  Name = *****
REMARK  1 active torsions:
REMARK  status: ('A' for Active; 'I' for Inactive)
REMARK    1  A    between atoms: C_3  and  C_12
REMARK                            x       y       z     vdW  Elec       q    Type
REMARK                         _______ _______ _______ _____ _____    ______ ____
ROOT
ATOM      1  C   UNL     1       0.995   0.437   0.267  0.00  0.00    +0.000 C 
ATOM      2  C   UNL     1       2.272   0.235  -0.091  0.00  0.00    +0.000 C 
ATOM      3  C   UNL     1       3.080  -1.043   0.095  0.00  0.00    +0.000 C 
ATOM      4  O   UNL     1       3.815  -1.385  -1.096  0.00  0.00    +0.000 OA
ATOM      5  C   UNL     1       4.487  -0.312  -1.612  0.00  0.00    +0.000 A 
ATOM      6  C   UNL     1       5.588  -0.574  -2.423  0.00  0.00    +0.000 A 
ATOM      7  C   UNL     1       6.309   0.486  -2.977  0.00  0.00    +0.000 A 
ATOM      8  C   UNL     1       5.918   1.803  -2.729  0.00  0.00    +0.000 A 
ATOM      9  C   UNL     1       4.801   2.062  -1.932  0.00  0.00    +0.000 A 
ATOM     10  C   UNL     1       4.085   1.002  -1.379  0.00  0.00    +0.000 A 
ATOM     11  O   UNL     1       2.963   1.308  -0.653  0.00  0.00    +0.000 OA
ENDROOT
BRANCH   3  12
ATOM     12  C   UNL     1       2.274  -2.269   0.506  0.00  0.00    +0.000 A 
ATOM     13  C   UNL     1       1.553  -3.016  -0.441  0.00  0.00    +0.000 A 
ATOM     14  C   UNL     1       0.798  -4.123  -0.050  0.00  0.00    +0.000 A 
ATOM     15  C   UNL     1       0.751  -4.496   1.292  0.00  0.00    +0.000 A 
ATOM     16  C   UNL     1       1.456  -3.763   2.244  0.00  0.00    +0.000 A 
ATOM     17  C   UNL     1       2.212  -2.655   1.856  0.00  0.00    +0.000 A 
ENDBRANCH   3  12
TORSDOF 1
