REMARK  Name = *****
REMARK  3 active torsions:
REMARK  status: ('A' for Active; 'I' for Inactive)
REMARK    1  A    between atoms: C_8  and  C_10
REMARK    2  A    between atoms: C_10  and  S_11
REMARK    3  A    between atoms: S_11  and  C_12
REMARK                            x       y       z     vdW  Elec       q    Type
REMARK                         _______ _______ _______ _____ _____    ______ ____
ROOT
ATOM      1  C   UNL     1       2.184  -0.447   0.198  0.00  0.00    +0.000 A 
ATOM      2  C   UNL     1       1.932   0.923   0.080  0.00  0.00    +0.000 A 
ATOM      3  C   UNL     1       0.632   1.406  -0.095  0.00  0.00    +0.000 A 
ATOM      4  C   UNL     1      -0.384   0.454  -0.144  0.00  0.00    +0.000 A 
ATOM      5  C   UNL     1      -0.175  -0.915  -0.031  0.00  0.00    +0.000 A 
ATOM      6  C   UNL     1       1.140  -1.382   0.145  0.00  0.00    +0.000 A 
ATOM      7  C   UNL     1      -1.459  -1.511  -0.133  0.00  0.00    +0.000 A 
ATOM      8  C   UNL     1      -2.363  -0.479  -0.296  0.00  0.00    +0.000 A 
ATOM      9  O   UNL     1      -1.709   0.719  -0.309  0.00  0.00    +0.000 OA
ENDROOT
BRANCH   8  10
ATOM     10  C   UNL     1      -3.836  -0.432  -0.470  0.00  0.00    +0.000 C 
BRANCH  10  11
ATOM     11  S   UNL     1      -4.679  -0.740   1.113  0.00  0.00    +0.000 S 
BRANCH  11  12
ATOM     12  C   UNL     1      -6.347  -0.452   0.647  0.00  0.00    +0.000 A 
ATOM     13  C   UNL     1      -7.155   0.539   1.161  0.00  0.00    +0.000 A 
ATOM     14  C   UNL     1      -8.465   0.515   0.597  0.00  0.00    +0.000 A 
ATOM     15  C   UNL     1      -8.612  -0.502  -0.319  0.00  0.00    +0.000 A 
ATOM     16  S   UNL     1      -7.179  -1.420  -0.491  0.00  0.00    +0.000 S 
ENDBRANCH  11  12
ENDBRANCH  10  11
ENDBRANCH   8  10
TORSDOF 3
