REMARK  Name = *****
REMARK  1 active torsions:
REMARK  status: ('A' for Active; 'I' for Inactive)
REMARK    1  A    between atoms: C_9  and  C_11
REMARK                            x       y       z     vdW  Elec       q    Type
REMARK                         _______ _______ _______ _____ _____    ______ ____
ROOT
ATOM      1  C   UNL     1      -2.592   0.658   0.562  0.00  0.00    +0.000 C 
ATOM      2  C   UNL     1      -2.578  -0.693  -0.150  0.00  0.00    +0.000 C 
ATOM      3  C   UNL     1      -1.256  -1.427   0.056  0.00  0.00    +0.000 C 
ATOM      4  C   UNL     1      -0.065  -0.560  -0.358  0.00  0.00    +0.000 C 
ATOM      5  C   UNL     1      -0.075   0.770   0.403  0.00  0.00    +0.000 C 
ATOM      6  C   UNL     1      -1.391   1.520   0.176  0.00  0.00    +0.000 C 
ATOM      7  C   UNL     1       1.137   1.604  -0.013  0.00  0.00    +0.000 C 
ATOM      8  C   UNL     1       2.422   0.793   0.150  0.00  0.00    +0.000 C 
ATOM      9  C   UNL     1       2.341  -0.610  -0.466  0.00  0.00    +0.000 C 
ATOM     10  O   UNL     1       1.134  -1.283  -0.074  0.00  0.00    +0.000 OA
ENDROOT
BRANCH   9  11
ATOM     11  C   UNL     1       2.491  -0.681  -1.971  0.00  0.00    +0.000 A 
ATOM     12  C   UNL     1       2.661   0.328  -2.904  0.00  0.00    +0.000 A 
ATOM     13  C   UNL     1       2.775  -0.162  -4.237  0.00  0.00    +0.000 A 
ATOM     14  C   UNL     1       2.707  -1.534  -4.289  0.00  0.00    +0.000 A 
ATOM     15  S   UNL     1       2.517  -2.225  -2.739  0.00  0.00    +0.000 S 
ENDBRANCH   9  11
TORSDOF 1
