REMARK  Name = *****
REMARK  7 active torsions:
REMARK  status: ('A' for Active; 'I' for Inactive)
REMARK    1  A    between atoms: C_1  and  C_2
REMARK    2  A    between atoms: C_3  and  O_21
REMARK    3  A    between atoms: C_7  and  O_8
REMARK    4  A    between atoms: C_10  and  C_13
REMARK    5  A    between atoms: C_10  and  O_19
REMARK    6  A    between atoms: O_19  and  C_20
REMARK    7  A    between atoms: O_21  and  C_22
REMARK                            x       y       z     vdW  Elec       q    Type
REMARK                         _______ _______ _______ _____ _____    ______ ____
ROOT
ATOM      1  C   UNL     1       0.960   0.206   0.739  0.00  0.00    +0.000 C 
ATOM      2  C   UNL     1       2.438   0.203   0.466  0.00  0.00    +0.000 A 
ATOM      3  C   UNL     1       3.160   1.395   0.287  0.00  0.00    +0.000 A 
ATOM      4  C   UNL     1       4.553   1.389   0.089  0.00  0.00    +0.000 A 
ATOM      5  C   UNL     1       5.206   0.162  -0.039  0.00  0.00    +0.000 A 
ATOM      6  C   UNL     1       4.500  -1.034   0.092  0.00  0.00    +0.000 A 
ATOM      7  C   UNL     1       3.130  -1.007   0.344  0.00  0.00    +0.000 A 
ATOM      8  O   UNL     1       6.544   0.026  -0.298  0.00  0.00    +0.000 OA
ATOM      9  C   UNL     1       7.290   1.213  -0.634  0.00  0.00    +0.000 C 
ATOM     10  C   UNL     1       6.808   2.398   0.224  0.00  0.00    +0.000 C 
ATOM     11  C   UNL     1       5.331   2.668  -0.003  0.00  0.00    +0.000 C 
ENDROOT
BRANCH   9  12
ATOM     12  C   UNL     1       7.257   1.545  -2.139  0.00  0.00    +0.000 A 
ATOM     13  C   UNL     1       6.517   0.781  -3.058  0.00  0.00    +0.000 A 
ATOM     14  C   UNL     1       6.500   1.107  -4.417  0.00  0.00    +0.000 A 
ATOM     15  C   UNL     1       7.231   2.196  -4.884  0.00  0.00    +0.000 A 
ATOM     16  C   UNL     1       7.985   2.956  -3.996  0.00  0.00    +0.000 A 
ATOM     17  C   UNL     1       8.002   2.631  -2.638  0.00  0.00    +0.000 A 
ENDBRANCH   9  12
BRANCH   7  18
ATOM     18  O   UNL     1       2.437  -2.179   0.469  0.00  0.00    +0.000 OA
ATOM     19  H   UNL     1       1.515  -2.163   0.639  0.00  0.00    +0.000 HD
ENDBRANCH   7  18
BRANCH   9  20
ATOM     20  O   UNL     1       8.675   1.038  -0.244  0.00  0.00    +0.000 OA
ATOM     21  C   UNL     1       9.265  -0.168  -0.713  0.00  0.00    +0.000 C 
ENDBRANCH   9  20
BRANCH   3  22
ATOM     22  O   UNL     1       2.513   2.604   0.383  0.00  0.00    +0.000 OA
ATOM     23  C   UNL     1       2.009   2.996  -0.895  0.00  0.00    +0.000 C 
ENDBRANCH   3  22
TORSDOF 4
