REMARK  Name = *****
REMARK  3 active torsions:
REMARK  status: ('A' for Active; 'I' for Inactive)
REMARK    1  A    between atoms: C_4  and  C_7
REMARK    2  A    between atoms: C_8  and  S_9
REMARK    3  A    between atoms: S_9  and  C_12
REMARK                            x       y       z     vdW  Elec       q    Type
REMARK                         _______ _______ _______ _____ _____    ______ ____
ROOT
ATOM      1  S   UNL     1       2.649  -3.139   1.129  0.00  0.00    +0.000 S 
ATOM      2  O   UNL     1       2.460  -2.597   2.463  0.00  0.00    +0.000 OA
ATOM      3  O   UNL     1       1.563  -3.814   0.443  0.00  0.00    +0.000 OA
ENDROOT
BRANCH   1   4
ATOM      4  C   UNL     1       3.997  -4.301   1.232  0.00  0.00    +0.000 A 
ATOM      5  C   UNL     1       4.935  -4.181   2.262  0.00  0.00    +0.000 A 
ATOM      6  C   UNL     1       5.983  -5.098   2.345  0.00  0.00    +0.000 A 
ATOM      7  C   UNL     1       6.084  -6.129   1.409  0.00  0.00    +0.000 A 
ATOM      8  C   UNL     1       5.135  -6.254   0.392  0.00  0.00    +0.000 A 
ATOM      9  C   UNL     1       4.084  -5.342   0.302  0.00  0.00    +0.000 A 
ENDBRANCH   1   4
BRANCH   1  11
ATOM     10  C   UNL     1       2.627  -0.796  -0.223  0.00  0.00    +0.000 C 
ATOM     11  C   UNL     1       3.308  -1.910   0.094  0.00  0.00    +0.000 C 
BRANCH  10  15
ATOM     12  C   UNL     1      -1.000   1.547   0.244  0.00  0.00    +0.000 C 
ATOM     13  C   UNL     1      -1.065   0.278  -0.600  0.00  0.00    +0.000 C 
ATOM     14  C   UNL     1       0.327  -0.201  -1.006  0.00  0.00    +0.000 C 
ATOM     15  C   UNL     1       1.237  -0.394   0.218  0.00  0.00    +0.000 C 
ATOM     16  C   UNL     1       1.300   0.892   1.056  0.00  0.00    +0.000 C 
ATOM     17  C   UNL     1      -0.094   1.369   1.458  0.00  0.00    +0.000 C 
ENDBRANCH  10  15
ENDBRANCH   1  11
TORSDOF 3
