REMARK  Name = *****
REMARK  4 active torsions:
REMARK  status: ('A' for Active; 'I' for Inactive)
REMARK    1  A    between atoms: C_1  and  C_2
REMARK    2  A    between atoms: C_2  and  C_3
REMARK    3  A    between atoms: C_4  and  C_12
REMARK    4  A    between atoms: C_12  and  C_13
REMARK                            x       y       z     vdW  Elec       q    Type
REMARK                         _______ _______ _______ _____ _____    ______ ____
ROOT
ATOM      1  C   UNL     1       3.045  -1.066  -1.012  0.00  0.00    +0.000 C 
ATOM      2  C   UNL     1       4.597  -1.066  -1.102  0.00  0.00    +0.000 C 
ATOM      3  O   UNL     1       5.092  -2.194  -0.323  0.00  0.00    +0.000 OA
ATOM      4  C   UNL     1       4.036  -3.065  -0.285  0.00  0.00    +0.000 A 
ATOM      5  C   UNL     1       4.135  -4.380   0.119  0.00  0.00    +0.000 A 
ATOM      6  C   UNL     1       2.982  -5.164   0.077  0.00  0.00    +0.000 A 
ATOM      7  C   UNL     1       1.765  -4.616  -0.363  0.00  0.00    +0.000 A 
ATOM      8  C   UNL     1       1.687  -3.277  -0.756  0.00  0.00    +0.000 A 
ATOM      9  C   UNL     1       2.837  -2.507  -0.700  0.00  0.00    +0.000 A 
ENDROOT
BRANCH   1  11
ATOM     10  C   UNL     1       1.045  -0.004   0.181  0.00  0.00    +0.000 C 
ATOM     11  C   UNL     1       2.561  -0.128   0.107  0.00  0.00    +0.000 C 
ENDBRANCH   1  11
BRANCH   2  12
ATOM     12  C   UNL     1       5.087  -1.195  -2.560  0.00  0.00    +0.000 C 
BRANCH  12  13
ATOM     13  C   UNL     1       6.571  -0.934  -2.698  0.00  0.00    +0.000 A 
ATOM     14  C   UNL     1       7.492  -1.974  -2.514  0.00  0.00    +0.000 A 
ATOM     15  C   UNL     1       8.862  -1.735  -2.628  0.00  0.00    +0.000 A 
ATOM     16  C   UNL     1       9.324  -0.454  -2.923  0.00  0.00    +0.000 A 
ATOM     17  C   UNL     1       8.417   0.589  -3.102  0.00  0.00    +0.000 A 
ATOM     18  C   UNL     1       7.046   0.352  -2.988  0.00  0.00    +0.000 A 
ENDBRANCH  12  13
ENDBRANCH   2  12
TORSDOF 3
