REMARK  Name = *****
REMARK  4 active torsions:
REMARK  status: ('A' for Active; 'I' for Inactive)
REMARK    1  A    between atoms: C_1  and  N_2
REMARK    2  A    between atoms: N_2  and  C_3
REMARK    3  A    between atoms: N_2  and  S_9
REMARK    4  A    between atoms: S_9  and  C_12
REMARK                            x       y       z     vdW  Elec       q    Type
REMARK                         _______ _______ _______ _____ _____    ______ ____
ROOT
ATOM      1  S   UNL     1       3.289   1.354   1.039  0.00  0.00    +0.000 S 
ATOM      2  O   UNL     1       4.693   1.341   0.692  0.00  0.00    +0.000 OA
ATOM      3  O   UNL     1       2.515   2.577   1.013  0.00  0.00    +0.000 OA
ENDROOT
BRANCH   1   4
ATOM      4  C   UNL     1       3.168   0.657   2.670  0.00  0.00    +0.000 A 
ATOM      5  C   UNL     1       3.810  -0.559   2.927  0.00  0.00    +0.000 A 
ATOM      6  C   UNL     1       3.721  -1.106   4.201  0.00  0.00    +0.000 A 
ATOM      7  C   UNL     1       3.011  -0.452   5.204  0.00  0.00    +0.000 A 
ATOM      8  C   UNL     1       2.378   0.763   4.949  0.00  0.00    +0.000 A 
ATOM      9  C   UNL     1       2.456   1.326   3.674  0.00  0.00    +0.000 A 
ATOM     10  F   UNL     1       2.928  -0.989   6.429  0.00  0.00    +0.000 F 
ATOM     11  F   UNL     1       4.325  -2.274   4.457  0.00  0.00    +0.000 F 
ENDBRANCH   1   4
BRANCH   1  13
ATOM     12  C   UNL     1       1.021   0.056   0.387  0.00  0.00    +0.000 C 
ATOM     13  N   UNL     1       2.466   0.194   0.080  0.00  0.00    +0.000 NA
BRANCH  13  14
ATOM     14  C   UNL     1       2.812   0.244  -1.381  0.00  0.00    +0.000 C 
ATOM     15  C   UNL     1       2.002   1.289  -2.158  0.00  0.00    +0.000 C 
ATOM     16  C   UNL     1       2.393   1.300  -3.635  0.00  0.00    +0.000 C 
ATOM     17  C   UNL     1       2.269  -0.087  -4.262  0.00  0.00    +0.000 C 
ATOM     18  C   UNL     1       3.065  -1.133  -3.485  0.00  0.00    +0.000 C 
ATOM     19  C   UNL     1       2.677  -1.152  -2.007  0.00  0.00    +0.000 C 
ENDBRANCH  13  14
ENDBRANCH   1  13
TORSDOF 3
