REMARK  Name = *****
REMARK  3 active torsions:
REMARK  status: ('A' for Active; 'I' for Inactive)
REMARK    1  A    between atoms: C_5  and  C_7
REMARK    2  A    between atoms: C_7  and  O_8
REMARK    3  A    between atoms: O_8  and  C_9
REMARK                            x       y       z     vdW  Elec       q    Type
REMARK                         _______ _______ _______ _____ _____    ______ ____
ROOT
ATOM      1  C   UNL     1       3.031  -3.638   0.445  0.00  0.00    +0.000 A 
ATOM      2  C   UNL     1       2.856  -4.752  -0.378  0.00  0.00    +0.000 A 
ATOM      3  C   UNL     1       3.919  -5.627  -0.588  0.00  0.00    +0.000 A 
ATOM      4  C   UNL     1       5.162  -5.420   0.003  0.00  0.00    +0.000 A 
ATOM      5  C   UNL     1       5.337  -4.306   0.823  0.00  0.00    +0.000 A 
ATOM      6  C   UNL     1       4.275  -3.417   1.044  0.00  0.00    +0.000 A 
ATOM      7  C   UNL     1       6.232  -6.369  -0.255  0.00  0.00    +0.000 A 
ATOM      8  C   UNL     1       6.002  -7.417  -1.052  0.00  0.00    +0.000 A 
ATOM      9  C   UNL     1       4.695  -7.657  -1.688  0.00  0.00    +0.000 A 
ATOM     10  O   UNL     1       4.522  -8.631  -2.412  0.00  0.00    +0.000 OA
ATOM     11  O   UNL     1       3.689  -6.736  -1.426  0.00  0.00    +0.000 OA
ENDROOT
BRANCH   1  12
ATOM     12  O   UNL     1       1.922  -2.851   0.580  0.00  0.00    +0.000 OA
BRANCH  12  13
ATOM     13  C   UNL     1       2.033  -1.700   1.420  0.00  0.00    +0.000 C 
BRANCH  13  18
ATOM     14  C   UNL     1      -1.712  -0.894   1.410  0.00  0.00    +0.000 A 
ATOM     15  C   UNL     1      -1.694   0.467   1.711  0.00  0.00    +0.000 A 
ATOM     16  C   UNL     1      -0.477   1.114   1.912  0.00  0.00    +0.000 A 
ATOM     17  C   UNL     1       0.711   0.396   1.804  0.00  0.00    +0.000 A 
ATOM     18  C   UNL     1       0.718  -0.965   1.485  0.00  0.00    +0.000 A 
ATOM     19  C   UNL     1      -0.515  -1.609   1.303  0.00  0.00    +0.000 A 
ATOM     20  F   UNL     1       1.872   1.034   2.019  0.00  0.00    +0.000 F 
ENDBRANCH  13  18
ENDBRANCH  12  13
ENDBRANCH   1  12
TORSDOF 3
