REMARK  Name = *****
REMARK  2 active torsions:
REMARK  status: ('A' for Active; 'I' for Inactive)
REMARK    1  A    between atoms: C_1  and  N_2
REMARK    2  A    between atoms: C_10  and  C_13
REMARK                            x       y       z     vdW  Elec       q    Type
REMARK                         _______ _______ _______ _____ _____    ______ ____
ROOT
ATOM      1  C   UNL     1       1.309  -0.170   0.568  0.00  0.00    +0.000 C 
ATOM      2  N   UNL     1       2.671  -0.062   0.054  0.00  0.00    +0.000 N 
ATOM      3  C   UNL     1       3.376  -1.265  -0.292  0.00  0.00    +0.000 A 
ATOM      4  C   UNL     1       2.684  -2.481  -0.444  0.00  0.00    +0.000 A 
ATOM      5  C   UNL     1       3.356  -3.671  -0.740  0.00  0.00    +0.000 A 
ATOM      6  C   UNL     1       4.737  -3.674  -0.879  0.00  0.00    +0.000 A 
ATOM      7  C   UNL     1       5.444  -2.485  -0.727  0.00  0.00    +0.000 A 
ATOM      8  C   UNL     1       4.774  -1.285  -0.443  0.00  0.00    +0.000 A 
ATOM      9  S   UNL     1       5.775   0.167  -0.225  0.00  0.00    +0.000 S 
ATOM     10  C   UNL     1       4.547   1.373  -0.802  0.00  0.00    +0.000 C 
ATOM     11  C   UNL     1       3.229   1.225  -0.027  0.00  0.00    +0.000 C 
ATOM     12  O   UNL     1       2.616   2.211   0.397  0.00  0.00    +0.000 OA
ENDROOT
BRANCH  10  13
ATOM     13  C   UNL     1       5.130   2.781  -0.787  0.00  0.00    +0.000 A 
ATOM     14  C   UNL     1       5.327   3.471  -1.995  0.00  0.00    +0.000 A 
ATOM     15  C   UNL     1       5.867   4.759  -2.001  0.00  0.00    +0.000 A 
ATOM     16  C   UNL     1       6.220   5.375  -0.802  0.00  0.00    +0.000 A 
ATOM     17  C   UNL     1       6.034   4.704   0.404  0.00  0.00    +0.000 A 
ATOM     18  C   UNL     1       5.492   3.417   0.413  0.00  0.00    +0.000 A 
ENDBRANCH  10  13
TORSDOF 1
