REMARK  Name = *****
REMARK  5 active torsions:
REMARK  status: ('A' for Active; 'I' for Inactive)
REMARK    1  A    between atoms: C_1  and  O_2
REMARK    2  A    between atoms: O_2  and  C_3
REMARK    3  A    between atoms: C_8  and  O_9
REMARK    4  A    between atoms: O_9  and  C_10
REMARK    5  A    between atoms: C_10  and  C_11
REMARK                            x       y       z     vdW  Elec       q    Type
REMARK                         _______ _______ _______ _____ _____    ______ ____
ROOT
ATOM      1  C   UNL     1       3.775   2.177  -1.011  0.00  0.00    +0.000 C 
ENDROOT
BRANCH   1   2
ATOM      2  C   UNL     1       4.497   3.193  -1.852  0.00  0.00    +0.000 A 
ATOM      3  N   UNL     1       4.004   4.367  -2.192  0.00  0.00    +0.000 NA
ATOM      4  C   UNL     1       4.916   5.057  -2.973  0.00  0.00    +0.000 A 
ATOM      5  C   UNL     1       4.735   6.350  -3.506  0.00  0.00    +0.000 A 
ATOM      6  C   UNL     1       5.743   6.929  -4.285  0.00  0.00    +0.000 A 
ATOM      7  C   UNL     1       6.923   6.238  -4.537  0.00  0.00    +0.000 A 
ATOM      8  C   UNL     1       7.126   4.954  -4.020  0.00  0.00    +0.000 A 
ATOM      9  C   UNL     1       6.108   4.382  -3.239  0.00  0.00    +0.000 A 
ATOM     10  S   UNL     1       6.061   2.840  -2.476  0.00  0.00    +0.000 S 
ENDBRANCH   1   2
BRANCH   1  11
ATOM     11  O   UNL     1       4.450   2.119   0.244  0.00  0.00    +0.000 OA
BRANCH  11  17
ATOM     12  C   UNL     1       3.049   0.220   1.068  0.00  0.00    +0.000 A 
ATOM     13  C   UNL     1       2.954  -0.787   2.041  0.00  0.00    +0.000 A 
ATOM     14  C   UNL     1       3.931  -0.929   3.031  0.00  0.00    +0.000 A 
ATOM     15  C   UNL     1       5.017  -0.064   3.064  0.00  0.00    +0.000 A 
ATOM     16  C   UNL     1       5.128   0.935   2.099  0.00  0.00    +0.000 A 
ATOM     17  C   UNL     1       4.162   1.080   1.091  0.00  0.00    +0.000 A 
BRANCH  12  19
ATOM     18  C   UNL     1       0.887  -0.318   0.194  0.00  0.00    +0.000 C 
ATOM     19  O   UNL     1       2.105   0.409   0.095  0.00  0.00    +0.000 OA
ENDBRANCH  12  19
ENDBRANCH  11  17
ENDBRANCH   1  11
TORSDOF 4
