REMARK  Name = *****
REMARK  5 active torsions:
REMARK  status: ('A' for Active; 'I' for Inactive)
REMARK    1  A    between atoms: C_4  and  C_7
REMARK    2  A    between atoms: C_7  and  C_8
REMARK    3  A    between atoms: C_7  and  O_17
REMARK    4  A    between atoms: C_8  and  C_9
REMARK    5  A    between atoms: C_9  and  C_10
REMARK                            x       y       z     vdW  Elec       q    Type
REMARK                         _______ _______ _______ _____ _____    ______ ____
ROOT
ATOM      1  C   UNL     1      -3.721   0.754  -0.042  0.00  0.00    +0.000 C 
ENDROOT
BRANCH   1   5
ATOM      2  C   UNL     1      -3.372  -3.555  -0.042  0.00  0.00    +0.000 A 
ATOM      3  C   UNL     1      -4.354  -2.938  -0.815  0.00  0.00    +0.000 A 
ATOM      4  C   UNL     1      -4.468  -1.547  -0.817  0.00  0.00    +0.000 A 
ATOM      5  C   UNL     1      -3.602  -0.756  -0.046  0.00  0.00    +0.000 A 
ATOM      6  C   UNL     1      -2.618  -1.390   0.726  0.00  0.00    +0.000 A 
ATOM      7  C   UNL     1      -2.505  -2.782   0.727  0.00  0.00    +0.000 A 
ENDBRANCH   1   5
BRANCH   1   8
ATOM      8  O   UNL     1      -5.055   1.130   0.302  0.00  0.00    +0.000 OA
ATOM      9  H   UNL     1      -5.670   0.785  -0.364  0.00  0.00    +0.000 HD
ENDBRANCH   1   8
BRANCH   1  10
ATOM     10  C   UNL     1      -3.345   1.372  -1.393  0.00  0.00    +0.000 C 
BRANCH  10  11
ATOM     11  C   UNL     1      -3.370   2.903  -1.340  0.00  0.00    +0.000 C 
BRANCH  11  12
ATOM     12  C   UNL     1      -2.949   3.510  -2.656  0.00  0.00    +0.000 A 
ATOM     13  C   UNL     1      -3.890   3.714  -3.675  0.00  0.00    +0.000 A 
ATOM     14  C   UNL     1      -3.501   4.258  -4.900  0.00  0.00    +0.000 A 
ATOM     15  C   UNL     1      -2.167   4.597  -5.113  0.00  0.00    +0.000 A 
ATOM     16  C   UNL     1      -1.218   4.395  -4.113  0.00  0.00    +0.000 A 
ATOM     17  C   UNL     1      -1.609   3.850  -2.888  0.00  0.00    +0.000 A 
ATOM     18 BR   UNL     1      -1.639   5.334  -6.772  0.00  0.00    +0.000 Br
ENDBRANCH  11  12
ENDBRANCH  10  11
ENDBRANCH   1  10
TORSDOF 5
