REMARK  Name = *****
REMARK  3 active torsions:
REMARK  status: ('A' for Active; 'I' for Inactive)
REMARK    1  A    between atoms: C_1  and  C_2
REMARK    2  A    between atoms: C_2  and  C_12
REMARK    3  A    between atoms: C_12  and  C_13
REMARK                            x       y       z     vdW  Elec       q    Type
REMARK                         _______ _______ _______ _____ _____    ______ ____
ROOT
ATOM      1  C   UNL     1       1.189   0.227   0.068  0.00  0.00    +0.000 C 
ATOM      2  C   UNL     1       2.717   0.049   0.044  0.00  0.00    +0.000 C 
ATOM      3  C   UNL     1       3.067  -1.106   1.006  0.00  0.00    +0.000 C 
ATOM      4  C   UNL     1       4.572  -1.262   1.163  0.00  0.00    +0.000 C 
ATOM      5  C   UNL     1       5.217   0.076   1.359  0.00  0.00    +0.000 A 
ATOM      6  C   UNL     1       6.529   0.156   1.849  0.00  0.00    +0.000 A 
ATOM      7  C   UNL     1       7.140   1.397   2.034  0.00  0.00    +0.000 A 
ATOM      8  C   UNL     1       6.447   2.567   1.731  0.00  0.00    +0.000 A 
ATOM      9  C   UNL     1       5.147   2.494   1.233  0.00  0.00    +0.000 A 
ATOM     10  C   UNL     1       4.539   1.254   1.034  0.00  0.00    +0.000 A 
ATOM     11  O   UNL     1       3.268   1.290   0.529  0.00  0.00    +0.000 OA
ENDROOT
BRANCH   2  12
ATOM     12  C   UNL     1       3.220  -0.248  -1.401  0.00  0.00    +0.000 C 
BRANCH  12  13
ATOM     13  C   UNL     1       2.749   0.704  -2.481  0.00  0.00    +0.000 A 
ATOM     14  C   UNL     1       3.303   1.987  -2.591  0.00  0.00    +0.000 A 
ATOM     15  C   UNL     1       2.869   2.864  -3.586  0.00  0.00    +0.000 A 
ATOM     16  C   UNL     1       1.879   2.468  -4.482  0.00  0.00    +0.000 A 
ATOM     17  C   UNL     1       1.323   1.195  -4.385  0.00  0.00    +0.000 A 
ATOM     18  C   UNL     1       1.755   0.316  -3.390  0.00  0.00    +0.000 A 
ENDBRANCH  12  13
ENDBRANCH   2  12
TORSDOF 2
