REMARK  Name = *****
REMARK  5 active torsions:
REMARK  status: ('A' for Active; 'I' for Inactive)
REMARK    1  A    between atoms: C_1  and  O_2
REMARK    2  A    between atoms: O_2  and  C_3
REMARK    3  A    between atoms: C_5  and  C_13
REMARK    4  A    between atoms: C_5  and  O_20
REMARK    5  A    between atoms: O_20  and  C_21
REMARK                            x       y       z     vdW  Elec       q    Type
REMARK                         _______ _______ _______ _____ _____    ______ ____
ROOT
ATOM      1  C   UNL     1       2.811  -0.560  -1.203  0.00  0.00    +0.000 C 
ATOM      2  C   UNL     1       1.763  -0.434  -2.304  0.00  0.00    +0.000 C 
ATOM      3  C   UNL     1       2.148  -1.352  -3.472  0.00  0.00    +0.000 C 
ATOM      4  O   UNL     1       2.169  -2.727  -3.042  0.00  0.00    +0.000 OA
ATOM      5  C   UNL     1       2.781  -2.990  -1.848  0.00  0.00    +0.000 A 
ATOM      6  C   UNL     1       3.051  -4.335  -1.589  0.00  0.00    +0.000 A 
ATOM      7  C   UNL     1       3.693  -4.707  -0.409  0.00  0.00    +0.000 A 
ATOM      8  C   UNL     1       4.066  -3.733   0.514  0.00  0.00    +0.000 A 
ATOM      9  C   UNL     1       3.784  -2.390   0.262  0.00  0.00    +0.000 A 
ATOM     10  C   UNL     1       3.117  -2.008  -0.913  0.00  0.00    +0.000 A 
ENDROOT
BRANCH   3  11
ATOM     11  C   UNL     1       1.068  -1.177  -4.558  0.00  0.00    +0.000 A 
ATOM     12  C   UNL     1       1.093  -0.060  -5.416  0.00  0.00    +0.000 A 
ATOM     13  C   UNL     1       0.108   0.123  -6.389  0.00  0.00    +0.000 A 
ATOM     14  C   UNL     1      -0.921  -0.806  -6.512  0.00  0.00    +0.000 A 
ATOM     15  C   UNL     1      -0.975  -1.913  -5.670  0.00  0.00    +0.000 A 
ATOM     16  C   UNL     1       0.011  -2.096  -4.697  0.00  0.00    +0.000 A 
ATOM     17 BR   UNL     1      -2.256  -0.560  -7.827  0.00  0.00    +0.000 Br
ENDBRANCH   3  11
BRANCH   1  19
ATOM     18  C   UNL     1       1.220  -0.076   0.563  0.00  0.00    +0.000 C 
ATOM     19  O   UNL     1       2.486   0.194  -0.024  0.00  0.00    +0.000 OA
ENDBRANCH   1  19
BRANCH   3  20
ATOM     20  O   UNL     1       3.423  -0.917  -3.983  0.00  0.00    +0.000 OA
ATOM     21  C   UNL     1       4.022  -1.826  -4.900  0.00  0.00    +0.000 C 
ENDBRANCH   3  20
TORSDOF 3
