REMARK  Name = *****
REMARK  1 active torsions:
REMARK  status: ('A' for Active; 'I' for Inactive)
REMARK    1  A    between atoms: P_9  and  C_12
REMARK                            x       y       z     vdW  Elec       q    Type
REMARK                         _______ _______ _______ _____ _____    ______ ____
ROOT
ATOM      1  C   UNL     1      -0.501  -1.707   0.278  0.00  0.00    +0.000 C 
ATOM      2  C   UNL     1       0.501  -1.061   1.186  0.00  0.00    +0.000 A 
ATOM      3  C   UNL     1       1.536  -1.830   1.740  0.00  0.00    +0.000 A 
ATOM      4  C   UNL     1       2.486  -1.245   2.580  0.00  0.00    +0.000 A 
ATOM      5  C   UNL     1       2.415   0.115   2.872  0.00  0.00    +0.000 A 
ATOM      6  C   UNL     1       1.399   0.891   2.318  0.00  0.00    +0.000 A 
ATOM      7  C   UNL     1       0.459   0.303   1.473  0.00  0.00    +0.000 A 
ATOM      8  O   UNL     1      -0.502   1.121   0.955  0.00  0.00    +0.000 OA
ATOM      9  P   UNL     1      -1.499   0.646  -0.234  0.00  0.00    +0.000 P 
ATOM     10  S   UNL     1      -3.206   1.584  -0.177  0.00  0.00    +0.000 S 
ATOM     11  O   UNL     1      -1.671  -0.931   0.114  0.00  0.00    +0.000 OA
ENDROOT
BRANCH   9  12
ATOM     12  C   UNL     1      -0.540   0.695  -1.744  0.00  0.00    +0.000 A 
ATOM     13  C   UNL     1      -0.958  -0.052  -2.859  0.00  0.00    +0.000 A 
ATOM     14  C   UNL     1      -0.228  -0.027  -4.048  0.00  0.00    +0.000 A 
ATOM     15  C   UNL     1       0.924   0.751  -4.140  0.00  0.00    +0.000 A 
ATOM     16  C   UNL     1       1.344   1.508  -3.048  0.00  0.00    +0.000 A 
ATOM     17  C   UNL     1       0.614   1.484  -1.859  0.00  0.00    +0.000 A 
ENDBRANCH   9  12
TORSDOF 1
