REMARK  Name = *****
REMARK  1 active torsions:
REMARK  status: ('A' for Active; 'I' for Inactive)
REMARK    1  A    between atoms: C_2  and  C_12
REMARK                            x       y       z     vdW  Elec       q    Type
REMARK                         _______ _______ _______ _____ _____    ______ ____
ROOT
ATOM      1  C   UNL     1      -2.275   0.169  -0.407  0.00  0.00    +0.000 C 
ATOM      2  C   UNL     1      -1.794   1.278   0.528  0.00  0.00    +0.000 C 
ATOM      3  O   UNL     1      -0.509   1.775   0.108  0.00  0.00    +0.000 OA
ATOM      4  C   UNL     1       0.447   0.814  -0.066  0.00  0.00    +0.000 A 
ATOM      5  C   UNL     1       1.774   1.232   0.024  0.00  0.00    +0.000 A 
ATOM      6  C   UNL     1       2.810   0.310  -0.141  0.00  0.00    +0.000 A 
ATOM      7  C   UNL     1       2.520  -1.030  -0.406  0.00  0.00    +0.000 A 
ATOM      8  C   UNL     1       1.193  -1.447  -0.516  0.00  0.00    +0.000 A 
ATOM      9  C   UNL     1       0.161  -0.519  -0.351  0.00  0.00    +0.000 A 
ATOM     10  C   UNL     1      -1.246  -0.922  -0.508  0.00  0.00    +0.000 C 
ATOM     11  O   UNL     1      -1.549  -2.086  -0.753  0.00  0.00    +0.000 OA
ENDROOT
BRANCH   2  12
ATOM     12  C   UNL     1      -1.814   1.030   2.036  0.00  0.00    +0.000 A 
ATOM     13  C   UNL     1      -2.046  -0.249   2.579  0.00  0.00    +0.000 A 
ATOM     14  C   UNL     1      -2.050  -0.463   3.961  0.00  0.00    +0.000 A 
ATOM     15  C   UNL     1      -1.830   0.594   4.835  0.00  0.00    +0.000 A 
ATOM     16  C   UNL     1      -1.610   1.871   4.326  0.00  0.00    +0.000 A 
ATOM     17  C   UNL     1      -1.604   2.090   2.943  0.00  0.00    +0.000 A 
ATOM     18 CL   UNL     1      -1.352   3.721   2.419  0.00  0.00    +0.000 Cl
ENDBRANCH   2  12
TORSDOF 1
