REMARK  Name = *****
REMARK  4 active torsions:
REMARK  status: ('A' for Active; 'I' for Inactive)
REMARK    1  A    between atoms: C_1  and  C_2
REMARK    2  A    between atoms: C_4  and  C_8
REMARK    3  A    between atoms: C_15  and  C_19
REMARK    4  A    between atoms: C_16  and  C_18
REMARK                            x       y       z     vdW  Elec       q    Type
REMARK                         _______ _______ _______ _____ _____    ______ ____
ROOT
ATOM      1  C   UNL     1      -1.850   2.577   0.130  0.00  0.00    +0.000 C 
ATOM      2  C   UNL     1      -2.242   2.886   1.575  0.00  0.00    +0.000 C 
ATOM      3  C   UNL     1      -3.080   4.155   1.593  0.00  0.00    +0.000 C 
ATOM      4  C   UNL     1      -2.456   5.215   0.733  0.00  0.00    +0.000 A 
ATOM      5  C   UNL     1      -1.488   4.887  -0.218  0.00  0.00    +0.000 A 
ATOM      6  O   UNL     1      -1.026   3.615  -0.423  0.00  0.00    +0.000 OA
ATOM      7  C   UNL     1      -0.904   5.883  -1.000  0.00  0.00    +0.000 A 
ATOM      8  C   UNL     1      -1.296   7.225  -0.870  0.00  0.00    +0.000 A 
ATOM      9  C   UNL     1      -2.295   7.561   0.063  0.00  0.00    +0.000 A 
ATOM     10  C   UNL     1      -2.863   6.550   0.857  0.00  0.00    +0.000 A 
ATOM     11  C   UNL     1      -2.757   8.982   0.239  0.00  0.00    +0.000 C 
ATOM     12  C   UNL     1      -0.649   8.266  -1.741  0.00  0.00    +0.000 C 
ENDROOT
BRANCH   1  16
ATOM     13  C   UNL     1       2.396  -0.115   0.745  0.00  0.00    +0.000 C 
ATOM     14  C   UNL     1       0.952  -0.040   0.345  0.00  0.00    +0.000 A 
ATOM     15  C   UNL     1       0.263   1.179   0.400  0.00  0.00    +0.000 A 
ATOM     16  C   UNL     1      -1.096   1.261   0.053  0.00  0.00    +0.000 A 
ATOM     17  C   UNL     1      -1.764   0.090  -0.333  0.00  0.00    +0.000 A 
ATOM     18  C   UNL     1      -1.089  -1.131  -0.376  0.00  0.00    +0.000 A 
ATOM     19  C   UNL     1       0.261  -1.196  -0.034  0.00  0.00    +0.000 A 
ENDBRANCH   1  16
TORSDOF 1
