REMARK  Name = *****
REMARK  5 active torsions:
REMARK  status: ('A' for Active; 'I' for Inactive)
REMARK    1  A    between atoms: C_1  and  C_2
REMARK    2  A    between atoms: C_5  and  C_17
REMARK    3  A    between atoms: C_9  and  C_10
REMARK    4  A    between atoms: C_9  and  O_16
REMARK    5  A    between atoms: C_17  and  C_19
REMARK                            x       y       z     vdW  Elec       q    Type
REMARK                         _______ _______ _______ _____ _____    ______ ____
ROOT
ATOM      1  C   UNL     1       1.653  -0.476  -2.127  0.00  0.00    +0.000 C 
ATOM      2  C   UNL     1       2.511   0.065  -0.987  0.00  0.00    +0.000 C 
ATOM      3  C   UNL     1       3.012   1.480  -1.299  0.00  0.00    +0.000 C 
ATOM      4  C   UNL     1       4.252   1.905  -0.500  0.00  0.00    +0.000 C 
ATOM      5  C   UNL     1       4.568   1.109   0.786  0.00  0.00    +0.000 C 
ATOM      6  C   UNL     1       4.564  -0.406   0.484  0.00  0.00    +0.000 C 
ATOM      7  C   UNL     1       3.712  -0.842  -0.737  0.00  0.00    +0.000 C 
ATOM      8  C   UNL     1       3.509  -2.225  -0.090  0.00  0.00    +0.000 C 
ATOM      9  C   UNL     1       4.014  -1.676   1.296  0.00  0.00    +0.000 C 
ENDROOT
BRANCH   9  10
ATOM     10  C   UNL     1       2.874  -1.528   2.449  0.00  0.00    +0.000 A 
ATOM     11  C   UNL     1       1.489  -1.427   2.201  0.00  0.00    +0.000 A 
ATOM     12  C   UNL     1       0.541  -1.321   3.227  0.00  0.00    +0.000 A 
ATOM     13  C   UNL     1       0.946  -1.331   4.555  0.00  0.00    +0.000 A 
ATOM     14  C   UNL     1       2.295  -1.459   4.854  0.00  0.00    +0.000 A 
ATOM     15  C   UNL     1       3.230  -1.563   3.818  0.00  0.00    +0.000 A 
ENDBRANCH   9  10
BRANCH   5  16
ATOM     16  C   UNL     1       3.817   1.504   2.038  0.00  0.00    +0.000 C 
ATOM     17  C   UNL     1       2.561   1.979   2.081  0.00  0.00    +0.000 C 
ATOM     18  C   UNL     1       4.633   1.448   3.309  0.00  0.00    +0.000 C 
ENDBRANCH   5  16
BRANCH   9  19
ATOM     19  O   UNL     1       5.115  -2.482   1.823  0.00  0.00    +0.000 OA
ATOM     20  H   UNL     1       5.801  -2.577   1.144  0.00  0.00    +0.000 HD
ENDBRANCH   9  19
TORSDOF 3
