REMARK  Name = *****
REMARK  2 active torsions:
REMARK  status: ('A' for Active; 'I' for Inactive)
REMARK    1  A    between atoms: C_9  and  C_17
REMARK    2  A    between atoms: C_10  and  C_11
REMARK                            x       y       z     vdW  Elec       q    Type
REMARK                         _______ _______ _______ _____ _____    ______ ____
ROOT
ATOM      1  C   UNL     1      -1.348   1.381  -0.526  0.00  0.00    +0.000 C 
ATOM      2  C   UNL     1      -2.397   1.135   0.556  0.00  0.00    +0.000 C 
ATOM      3  S   UNL     1      -2.820  -0.629   0.699  0.00  0.00    +0.000 S 
ATOM      4  C   UNL     1      -1.136  -1.282   0.954  0.00  0.00    +0.000 C 
ATOM      5  C   UNL     1      -0.141  -0.862  -0.149  0.00  0.00    +0.000 C 
ATOM      6  C   UNL     1      -0.047   0.657  -0.257  0.00  0.00    +0.000 C 
ATOM      7  C   UNL     1       1.116   1.318  -0.153  0.00  0.00    +0.000 C 
ATOM      8  C   UNL     1       2.365   0.644   0.075  0.00  0.00    +0.000 C 
ATOM      9  C   UNL     1       2.436  -0.690   0.188  0.00  0.00    +0.000 C 
ATOM     10  C   UNL     1       1.230  -1.599   0.099  0.00  0.00    +0.000 C 
ENDROOT
BRANCH  10  11
ATOM     11  C   UNL     1       1.413  -2.711  -0.933  0.00  0.00    +0.000 A 
ATOM     12  C   UNL     1       1.257  -4.054  -0.556  0.00  0.00    +0.000 A 
ATOM     13  C   UNL     1       1.419  -5.078  -1.491  0.00  0.00    +0.000 A 
ATOM     14  C   UNL     1       1.736  -4.772  -2.813  0.00  0.00    +0.000 A 
ATOM     15  C   UNL     1       1.887  -3.444  -3.203  0.00  0.00    +0.000 A 
ATOM     16  C   UNL     1       1.725  -2.418  -2.271  0.00  0.00    +0.000 A 
ENDBRANCH  10  11
BRANCH   9  17
ATOM     17  C   UNL     1       3.765  -1.301   0.465  0.00  0.00    +0.000 C 
ATOM     18  O   UNL     1       4.793  -0.650   0.611  0.00  0.00    +0.000 OA
ENDBRANCH   9  17
TORSDOF 2
