REMARK  Name = *****
REMARK  5 active torsions:
REMARK  status: ('A' for Active; 'I' for Inactive)
REMARK    1  A    between atoms: C_1  and  C_2
REMARK    2  A    between atoms: C_5  and  C_8
REMARK    3  A    between atoms: C_8  and  C_19
REMARK    4  A    between atoms: C_11  and  C_12
REMARK    5  A    between atoms: C_11  and  O_18
REMARK                            x       y       z     vdW  Elec       q    Type
REMARK                         _______ _______ _______ _____ _____    ______ ____
ROOT
ATOM      1  C   UNL     1      -3.199   0.032  -0.000  0.00  0.00    +0.000 C 
ATOM      2  C   UNL     1      -3.621  -0.072  -1.501  0.00  0.00    +0.000 C 
ATOM      3  C   UNL     1      -4.831   0.831  -1.195  0.00  0.00    +0.000 C 
ATOM      4  C   UNL     1      -4.019   1.441   0.013  0.00  0.00    +0.000 C 
ATOM      5  C   UNL     1      -3.915  -1.068   0.835  0.00  0.00    +0.000 C 
ENDROOT
BRANCH   1  10
ATOM      6  C   UNL     1       2.720  -0.315   0.067  0.00  0.00    +0.000 C 
ATOM      7  C   UNL     1       1.227  -0.179   0.003  0.00  0.00    +0.000 C 
ATOM      8  C   UNL     1       0.622   1.005  -0.188  0.00  0.00    +0.000 C 
ATOM      9  C   UNL     1      -0.869   1.192  -0.214  0.00  0.00    +0.000 C 
ATOM     10  C   UNL     1      -1.668  -0.018   0.305  0.00  0.00    +0.000 C 
ATOM     11  C   UNL     1      -1.032  -1.312  -0.244  0.00  0.00    +0.000 C 
ATOM     12  C   UNL     1       0.437  -1.449   0.170  0.00  0.00    +0.000 C 
ENDBRANCH   1  10
BRANCH   4  13
ATOM     13  C   UNL     1      -4.827   1.779   1.365  0.00  0.00    +0.000 A 
ATOM     14  C   UNL     1      -4.153   1.912   2.598  0.00  0.00    +0.000 A 
ATOM     15  C   UNL     1      -4.824   2.208   3.788  0.00  0.00    +0.000 A 
ATOM     16  C   UNL     1      -6.201   2.393   3.779  0.00  0.00    +0.000 A 
ATOM     17  C   UNL     1      -6.900   2.292   2.581  0.00  0.00    +0.000 A 
ATOM     18  C   UNL     1      -6.220   1.996   1.396  0.00  0.00    +0.000 A 
ENDBRANCH   4  13
BRANCH   4  19
ATOM     19  O   UNL     1      -3.278   2.626  -0.386  0.00  0.00    +0.000 OA
ATOM     20  H   UNL     1      -2.785   2.440  -1.200  0.00  0.00    +0.000 HD
ENDBRANCH   4  19
TORSDOF 3
