REMARK  Name = *****
REMARK  0 active torsions:
REMARK  status: ('A' for Active; 'I' for Inactive)
REMARK                            x       y       z     vdW  Elec       q    Type
REMARK                         _______ _______ _______ _____ _____    ______ ____
ROOT
ATOM      1  C   UNL     1      -1.791  -0.948   0.858  0.00  0.00    +0.000 C 
ATOM      2  C   UNL     1      -2.617  -0.315  -0.283  0.00  0.00    +0.000 C 
ATOM      3  C   UNL     1      -4.103  -0.208  -0.003  0.00  0.00    +0.000 C 
ATOM      4  C   UNL     1      -4.451   1.022   0.776  0.00  0.00    +0.000 A 
ATOM      5  C   UNL     1      -5.717   1.127   1.373  0.00  0.00    +0.000 A 
ATOM      6  C   UNL     1      -6.072   2.271   2.090  0.00  0.00    +0.000 A 
ATOM      7  C   UNL     1      -5.166   3.321   2.213  0.00  0.00    +0.000 A 
ATOM      8  C   UNL     1      -3.911   3.226   1.613  0.00  0.00    +0.000 A 
ATOM      9  C   UNL     1      -3.558   2.087   0.886  0.00  0.00    +0.000 A 
ATOM     10  O   UNL     1      -2.304   2.100   0.352  0.00  0.00    +0.000 OA
ATOM     11  C   UNL     1      -1.968   1.054  -0.555  0.00  0.00    +0.000 C 
ATOM     12  C   UNL     1      -0.524   0.707  -0.299  0.00  0.00    +0.000 A 
ATOM     13  C   UNL     1       0.610   1.385  -0.717  0.00  0.00    +0.000 A 
ATOM     14  C   UNL     1       1.856   0.895  -0.320  0.00  0.00    +0.000 A 
ATOM     15  C   UNL     1       1.952  -0.247   0.492  0.00  0.00    +0.000 A 
ATOM     16  C   UNL     1       0.804  -0.917   0.921  0.00  0.00    +0.000 A 
ATOM     17  C   UNL     1      -0.426  -0.433   0.512  0.00  0.00    +0.000 A 
ENDROOT
TORSDOF 0
