REMARK  Name = *****
REMARK  3 active torsions:
REMARK  status: ('A' for Active; 'I' for Inactive)
REMARK    1  A    between atoms: C_10  and  C_11
REMARK    2  A    between atoms: C_11  and  C_12
REMARK    3  A    between atoms: C_11  and  O_19
REMARK                            x       y       z     vdW  Elec       q    Type
REMARK                         _______ _______ _______ _____ _____    ______ ____
ROOT
ATOM      1  C   UNL     1       2.371  -0.730  -0.460  0.00  0.00    +0.000 A 
ATOM      2  C   UNL     1       2.366   0.656  -0.517  0.00  0.00    +0.000 A 
ATOM      3  C   UNL     1       1.169   1.357  -0.344  0.00  0.00    +0.000 A 
ATOM      4  C   UNL     1      -0.062   0.697  -0.111  0.00  0.00    +0.000 A 
ATOM      5  C   UNL     1      -0.031  -0.722  -0.056  0.00  0.00    +0.000 A 
ATOM      6  C   UNL     1       1.179  -1.413  -0.231  0.00  0.00    +0.000 A 
ATOM      7  C   UNL     1      -1.211  -1.443   0.174  0.00  0.00    +0.000 A 
ATOM      8  C   UNL     1      -2.424  -0.788   0.352  0.00  0.00    +0.000 A 
ATOM      9  C   UNL     1      -2.473   0.600   0.300  0.00  0.00    +0.000 A 
ATOM     10  C   UNL     1      -1.312   1.366   0.071  0.00  0.00    +0.000 A 
ENDROOT
BRANCH  10  11
ATOM     11  C   UNL     1      -1.426   2.888   0.003  0.00  0.00    +0.000 C 
BRANCH  11  12
ATOM     12  C   UNL     1      -1.313   3.476  -1.396  0.00  0.00    +0.000 A 
ATOM     13  C   UNL     1      -2.041   2.946  -2.475  0.00  0.00    +0.000 A 
ATOM     14  C   UNL     1      -1.949   3.517  -3.747  0.00  0.00    +0.000 A 
ATOM     15  C   UNL     1      -1.137   4.630  -3.949  0.00  0.00    +0.000 A 
ATOM     16  C   UNL     1      -0.420   5.180  -2.890  0.00  0.00    +0.000 A 
ATOM     17  C   UNL     1      -0.512   4.610  -1.617  0.00  0.00    +0.000 A 
ATOM     18 CL   UNL     1      -1.024   5.334  -5.515  0.00  0.00    +0.000 Cl
ENDBRANCH  11  12
BRANCH  11  19
ATOM     19  O   UNL     1      -2.652   3.348   0.584  0.00  0.00    +0.000 OA
ATOM     20  H   UNL     1      -3.400   3.023   0.059  0.00  0.00    +0.000 HD
ENDBRANCH  11  19
ENDBRANCH  10  11
TORSDOF 3
