REMARK  Name = *****
REMARK  3 active torsions:
REMARK  status: ('A' for Active; 'I' for Inactive)
REMARK    1  A    between atoms: C_1  and  C_2
REMARK    2  A    between atoms: N_12  and  N_13
REMARK    3  A    between atoms: C_14  and  C_15
REMARK                            x       y       z     vdW  Elec       q    Type
REMARK                         _______ _______ _______ _____ _____    ______ ____
ROOT
ATOM      1  C   UNL     1       1.930  -0.368   3.098  0.00  0.00    +0.000 C 
ATOM      2  C   UNL     1       2.764  -0.083   1.872  0.00  0.00    +0.000 A 
ATOM      3  N   UNL     1       3.593   0.914   1.906  0.00  0.00    +0.000 NA
ATOM      4  C   UNL     1       4.360   1.172   0.763  0.00  0.00    +0.000 A 
ATOM      5  C   UNL     1       5.185   2.298   0.748  0.00  0.00    +0.000 A 
ATOM      6  C   UNL     1       5.982   2.583  -0.365  0.00  0.00    +0.000 A 
ATOM      7  C   UNL     1       5.963   1.737  -1.474  0.00  0.00    +0.000 A 
ATOM      8  C   UNL     1       5.145   0.608  -1.470  0.00  0.00    +0.000 A 
ATOM      9  C   UNL     1       4.346   0.336  -0.352  0.00  0.00    +0.000 A 
ATOM     10  C   UNL     1       3.466  -0.847  -0.317  0.00  0.00    +0.000 A 
ATOM     11  O   UNL     1       3.578  -1.694  -1.203  0.00  0.00    +0.000 OA
ATOM     12  N   UNL     1       2.586  -0.908   0.770  0.00  0.00    +0.000 N 
ENDROOT
BRANCH  12  13
ATOM     13  N   UNL     1       1.733  -1.991   0.914  0.00  0.00    +0.000 NA
ATOM     14  C   UNL     1       0.937  -2.327  -0.059  0.00  0.00    +0.000 C 
BRANCH  14  15
ATOM     15  C   UNL     1       0.633  -1.624  -1.320  0.00  0.00    +0.000 A 
ATOM     16  C   UNL     1       0.112  -0.327  -1.371  0.00  0.00    +0.000 A 
ATOM     17  C   UNL     1      -0.156   0.264  -2.610  0.00  0.00    +0.000 A 
ATOM     18  C   UNL     1       0.081  -0.448  -3.785  0.00  0.00    +0.000 A 
ATOM     19  C   UNL     1       0.571  -1.752  -3.737  0.00  0.00    +0.000 A 
ATOM     20  C   UNL     1       0.839  -2.346  -2.503  0.00  0.00    +0.000 A 
ATOM     21 CL   UNL     1      -0.249   0.283  -5.306  0.00  0.00    +0.000 Cl
ATOM     22 CL   UNL     1      -0.294   0.574   0.043  0.00  0.00    +0.000 Cl
ENDBRANCH  14  15
ENDBRANCH  12  13
TORSDOF 2
