REMARK  Name = *****
REMARK  3 active torsions:
REMARK  status: ('A' for Active; 'I' for Inactive)
REMARK    1  A    between atoms: C_5  and  O_12
REMARK    2  A    between atoms: O_12  and  C_13
REMARK    3  A    between atoms: C_13  and  C_14
REMARK                            x       y       z     vdW  Elec       q    Type
REMARK                         _______ _______ _______ _____ _____    ______ ____
ROOT
ATOM      1  C   UNL     1      -2.733   0.131  -0.002  0.00  0.00    +0.000 C 
ATOM      2  C   UNL     1      -1.868   1.150  -0.066  0.00  0.00    +0.000 C 
ATOM      3  C   UNL     1      -0.403   0.881  -0.120  0.00  0.00    +0.000 C 
ATOM      4  N   UNL     1       0.413   1.888  -0.181  0.00  0.00    +0.000 NA
ATOM      5  C   UNL     1       1.754   1.619  -0.232  0.00  0.00    +0.000 C 
ATOM      6  C   UNL     1       2.254   0.383  -0.219  0.00  0.00    +0.000 C 
ATOM      7  C   UNL     1       1.340  -0.763  -0.146  0.00  0.00    +0.000 C 
ATOM      8  O   UNL     1       1.812  -1.899  -0.129  0.00  0.00    +0.000 OA
ATOM      9  N   UNL     1      -0.008  -0.451  -0.099  0.00  0.00    +0.000 N 
ATOM     10  C   UNL     1      -0.945  -1.476  -0.031  0.00  0.00    +0.000 C 
ATOM     11  C   UNL     1      -2.259  -1.227   0.017  0.00  0.00    +0.000 C 
ENDROOT
BRANCH   5  12
ATOM     12  O   UNL     1       2.670   2.658  -0.302  0.00  0.00    +0.000 OA
BRANCH  12  13
ATOM     13  C   UNL     1       2.084   3.960  -0.297  0.00  0.00    +0.000 C 
BRANCH  13  14
ATOM     14  C   UNL     1       3.199   4.977  -0.352  0.00  0.00    +0.000 A 
ATOM     15  C   UNL     1       3.386   5.777  -1.488  0.00  0.00    +0.000 A 
ATOM     16  C   UNL     1       4.422   6.711  -1.524  0.00  0.00    +0.000 A 
ATOM     17  C   UNL     1       5.283   6.858  -0.438  0.00  0.00    +0.000 A 
ATOM     18  C   UNL     1       5.108   6.063   0.694  0.00  0.00    +0.000 A 
ATOM     19  C   UNL     1       4.073   5.127   0.736  0.00  0.00    +0.000 A 
ATOM     20 CL   UNL     1       4.638   7.692  -2.922  0.00  0.00    +0.000 Cl
ENDBRANCH  13  14
ENDBRANCH  12  13
ENDBRANCH   5  12
TORSDOF 3
