REMARK  Name = *****
REMARK  1 active torsions:
REMARK  status: ('A' for Active; 'I' for Inactive)
REMARK    1  A    between atoms: C_2  and  C_12
REMARK                            x       y       z     vdW  Elec       q    Type
REMARK                         _______ _______ _______ _____ _____    ______ ____
ROOT
ATOM      1  C   UNL     1      -2.310   0.324  -0.456  0.00  0.00    +0.000 C 
ATOM      2  C   UNL     1      -1.759   1.440   0.432  0.00  0.00    +0.000 C 
ATOM      3  O   UNL     1      -0.424   1.802   0.027  0.00  0.00    +0.000 OA
ATOM      4  C   UNL     1       0.451   0.753  -0.022  0.00  0.00    +0.000 A 
ATOM      5  C   UNL     1       1.799   1.053   0.167  0.00  0.00    +0.000 A 
ATOM      6  C   UNL     1       2.752   0.033   0.126  0.00  0.00    +0.000 A 
ATOM      7  C   UNL     1       2.359  -1.284  -0.117  0.00  0.00    +0.000 A 
ATOM      8  C   UNL     1       1.013  -1.582  -0.328  0.00  0.00    +0.000 A 
ATOM      9  C   UNL     1       0.063  -0.558  -0.283  0.00  0.00    +0.000 A 
ATOM     10  C   UNL     1      -1.357  -0.836  -0.560  0.00  0.00    +0.000 C 
ATOM     11  O   UNL     1      -1.719  -1.949  -0.928  0.00  0.00    +0.000 OA
ENDROOT
BRANCH   2  12
ATOM     12  C   UNL     1      -1.836   1.337   1.950  0.00  0.00    +0.000 A 
ATOM     13  C   UNL     1      -2.151   0.145   2.614  0.00  0.00    +0.000 A 
ATOM     14  C   UNL     1      -2.204   0.054   4.006  0.00  0.00    +0.000 A 
ATOM     15  C   UNL     1      -1.943   1.172   4.786  0.00  0.00    +0.000 A 
ATOM     16  C   UNL     1      -1.635   2.378   4.164  0.00  0.00    +0.000 A 
ATOM     17  C   UNL     1      -1.583   2.462   2.765  0.00  0.00    +0.000 A 
ATOM     18 CL   UNL     1      -1.216   4.019   2.103  0.00  0.00    +0.000 Cl
ATOM     19  F   UNL     1      -2.422  -0.971   1.927  0.00  0.00    +0.000 F 
ENDBRANCH   2  12
TORSDOF 1
