REMARK  Name = *****
REMARK  4 active torsions:
REMARK  status: ('A' for Active; 'I' for Inactive)
REMARK    1  A    between atoms: C_1  and  C_2
REMARK    2  A    between atoms: C_2  and  C_14
REMARK    3  A    between atoms: C_9  and  O_11
REMARK    4  A    between atoms: O_11  and  C_12
REMARK                            x       y       z     vdW  Elec       q    Type
REMARK                         _______ _______ _______ _____ _____    ______ ____
ROOT
ATOM      1  C   UNL     1       1.168   0.074   0.275  0.00  0.00    +0.000 C 
ATOM      2  C   UNL     1       2.662  -0.201   0.030  0.00  0.00    +0.000 C 
ATOM      3  C   UNL     1       3.068  -1.612   0.535  0.00  0.00    +0.000 C 
ATOM      4  C   UNL     1       3.808  -1.264   1.769  0.00  0.00    +0.000 A 
ATOM      5  C   UNL     1       3.967   0.105   1.856  0.00  0.00    +0.000 A 
ATOM      6  O   UNL     1       3.385   0.790   0.824  0.00  0.00    +0.000 OA
ATOM      7  C   UNL     1       4.673   0.677   2.900  0.00  0.00    +0.000 A 
ATOM      8  C   UNL     1       5.230  -0.156   3.877  0.00  0.00    +0.000 A 
ATOM      9  C   UNL     1       5.076  -1.548   3.789  0.00  0.00    +0.000 A 
ATOM     10  C   UNL     1       4.355  -2.105   2.725  0.00  0.00    +0.000 A 
ATOM     11 CL   UNL     1       4.877   2.382   3.016  0.00  0.00    +0.000 Cl
ENDROOT
BRANCH   2  12
ATOM     12  C   UNL     1       2.990  -0.035  -1.457  0.00  0.00    +0.000 A 
ATOM     13  C   UNL     1       3.878   0.956  -1.907  0.00  0.00    +0.000 A 
ATOM     14  C   UNL     1       4.182   1.087  -3.264  0.00  0.00    +0.000 A 
ATOM     15  C   UNL     1       3.603   0.231  -4.196  0.00  0.00    +0.000 A 
ATOM     16  C   UNL     1       2.718  -0.757  -3.773  0.00  0.00    +0.000 A 
ATOM     17  C   UNL     1       2.414  -0.889  -2.416  0.00  0.00    +0.000 A 
ENDBRANCH   2  12
BRANCH   9  18
ATOM     18  O   UNL     1       5.580  -2.465   4.671  0.00  0.00    +0.000 OA
ATOM     19  C   UNL     1       6.409  -1.968   5.714  0.00  0.00    +0.000 C 
ENDBRANCH   9  18
TORSDOF 2
