REMARK  Name = *****
REMARK  1 active torsions:
REMARK  status: ('A' for Active; 'I' for Inactive)
REMARK    1  A    between atoms: C_2  and  C_11
REMARK                            x       y       z     vdW  Elec       q    Type
REMARK                         _______ _______ _______ _____ _____    ______ ____
ROOT
ATOM      1  C   UNL     1       2.180   0.694  -0.405  0.00  0.00    +0.000 C 
ATOM      2  C   UNL     1       2.162  -0.575   0.457  0.00  0.00    +0.000 C 
ATOM      3  O   UNL     1       1.017  -1.382   0.126  0.00  0.00    +0.000 OA
ATOM      4  C   UNL     1      -0.124  -0.640  -0.034  0.00  0.00    +0.000 A 
ATOM      5  C   UNL     1      -1.327  -1.344  -0.040  0.00  0.00    +0.000 A 
ATOM      6  C   UNL     1      -2.536  -0.658  -0.169  0.00  0.00    +0.000 A 
ATOM      7  C   UNL     1      -2.539   0.732  -0.295  0.00  0.00    +0.000 A 
ATOM      8  C   UNL     1      -1.333   1.436  -0.302  0.00  0.00    +0.000 A 
ATOM      9  C   UNL     1      -0.126   0.749  -0.186  0.00  0.00    +0.000 A 
ATOM     10  O   UNL     1       1.015   1.506  -0.218  0.00  0.00    +0.000 OA
ENDROOT
BRANCH   2  11
ATOM     11  C   UNL     1       2.272  -0.426   1.971  0.00  0.00    +0.000 A 
ATOM     12  C   UNL     1       2.353   0.815   2.621  0.00  0.00    +0.000 A 
ATOM     13  C   UNL     1       2.458   0.889   4.014  0.00  0.00    +0.000 A 
ATOM     14  C   UNL     1       2.484  -0.278   4.773  0.00  0.00    +0.000 A 
ATOM     15  C   UNL     1       2.407  -1.520   4.152  0.00  0.00    +0.000 A 
ATOM     16  C   UNL     1       2.303  -1.592   2.760  0.00  0.00    +0.000 A 
ATOM     17 CL   UNL     1       2.611  -0.182   6.486  0.00  0.00    +0.000 Cl
ENDBRANCH   2  11
TORSDOF 1
