REMARK  Name = *****
REMARK  1 active torsions:
REMARK  status: ('A' for Active; 'I' for Inactive)
REMARK    1  A    between atoms: C_6  and  C_11
REMARK                            x       y       z     vdW  Elec       q    Type
REMARK                         _______ _______ _______ _____ _____    ______ ____
ROOT
ATOM      1  C   UNL     1      -0.123   0.768   3.207  0.00  0.00    +0.000 A 
ATOM      2  C   UNL     1       0.997   1.221   2.626  0.00  0.00    +0.000 A 
ATOM      3  C   UNL     1       1.120   1.248   1.185  0.00  0.00    +0.000 A 
ATOM      4  C   UNL     1       2.159   1.795   0.543  0.00  0.00    +0.000 C 
ATOM      5  C   UNL     1       2.229   1.860  -0.948  0.00  0.00    +0.000 C 
ATOM      6  C   UNL     1       1.268   0.894  -1.686  0.00  0.00    +0.000 C 
ATOM      7  N   UNL     1       0.036   0.535  -0.946  0.00  0.00    +0.000 NA
ATOM      8  C   UNL     1       0.016   0.693   0.332  0.00  0.00    +0.000 A 
ATOM      9  C   UNL     1      -1.201   0.266   1.078  0.00  0.00    +0.000 A 
ATOM     10  C   UNL     1      -1.240   0.306   2.417  0.00  0.00    +0.000 A 
ATOM     11  F   UNL     1       1.937   3.140  -1.333  0.00  0.00    +0.000 F 
ENDROOT
BRANCH   6  12
ATOM     12  C   UNL     1       2.002  -0.351  -2.175  0.00  0.00    +0.000 A 
ATOM     13  C   UNL     1       2.453  -0.418  -3.504  0.00  0.00    +0.000 A 
ATOM     14  C   UNL     1       3.150  -1.538  -3.965  0.00  0.00    +0.000 A 
ATOM     15  C   UNL     1       3.405  -2.599  -3.100  0.00  0.00    +0.000 A 
ATOM     16  C   UNL     1       2.968  -2.550  -1.779  0.00  0.00    +0.000 A 
ATOM     17  C   UNL     1       2.271  -1.430  -1.318  0.00  0.00    +0.000 A 
ATOM     18 CL   UNL     1       4.265  -3.978  -3.667  0.00  0.00    +0.000 Cl
ENDBRANCH   6  12
TORSDOF 1
