REMARK  Name = *****
REMARK  1 active torsions:
REMARK  status: ('A' for Active; 'I' for Inactive)
REMARK    1  A    between atoms: C_10  and  C_13
REMARK                            x       y       z     vdW  Elec       q    Type
REMARK                         _______ _______ _______ _____ _____    ______ ____
ROOT
ATOM      1  C   UNL     1      -2.814   0.473   0.504  0.00  0.00    +0.000 A 
ATOM      2  C   UNL     1      -2.810  -0.904   0.286  0.00  0.00    +0.000 A 
ATOM      3  C   UNL     1      -1.619  -1.556  -0.043  0.00  0.00    +0.000 A 
ATOM      4  C   UNL     1      -0.428  -0.835  -0.162  0.00  0.00    +0.000 A 
ATOM      5  C   UNL     1      -0.436   0.542   0.057  0.00  0.00    +0.000 A 
ATOM      6  C   UNL     1      -1.628   1.198   0.392  0.00  0.00    +0.000 A 
ATOM      7  C   UNL     1       0.809   1.317  -0.063  0.00  0.00    +0.000 C 
ATOM      8  O   UNL     1       0.856   2.516   0.180  0.00  0.00    +0.000 OA
ATOM      9  C   UNL     1       1.994   0.605  -0.548  0.00  0.00    +0.000 C 
ATOM     10  C   UNL     1       1.908  -0.880  -0.769  0.00  0.00    +0.000 C 
ATOM     11  O   UNL     1       2.580  -0.319   0.378  0.00  0.00    +0.000 OA
ATOM     12  O   UNL     1       0.681  -1.577  -0.467  0.00  0.00    +0.000 OA
ENDROOT
BRANCH  10  13
ATOM     13  C   UNL     1       2.769  -1.513  -1.836  0.00  0.00    +0.000 A 
ATOM     14  C   UNL     1       2.442  -1.387  -3.198  0.00  0.00    +0.000 A 
ATOM     15  C   UNL     1       3.232  -1.978  -4.186  0.00  0.00    +0.000 A 
ATOM     16  C   UNL     1       4.365  -2.709  -3.842  0.00  0.00    +0.000 A 
ATOM     17  C   UNL     1       4.706  -2.854  -2.500  0.00  0.00    +0.000 A 
ATOM     18  C   UNL     1       3.914  -2.264  -1.512  0.00  0.00    +0.000 A 
ATOM     19 CL   UNL     1       2.800  -1.799  -5.842  0.00  0.00    +0.000 Cl
ENDBRANCH  10  13
TORSDOF 1
