REMARK  Name = *****
REMARK  5 active torsions:
REMARK  status: ('A' for Active; 'I' for Inactive)
REMARK    1  A    between atoms: C_1  and  C_2
REMARK    2  A    between atoms: C_3  and  C_21
REMARK    3  A    between atoms: C_5  and  O_8
REMARK    4  A    between atoms: O_8  and  C_9
REMARK    5  A    between atoms: C_9  and  C_11
REMARK                            x       y       z     vdW  Elec       q    Type
REMARK                         _______ _______ _______ _____ _____    ______ ____
ROOT
ATOM      1  C   UNL     1      -4.381  -0.617   0.388  0.00  0.00    +0.000 C 
ATOM      2  O   UNL     1      -4.383   0.578   0.124  0.00  0.00    +0.000 OA
ENDROOT
BRANCH   1   3
ATOM      3  C   UNL     1      -5.552  -1.510   0.144  0.00  0.00    +0.000 A 
ATOM      4  N   UNL     1      -5.427  -2.828   0.453  0.00  0.00    +0.000 NA
ATOM      5  C   UNL     1      -6.480  -3.633   0.232  0.00  0.00    +0.000 A 
ATOM      6  C   UNL     1      -6.379  -4.983   0.538  0.00  0.00    +0.000 A 
ATOM      7  C   UNL     1      -7.443  -5.865   0.327  0.00  0.00    +0.000 A 
ATOM      8  C   UNL     1      -8.640  -5.394  -0.201  0.00  0.00    +0.000 A 
ATOM      9  C   UNL     1      -8.769  -4.043  -0.516  0.00  0.00    +0.000 A 
ATOM     10  C   UNL     1      -7.697  -3.159  -0.304  0.00  0.00    +0.000 A 
ATOM     11  C   UNL     1      -7.796  -1.796  -0.612  0.00  0.00    +0.000 A 
ATOM     12  C   UNL     1      -6.710  -0.958  -0.387  0.00  0.00    +0.000 A 
ENDBRANCH   1   3
BRANCH   1  13
ATOM     13  O   UNL     1      -3.346  -1.357   0.935  0.00  0.00    +0.000 OA
BRANCH  13  18
ATOM     14  C   UNL     1       1.555   1.282   2.148  0.00  0.00    +0.000 C 
ATOM     15  C   UNL     1       0.266   0.584   1.809  0.00  0.00    +0.000 A 
ATOM     16  C   UNL     1       0.235  -0.509   0.916  0.00  0.00    +0.000 A 
ATOM     17  C   UNL     1      -0.992  -1.127   0.630  0.00  0.00    +0.000 A 
ATOM     18  C   UNL     1      -2.165  -0.658   1.217  0.00  0.00    +0.000 A 
ATOM     19  C   UNL     1      -2.142   0.398   2.122  0.00  0.00    +0.000 A 
ATOM     20  C   UNL     1      -0.929   1.021   2.408  0.00  0.00    +0.000 A 
ATOM     21  C   UNL     1       1.488  -1.024   0.262  0.00  0.00    +0.000 C 
ENDBRANCH  13  18
ENDBRANCH   1  13
TORSDOF 3
