REMARK  Name = *****
REMARK  3 active torsions:
REMARK  status: ('A' for Active; 'I' for Inactive)
REMARK    1  A    between atoms: C_2  and  S_11
REMARK    2  A    between atoms: S_11  and  C_12
REMARK    3  A    between atoms: C_12  and  C_13
REMARK                            x       y       z     vdW  Elec       q    Type
REMARK                         _______ _______ _______ _____ _____    ______ ____
ROOT
ATOM      1  C   UNL     1       2.572   0.675   0.312  0.00  0.00    +0.000 C 
ATOM      2  C   UNL     1       2.349  -0.787   0.005  0.00  0.00    +0.000 C 
ATOM      3  N   UNL     1       1.200  -1.369  -0.142  0.00  0.00    +0.000 NA
ATOM      4  C   UNL     1       0.016  -0.609  -0.106  0.00  0.00    +0.000 A 
ATOM      5  C   UNL     1      -1.179  -1.301   0.123  0.00  0.00    +0.000 A 
ATOM      6  C   UNL     1      -2.406  -0.635   0.128  0.00  0.00    +0.000 A 
ATOM      7  C   UNL     1      -2.454   0.736  -0.109  0.00  0.00    +0.000 A 
ATOM      8  C   UNL     1      -1.274   1.441  -0.348  0.00  0.00    +0.000 A 
ATOM      9  C   UNL     1      -0.042   0.777  -0.341  0.00  0.00    +0.000 A 
ATOM     10  S   UNL     1       1.443   1.718  -0.643  0.00  0.00    +0.000 S 
ENDROOT
BRANCH   2  11
ATOM     11  S   UNL     1       3.815  -1.760  -0.039  0.00  0.00    +0.000 S 
BRANCH  11  12
ATOM     12  C   UNL     1       3.176  -3.274  -0.812  0.00  0.00    +0.000 C 
BRANCH  12  13
ATOM     13  C   UNL     1       4.277  -4.284  -1.028  0.00  0.00    +0.000 A 
ATOM     14  C   UNL     1       4.574  -5.233  -0.038  0.00  0.00    +0.000 A 
ATOM     15  C   UNL     1       5.599  -6.161  -0.232  0.00  0.00    +0.000 A 
ATOM     16  C   UNL     1       6.340  -6.147  -1.412  0.00  0.00    +0.000 A 
ATOM     17  C   UNL     1       6.060  -5.203  -2.398  0.00  0.00    +0.000 A 
ATOM     18  C   UNL     1       5.035  -4.274  -2.207  0.00  0.00    +0.000 A 
ENDBRANCH  12  13
ENDBRANCH  11  12
ENDBRANCH   2  11
TORSDOF 3
