REMARK  Name = *****
REMARK  3 active torsions:
REMARK  status: ('A' for Active; 'I' for Inactive)
REMARK    1  A    between atoms: C_1  and  C_2
REMARK    2  A    between atoms: C_9  and  C_13
REMARK    3  A    between atoms: N_10  and  C_12
REMARK                            x       y       z     vdW  Elec       q    Type
REMARK                         _______ _______ _______ _____ _____    ______ ____
ROOT
ATOM      1  C   UNL     1       0.944  -0.037  -0.161  0.00  0.00    +0.000 C 
ATOM      2  C   UNL     1       2.441  -0.003  -0.038  0.00  0.00    +0.000 A 
ATOM      3  C   UNL     1       3.110   1.220   0.114  0.00  0.00    +0.000 A 
ATOM      4  C   UNL     1       4.498   1.248   0.234  0.00  0.00    +0.000 A 
ATOM      5  C   UNL     1       5.235   0.067   0.213  0.00  0.00    +0.000 A 
ATOM      6  C   UNL     1       4.580  -1.165   0.074  0.00  0.00    +0.000 A 
ATOM      7  C   UNL     1       3.191  -1.190  -0.069  0.00  0.00    +0.000 A 
ATOM      8  O   UNL     1       2.503  -2.363  -0.212  0.00  0.00    +0.000 OA
ATOM      9  C   UNL     1       3.303  -3.536  -0.463  0.00  0.00    +0.000 C 
ATOM     10  N   UNL     1       4.524  -3.604   0.360  0.00  0.00    +0.000 N 
ATOM     11  C   UNL     1       5.359  -2.446   0.029  0.00  0.00    +0.000 C 
ATOM     12  C   UNL     1       5.285  -4.832   0.127  0.00  0.00    +0.000 C 
ATOM     13 CL   UNL     1       5.309   2.756   0.410  0.00  0.00    +0.000 Cl
ATOM     14  H   UNL     1       4.252  -3.600   1.343  0.00  0.00    +0.000 HD
ENDROOT
BRANCH   9  15
ATOM     15  C   UNL     1       2.354  -4.704  -0.218  0.00  0.00    +0.000 A 
ATOM     16  C   UNL     1       2.014  -5.581  -1.261  0.00  0.00    +0.000 A 
ATOM     17  C   UNL     1       1.148  -6.653  -1.033  0.00  0.00    +0.000 A 
ATOM     18  C   UNL     1       0.611  -6.860   0.237  0.00  0.00    +0.000 A 
ATOM     19  C   UNL     1       0.936  -5.996   1.281  0.00  0.00    +0.000 A 
ATOM     20  C   UNL     1       1.801  -4.925   1.056  0.00  0.00    +0.000 A 
ENDBRANCH   9  15
TORSDOF 1
