REMARK  Name = *****
REMARK  3 active torsions:
REMARK  status: ('A' for Active; 'I' for Inactive)
REMARK    1  A    between atoms: C_4  and  O_7
REMARK    2  A    between atoms: O_7  and  C_8
REMARK    3  A    between atoms: C_8  and  C_10
REMARK                            x       y       z     vdW  Elec       q    Type
REMARK                         _______ _______ _______ _____ _____    ______ ____
ROOT
ATOM      1  C   UNL     1      -4.014  -0.698  -1.417  0.00  0.00    +0.000 C 
ATOM      2  O   UNL     1      -3.365  -1.662  -1.816  0.00  0.00    +0.000 OA
ENDROOT
BRANCH   1   3
ATOM      3  C   UNL     1      -5.454  -0.663  -1.211  0.00  0.00    +0.000 A 
ATOM      4  N   UNL     1      -6.116   0.385  -0.760  0.00  0.00    +0.000 NA
ATOM      5  C   UNL     1      -7.467   0.092  -0.684  0.00  0.00    +0.000 A 
ATOM      6  C   UNL     1      -8.479   0.970  -0.246  0.00  0.00    +0.000 A 
ATOM      7  C   UNL     1      -9.810   0.541  -0.221  0.00  0.00    +0.000 A 
ATOM      8  C   UNL     1     -10.142  -0.748  -0.627  0.00  0.00    +0.000 A 
ATOM      9  C   UNL     1      -9.157  -1.638  -1.066  0.00  0.00    +0.000 A 
ATOM     10  C   UNL     1      -7.824  -1.197  -1.085  0.00  0.00    +0.000 A 
ATOM     11  S   UNL     1      -6.406  -2.046  -1.565  0.00  0.00    +0.000 S 
ENDBRANCH   1   3
BRANCH   1  12
ATOM     12  O   UNL     1      -3.475   0.547  -1.085  0.00  0.00    +0.000 OA
BRANCH  12  16
ATOM     13  C   UNL     1       0.644   1.063  -1.503  0.00  0.00    +0.000 A 
ATOM     14  C   UNL     1      -0.136   0.837  -2.639  0.00  0.00    +0.000 A 
ATOM     15  C   UNL     1      -1.513   0.651  -2.516  0.00  0.00    +0.000 A 
ATOM     16  C   UNL     1      -2.091   0.675  -1.247  0.00  0.00    +0.000 A 
ATOM     17  C   UNL     1      -1.326   0.922  -0.109  0.00  0.00    +0.000 A 
ATOM     18  C   UNL     1       0.049   1.109  -0.240  0.00  0.00    +0.000 A 
ENDBRANCH  12  16
ENDBRANCH   1  12
TORSDOF 3
