REMARK  Name = *****
REMARK  1 active torsions:
REMARK  status: ('A' for Active; 'I' for Inactive)
REMARK    1  A    between atoms: C_2  and  C_13
REMARK                            x       y       z     vdW  Elec       q    Type
REMARK                         _______ _______ _______ _____ _____    ______ ____
ROOT
ATOM      1  C   UNL     1      -2.476   0.800  -0.427  0.00  0.00    +0.000 C 
ATOM      2  C   UNL     1      -2.398  -0.564   0.245  0.00  0.00    +0.000 C 
ATOM      3  O   UNL     1      -1.265  -1.311  -0.231  0.00  0.00    +0.000 OA
ATOM      4  C   UNL     1      -0.078  -0.642  -0.089  0.00  0.00    +0.000 A 
ATOM      5  C   UNL     1       0.016   0.748   0.004  0.00  0.00    +0.000 A 
ATOM      6  C   UNL     1      -1.217   1.552  -0.104  0.00  0.00    +0.000 C 
ATOM      7  O   UNL     1      -1.185   2.773   0.006  0.00  0.00    +0.000 OA
ATOM      8  C   UNL     1       1.260   1.367   0.153  0.00  0.00    +0.000 A 
ATOM      9  C   UNL     1       2.417   0.585   0.193  0.00  0.00    +0.000 A 
ATOM     10  C   UNL     1       2.321  -0.802   0.076  0.00  0.00    +0.000 A 
ATOM     11  C   UNL     1       1.079  -1.420  -0.069  0.00  0.00    +0.000 A 
ATOM     12 CL   UNL     1       3.750  -1.760   0.111  0.00  0.00    +0.000 Cl
ENDROOT
BRANCH   2  13
ATOM     13  C   UNL     1      -3.664  -1.359  -0.023  0.00  0.00    +0.000 A 
ATOM     14  C   UNL     1      -3.795  -2.170  -1.163  0.00  0.00    +0.000 A 
ATOM     15  C   UNL     1      -4.979  -2.871  -1.398  0.00  0.00    +0.000 A 
ATOM     16  C   UNL     1      -6.049  -2.769  -0.513  0.00  0.00    +0.000 A 
ATOM     17  C   UNL     1      -5.936  -1.960   0.617  0.00  0.00    +0.000 A 
ATOM     18  C   UNL     1      -4.752  -1.259   0.860  0.00  0.00    +0.000 A 
ATOM     19 CL   UNL     1      -5.119  -3.865  -2.796  0.00  0.00    +0.000 Cl
ENDBRANCH   2  13
TORSDOF 1
