REMARK  Name = *****
REMARK  3 active torsions:
REMARK  status: ('A' for Active; 'I' for Inactive)
REMARK    1  A    between atoms: C_1  and  O_2
REMARK    2  A    between atoms: O_2  and  C_3
REMARK    3  A    between atoms: C_13  and  C_14
REMARK                            x       y       z     vdW  Elec       q    Type
REMARK                         _______ _______ _______ _____ _____    ______ ____
ROOT
ATOM      1  C   UNL     1       3.313  -1.369   0.496  0.00  0.00    +0.000 C 
ATOM      2  N   UNL     1       4.390  -1.008   1.114  0.00  0.00    +0.000 NA
ATOM      3  C   UNL     1       5.336  -1.882   1.669  0.00  0.00    +0.000 A 
ATOM      4  C   UNL     1       6.080  -1.306   2.717  0.00  0.00    +0.000 A 
ATOM      5  C   UNL     1       7.074  -2.008   3.402  0.00  0.00    +0.000 A 
ATOM      6  C   UNL     1       7.352  -3.317   3.044  0.00  0.00    +0.000 A 
ATOM      7  C   UNL     1       6.636  -3.906   2.005  0.00  0.00    +0.000 A 
ATOM      8  C   UNL     1       5.637  -3.203   1.308  0.00  0.00    +0.000 A 
ATOM      9  O   UNL     1       5.067  -3.974   0.339  0.00  0.00    +0.000 OA
ATOM     10  C   UNL     1       4.101  -3.399  -0.533  0.00  0.00    +0.000 C 
ATOM     11  C   UNL     1       2.873  -2.792   0.166  0.00  0.00    +0.000 C 
ATOM     12 CL   UNL     1       1.544  -2.747  -1.097  0.00  0.00    +0.000 Cl
ENDROOT
BRANCH  11  13
ATOM     13  C   UNL     1       2.284  -3.560   1.353  0.00  0.00    +0.000 A 
ATOM     14  C   UNL     1       1.605  -2.887   2.386  0.00  0.00    +0.000 A 
ATOM     15  C   UNL     1       1.048  -3.586   3.460  0.00  0.00    +0.000 A 
ATOM     16  C   UNL     1       1.146  -4.972   3.517  0.00  0.00    +0.000 A 
ATOM     17  C   UNL     1       1.792  -5.662   2.496  0.00  0.00    +0.000 A 
ATOM     18  C   UNL     1       2.349  -4.964   1.421  0.00  0.00    +0.000 A 
ENDBRANCH  11  13
BRANCH   1  20
ATOM     19  C   UNL     1       2.780   0.955   0.342  0.00  0.00    +0.000 C 
ATOM     20  O   UNL     1       2.437  -0.411   0.077  0.00  0.00    +0.000 OA
ENDBRANCH   1  20
TORSDOF 2
