REMARK  Name = *****
REMARK  2 active torsions:
REMARK  status: ('A' for Active; 'I' for Inactive)
REMARK    1  A    between atoms: C_4  and  S_7
REMARK    2  A    between atoms: S_7  and  C_8
REMARK                            x       y       z     vdW  Elec       q    Type
REMARK                         _______ _______ _______ _____ _____    ______ ____
ROOT
ATOM      1  C   UNL     1       3.482  -2.489  -0.561  0.00  0.00    +0.000 A 
ATOM      2  N   UNL     1       3.356  -2.682   0.731  0.00  0.00    +0.000 NA
ATOM      3  C   UNL     1       3.975  -3.868   1.088  0.00  0.00    +0.000 A 
ATOM      4  C   UNL     1       4.046  -4.404   2.389  0.00  0.00    +0.000 A 
ATOM      5  C   UNL     1       4.701  -5.621   2.606  0.00  0.00    +0.000 A 
ATOM      6  C   UNL     1       5.284  -6.306   1.545  0.00  0.00    +0.000 A 
ATOM      7  C   UNL     1       5.229  -5.795   0.245  0.00  0.00    +0.000 A 
ATOM      8  C   UNL     1       4.570  -4.572   0.039  0.00  0.00    +0.000 A 
ATOM      9  S   UNL     1       4.342  -3.691  -1.423  0.00  0.00    +0.000 S 
ENDROOT
BRANCH   1  10
ATOM     10  S   UNL     1       2.819  -1.078  -1.359  0.00  0.00    +0.000 S 
BRANCH  10  14
ATOM     11  C   UNL     1      -1.232   0.383   0.352  0.00  0.00    +0.000 C 
ATOM     12  C   UNL     1      -0.814  -1.050   0.666  0.00  0.00    +0.000 C 
ATOM     13  C   UNL     1       0.320  -1.520  -0.244  0.00  0.00    +0.000 C 
ATOM     14  C   UNL     1       1.520  -0.565  -0.177  0.00  0.00    +0.000 C 
ATOM     15  C   UNL     1       1.091   0.870  -0.512  0.00  0.00    +0.000 C 
ATOM     16  C   UNL     1      -0.043   1.337   0.401  0.00  0.00    +0.000 C 
ENDBRANCH  10  14
ENDBRANCH   1  10
TORSDOF 2
