REMARK  Name = *****
REMARK  4 active torsions:
REMARK  status: ('A' for Active; 'I' for Inactive)
REMARK    1  A    between atoms: C_1  and  C_2
REMARK    2  A    between atoms: C_5  and  C_8
REMARK    3  A    between atoms: C_15  and  C_19
REMARK    4  A    between atoms: C_16  and  C_18
REMARK                            x       y       z     vdW  Elec       q    Type
REMARK                         _______ _______ _______ _____ _____    ______ ____
ROOT
ATOM      1  C   UNL     1      -3.357   0.041   0.050  0.00  0.00    +0.000 C 
ATOM      2  C   UNL     1      -3.872  -0.172   1.474  0.00  0.00    +0.000 C 
ATOM      3  C   UNL     1      -5.390  -0.269   1.434  0.00  0.00    +0.000 C 
ATOM      4  C   UNL     1      -5.968   0.815   0.571  0.00  0.00    +0.000 A 
ATOM      5  C   UNL     1      -5.168   1.509  -0.338  0.00  0.00    +0.000 A 
ATOM      6  O   UNL     1      -3.828   1.282  -0.498  0.00  0.00    +0.000 OA
ATOM      7  C   UNL     1      -5.714   2.525  -1.122  0.00  0.00    +0.000 A 
ATOM      8  C   UNL     1      -7.077   2.850  -1.037  0.00  0.00    +0.000 A 
ATOM      9  C   UNL     1      -7.899   2.130  -0.149  0.00  0.00    +0.000 A 
ATOM     10  C   UNL     1      -7.333   1.121   0.649  0.00  0.00    +0.000 A 
ATOM     11  C   UNL     1      -9.368   2.431  -0.021  0.00  0.00    +0.000 C 
ATOM     12  C   UNL     1      -7.627   3.944  -1.909  0.00  0.00    +0.000 C 
ENDROOT
BRANCH   1  17
ATOM     13  C   UNL     1       2.484  -0.012   0.007  0.00  0.00    +0.000 C 
ATOM     14  C   UNL     1       0.984  -0.005   0.043  0.00  0.00    +0.000 A 
ATOM     15  C   UNL     1       0.258  -1.130  -0.362  0.00  0.00    +0.000 A 
ATOM     16  C   UNL     1      -1.140  -1.110  -0.362  0.00  0.00    +0.000 A 
ATOM     17  C   UNL     1      -1.839   0.041   0.028  0.00  0.00    +0.000 A 
ATOM     18  C   UNL     1      -1.105   1.169   0.423  0.00  0.00    +0.000 A 
ATOM     19  C   UNL     1       0.291   1.149   0.423  0.00  0.00    +0.000 A 
ENDBRANCH   1  17
TORSDOF 1
