REMARK  Name = *****
REMARK  4 active torsions:
REMARK  status: ('A' for Active; 'I' for Inactive)
REMARK    1  A    between atoms: C_1  and  O_2
REMARK    2  A    between atoms: O_2  and  C_3
REMARK    3  A    between atoms: C_8  and  C_9
REMARK    4  A    between atoms: C_9  and  C_10
REMARK                            x       y       z     vdW  Elec       q    Type
REMARK                         _______ _______ _______ _____ _____    ______ ____
ROOT
ATOM      1  C   UNL     1       4.036  -2.120   0.339  0.00  0.00    +0.000 C 
ENDROOT
BRANCH   1   2
ATOM      2  C   UNL     1       2.920  -1.728   1.313  0.00  0.00    +0.000 C 
ATOM      3  C   UNL     1       2.819  -2.721   2.484  0.00  0.00    +0.000 C 
ATOM      4  C   UNL     1       2.477  -1.778   3.572  0.00  0.00    +0.000 A 
ATOM      5  C   UNL     1       2.033  -2.032   4.857  0.00  0.00    +0.000 A 
ATOM      6  C   UNL     1       1.846  -0.945   5.716  0.00  0.00    +0.000 A 
ATOM      7  C   UNL     1       2.118   0.365   5.284  0.00  0.00    +0.000 A 
ATOM      8  C   UNL     1       2.578   0.602   3.987  0.00  0.00    +0.000 A 
ATOM      9  C   UNL     1       2.741  -0.484   3.153  0.00  0.00    +0.000 A 
ATOM     10  O   UNL     1       3.195  -0.405   1.863  0.00  0.00    +0.000 OA
ENDBRANCH   1   2
BRANCH   1  16
ATOM     11  C   UNL     1       3.030  -1.850  -1.987  0.00  0.00    +0.000 A 
ATOM     12  C   UNL     1       2.945  -1.152  -3.196  0.00  0.00    +0.000 A 
ATOM     13  C   UNL     1       3.724  -0.012  -3.413  0.00  0.00    +0.000 A 
ATOM     14  C   UNL     1       4.591   0.441  -2.424  0.00  0.00    +0.000 A 
ATOM     15  C   UNL     1       4.686  -0.248  -1.217  0.00  0.00    +0.000 A 
ATOM     16  C   UNL     1       3.917  -1.401  -0.990  0.00  0.00    +0.000 A 
BRANCH  11  18
ATOM     17  C   UNL     1       1.361  -3.422  -2.642  0.00  0.00    +0.000 C 
ATOM     18  O   UNL     1       2.300  -2.968  -1.676  0.00  0.00    +0.000 OA
ENDBRANCH  11  18
ENDBRANCH   1  16
TORSDOF 3
