REMARK  Name = *****
REMARK  3 active torsions:
REMARK  status: ('A' for Active; 'I' for Inactive)
REMARK    1  A    between atoms: C_4  and  O_7
REMARK    2  A    between atoms: O_7  and  C_8
REMARK    3  A    between atoms: C_8  and  C_10
REMARK                            x       y       z     vdW  Elec       q    Type
REMARK                         _______ _______ _______ _____ _____    ______ ____
ROOT
ATOM      1  C   UNL     1      -5.367  -1.763  -0.315  0.00  0.00    +0.000 A 
ATOM      2  N   UNL     1      -5.985  -2.963  -0.154  0.00  0.00    +0.000 NA
ATOM      3  C   UNL     1      -7.236  -3.098  -0.623  0.00  0.00    +0.000 A 
ATOM      4  C   UNL     1      -7.891  -4.313  -0.471  0.00  0.00    +0.000 A 
ATOM      5  C   UNL     1      -9.194  -4.508  -0.940  0.00  0.00    +0.000 A 
ATOM      6  C   UNL     1      -9.864  -3.470  -1.577  0.00  0.00    +0.000 A 
ATOM      7  C   UNL     1      -9.231  -2.241  -1.743  0.00  0.00    +0.000 A 
ATOM      8  C   UNL     1      -7.921  -2.047  -1.270  0.00  0.00    +0.000 A 
ATOM      9  C   UNL     1      -7.259  -0.823  -1.422  0.00  0.00    +0.000 A 
ATOM     10  C   UNL     1      -5.964  -0.675  -0.939  0.00  0.00    +0.000 A 
ENDROOT
BRANCH   1  11
ATOM     11  C   UNL     1      -3.976  -1.612   0.208  0.00  0.00    +0.000 C 
ATOM     12  O   UNL     1      -3.339  -0.570   0.127  0.00  0.00    +0.000 OA
BRANCH  11  13
ATOM     13  O   UNL     1      -3.568  -2.806   0.776  0.00  0.00    +0.000 OA
BRANCH  13  17
ATOM     14  C   UNL     1       0.252  -2.981   2.450  0.00  0.00    +0.000 A 
ATOM     15  C   UNL     1      -0.880  -3.198   3.239  0.00  0.00    +0.000 A 
ATOM     16  C   UNL     1      -2.151  -3.123   2.670  0.00  0.00    +0.000 A 
ATOM     17  C   UNL     1      -2.277  -2.815   1.317  0.00  0.00    +0.000 A 
ATOM     18  C   UNL     1      -1.153  -2.620   0.515  0.00  0.00    +0.000 A 
ATOM     19  C   UNL     1       0.116  -2.695   1.089  0.00  0.00    +0.000 A 
ENDBRANCH  13  17
ENDBRANCH  11  13
ENDBRANCH   1  11
TORSDOF 3
