REMARK  Name = *****
REMARK  1 active torsions:
REMARK  status: ('A' for Active; 'I' for Inactive)
REMARK    1  A    between atoms: C_2  and  C_13
REMARK                            x       y       z     vdW  Elec       q    Type
REMARK                         _______ _______ _______ _____ _____    ______ ____
ROOT
ATOM      1  C   UNL     1      -2.470   0.810  -0.470  0.00  0.00    +0.000 C 
ATOM      2  C   UNL     1      -2.403  -0.539   0.232  0.00  0.00    +0.000 C 
ATOM      3  O   UNL     1      -1.271  -1.302  -0.220  0.00  0.00    +0.000 OA
ATOM      4  C   UNL     1      -0.084  -0.637  -0.075  0.00  0.00    +0.000 A 
ATOM      5  C   UNL     1       0.018   0.754  -0.013  0.00  0.00    +0.000 A 
ATOM      6  C   UNL     1      -1.209   1.562  -0.158  0.00  0.00    +0.000 C 
ATOM      7  O   UNL     1      -1.169   2.785  -0.085  0.00  0.00    +0.000 OA
ATOM      8  C   UNL     1       1.262   1.372   0.142  0.00  0.00    +0.000 A 
ATOM      9  C   UNL     1       2.406   0.582   0.217  0.00  0.00    +0.000 A 
ATOM     10  C   UNL     1       2.316  -0.809   0.134  0.00  0.00    +0.000 A 
ATOM     11  C   UNL     1       1.068  -1.419  -0.018  0.00  0.00    +0.000 A 
ATOM     12 CL   UNL     1       3.946   1.324   0.404  0.00  0.00    +0.000 Cl
ENDROOT
BRANCH   2  13
ATOM     13  C   UNL     1      -3.670  -1.337  -0.028  0.00  0.00    +0.000 A 
ATOM     14  C   UNL     1      -3.826  -2.102  -1.196  0.00  0.00    +0.000 A 
ATOM     15  C   UNL     1      -5.007  -2.811  -1.431  0.00  0.00    +0.000 A 
ATOM     16  C   UNL     1      -6.044  -2.755  -0.504  0.00  0.00    +0.000 A 
ATOM     17  C   UNL     1      -5.911  -1.996   0.656  0.00  0.00    +0.000 A 
ATOM     18  C   UNL     1      -4.730  -1.288   0.893  0.00  0.00    +0.000 A 
ATOM     19 CL   UNL     1      -7.499  -3.626  -0.794  0.00  0.00    +0.000 Cl
ENDBRANCH   2  13
TORSDOF 1
