REMARK  Name = *****
REMARK  1 active torsions:
REMARK  status: ('A' for Active; 'I' for Inactive)
REMARK    1  A    between atoms: C_2  and  C_10
REMARK                            x       y       z     vdW  Elec       q    Type
REMARK                         _______ _______ _______ _____ _____    ______ ____
ROOT
ATOM      1  C   UNL     1       2.344   0.892  -0.344  0.00  0.00    +0.000 C 
ATOM      2  C   UNL     1       2.473  -0.549   0.213  0.00  0.00    +0.000 C 
ATOM      3  O   UNL     1       1.365  -1.388  -0.184  0.00  0.00    +0.000 OA
ATOM      4  C   UNL     1       0.195  -0.707  -0.157  0.00  0.00    +0.000 A 
ATOM      5  C   UNL     1      -1.022  -1.334  -0.240  0.00  0.00    +0.000 A 
ATOM      6  S   UNL     1      -2.313  -0.203  -0.154  0.00  0.00    +0.000 S 
ATOM      7  C   UNL     1      -1.227   1.122  -0.019  0.00  0.00    +0.000 A 
ATOM      8  C   UNL     1       0.078   0.700  -0.057  0.00  0.00    +0.000 A 
ATOM      9  O   UNL     1       1.121   1.557   0.020  0.00  0.00    +0.000 OA
ENDROOT
BRANCH   2  10
ATOM     10  C   UNL     1       2.728  -0.712   1.707  0.00  0.00    +0.000 A 
ATOM     11  C   UNL     1       2.565   0.326   2.636  0.00  0.00    +0.000 A 
ATOM     12  C   UNL     1       2.818   0.115   3.994  0.00  0.00    +0.000 A 
ATOM     13  C   UNL     1       3.233  -1.136   4.446  0.00  0.00    +0.000 A 
ATOM     14  C   UNL     1       3.393  -2.180   3.540  0.00  0.00    +0.000 A 
ATOM     15  C   UNL     1       3.140  -1.970   2.183  0.00  0.00    +0.000 A 
ENDBRANCH   2  10
TORSDOF 1
