REMARK  Name = *****
REMARK  2 active torsions:
REMARK  status: ('A' for Active; 'I' for Inactive)
REMARK    1  A    between atoms: C_1  and  C_2
REMARK    2  A    between atoms: C_2  and  C_11
REMARK                            x       y       z     vdW  Elec       q    Type
REMARK                         _______ _______ _______ _____ _____    ______ ____
ROOT
ATOM      1  C   UNL     1       1.197  -0.067   0.373  0.00  0.00    +0.000 C 
ATOM      2  C   UNL     1       2.718  -0.053   0.126  0.00  0.00    +0.000 C 
ATOM      3  C   UNL     1       3.405   1.124   0.871  0.00  0.00    +0.000 C 
ATOM      4  C   UNL     1       3.917   0.420   2.069  0.00  0.00    +0.000 A 
ATOM      5  C   UNL     1       4.493   0.937   3.217  0.00  0.00    +0.000 A 
ATOM      6  C   UNL     1       4.953   0.040   4.185  0.00  0.00    +0.000 A 
ATOM      7  C   UNL     1       4.842  -1.346   3.987  0.00  0.00    +0.000 A 
ATOM      8  C   UNL     1       4.268  -1.850   2.818  0.00  0.00    +0.000 A 
ATOM      9  C   UNL     1       3.812  -0.946   1.881  0.00  0.00    +0.000 A 
ATOM     10  O   UNL     1       3.232  -1.301   0.692  0.00  0.00    +0.000 OA
ENDROOT
BRANCH   2  11
ATOM     11  C   UNL     1       2.996   0.013  -1.379  0.00  0.00    +0.000 A 
ATOM     12  C   UNL     1       2.612   1.142  -2.127  0.00  0.00    +0.000 A 
ATOM     13  C   UNL     1       2.866   1.217  -3.499  0.00  0.00    +0.000 A 
ATOM     14  C   UNL     1       3.508   0.166  -4.147  0.00  0.00    +0.000 A 
ATOM     15  C   UNL     1       3.896  -0.959  -3.425  0.00  0.00    +0.000 A 
ATOM     16  C   UNL     1       3.642  -1.035  -2.054  0.00  0.00    +0.000 A 
ENDBRANCH   2  11
TORSDOF 1
