REMARK  Name = *****
REMARK  4 active torsions:
REMARK  status: ('A' for Active; 'I' for Inactive)
REMARK    1  A    between atoms: C_1  and  C_2
REMARK    2  A    between atoms: C_11  and  C_12
REMARK    3  A    between atoms: C_11  and  C_14
REMARK    4  A    between atoms: C_12  and  O_13
REMARK                            x       y       z     vdW  Elec       q    Type
REMARK                         _______ _______ _______ _____ _____    ______ ____
ROOT
ATOM      1  C   UNL     1       0.886   0.310   0.512  0.00  0.00    +0.000 C 
ATOM      2  C   UNL     1       2.228  -0.067  -0.133  0.00  0.00    +0.000 C 
ATOM      3  C   UNL     1       3.144   1.125   0.017  0.00  0.00    +0.000 C 
ATOM      4  C   UNL     1       4.038   1.216   1.008  0.00  0.00    +0.000 C 
ATOM      5  C   UNL     1       4.173   0.133   1.983  0.00  0.00    +0.000 A 
ATOM      6  C   UNL     1       4.888   0.373   3.165  0.00  0.00    +0.000 A 
ATOM      7  C   UNL     1       5.103  -0.651   4.085  0.00  0.00    +0.000 A 
ATOM      8  C   UNL     1       4.625  -1.929   3.822  0.00  0.00    +0.000 A 
ATOM      9  C   UNL     1       3.917  -2.183   2.645  0.00  0.00    +0.000 A 
ATOM     10  C   UNL     1       3.651  -1.154   1.718  0.00  0.00    +0.000 A 
ATOM     11  C   UNL     1       2.896  -1.419   0.382  0.00  0.00    +0.000 C 
ENDROOT
BRANCH  11  12
ATOM     12  C   UNL     1       3.871  -1.933  -0.739  0.00  0.00    +0.000 A 
ATOM     13  C   UNL     1       3.365  -2.335  -1.994  0.00  0.00    +0.000 A 
ATOM     14  C   UNL     1       4.207  -2.800  -3.009  0.00  0.00    +0.000 A 
ATOM     15  C   UNL     1       5.578  -2.872  -2.799  0.00  0.00    +0.000 A 
ATOM     16  C   UNL     1       6.107  -2.474  -1.576  0.00  0.00    +0.000 A 
ATOM     17  C   UNL     1       5.265  -2.009  -0.560  0.00  0.00    +0.000 A 
ENDBRANCH  11  12
BRANCH  11  18
ATOM     18  C   UNL     1       1.804  -2.538   0.574  0.00  0.00    +0.000 C 
BRANCH  18  19
ATOM     19  O   UNL     1       0.884  -2.324   1.647  0.00  0.00    +0.000 OA
ATOM     20  H   UNL     1       1.365  -2.321   2.489  0.00  0.00    +0.000 HD
ENDBRANCH  18  19
ENDBRANCH  11  18
TORSDOF 3
