REMARK  Name = *****
REMARK  2 active torsions:
REMARK  status: ('A' for Active; 'I' for Inactive)
REMARK    1  A    between atoms: C_1  and  C_2
REMARK    2  A    between atoms: C_9  and  C_12
REMARK                            x       y       z     vdW  Elec       q    Type
REMARK                         _______ _______ _______ _____ _____    ______ ____
ROOT
ATOM      1  C   UNL     1       0.954  -0.002  -0.202  0.00  0.00    +0.000 C 
ATOM      2  C   UNL     1       2.444  -0.003  -0.029  0.00  0.00    +0.000 A 
ATOM      3  C   UNL     1       3.160  -1.209  -0.031  0.00  0.00    +0.000 A 
ATOM      4  C   UNL     1       4.555  -1.214   0.099  0.00  0.00    +0.000 A 
ATOM      5  C   UNL     1       5.238  -0.002   0.218  0.00  0.00    +0.000 A 
ATOM      6  C   UNL     1       4.534   1.203   0.209  0.00  0.00    +0.000 A 
ATOM      7  C   UNL     1       3.145   1.204   0.078  0.00  0.00    +0.000 A 
ATOM      8  O   UNL     1       6.593   0.100   0.364  0.00  0.00    +0.000 OA
ATOM      9  C   UNL     1       7.383  -1.102   0.287  0.00  0.00    +0.000 C 
ATOM     10  C   UNL     1       6.624  -2.402   0.204  0.00  0.00    +0.000 C 
ATOM     11  C   UNL     1       5.292  -2.467   0.116  0.00  0.00    +0.000 C 
ENDROOT
BRANCH   9  12
ATOM     12  C   UNL     1       8.350  -1.103   1.460  0.00  0.00    +0.000 A 
ATOM     13  C   UNL     1       7.888  -0.933   2.776  0.00  0.00    +0.000 A 
ATOM     14  C   UNL     1       8.776  -0.955   3.852  0.00  0.00    +0.000 A 
ATOM     15  C   UNL     1      10.137  -1.153   3.628  0.00  0.00    +0.000 A 
ATOM     16  C   UNL     1      10.611  -1.328   2.330  0.00  0.00    +0.000 A 
ATOM     17  C   UNL     1       9.724  -1.306   1.251  0.00  0.00    +0.000 A 
ENDBRANCH   9  12
TORSDOF 1
