REMARK  Name = *****
REMARK  3 active torsions:
REMARK  status: ('A' for Active; 'I' for Inactive)
REMARK    1  A    between atoms: C_1  and  C_2
REMARK    2  A    between atoms: N_12  and  N_13
REMARK    3  A    between atoms: C_14  and  C_15
REMARK                            x       y       z     vdW  Elec       q    Type
REMARK                         _______ _______ _______ _____ _____    ______ ____
ROOT
ATOM      1  C   UNL     1       2.044  -0.451   2.780  0.00  0.00    +0.000 C 
ATOM      2  C   UNL     1       3.031  -0.205   1.666  0.00  0.00    +0.000 A 
ATOM      3  N   UNL     1       3.832   0.810   1.772  0.00  0.00    +0.000 NA
ATOM      4  C   UNL     1       4.765   1.026   0.750  0.00  0.00    +0.000 A 
ATOM      5  C   UNL     1       5.609   2.136   0.836  0.00  0.00    +0.000 A 
ATOM      6  C   UNL     1       6.572   2.379  -0.148  0.00  0.00    +0.000 A 
ATOM      7  C   UNL     1       6.701   1.508  -1.229  0.00  0.00    +0.000 A 
ATOM      8  C   UNL     1       5.865   0.397  -1.328  0.00  0.00    +0.000 A 
ATOM      9  C   UNL     1       4.901   0.165  -0.338  0.00  0.00    +0.000 A 
ATOM     10  C   UNL     1       3.993  -0.994  -0.421  0.00  0.00    +0.000 A 
ATOM     11  O   UNL     1       4.128  -1.798  -1.343  0.00  0.00    +0.000 OA
ATOM     12  N   UNL     1       3.012  -1.058   0.573  0.00  0.00    +0.000 N 
ENDROOT
BRANCH  12  13
ATOM     13  N   UNL     1       2.197  -2.171   0.592  0.00  0.00    +0.000 NA
ATOM     14  C   UNL     1       1.034  -2.089   0.012  0.00  0.00    +0.000 C 
BRANCH  14  15
ATOM     15  C   UNL     1       0.437  -0.942  -0.696  0.00  0.00    +0.000 A 
ATOM     16  C   UNL     1       1.037  -0.462  -1.865  0.00  0.00    +0.000 A 
ATOM     17  C   UNL     1       0.463   0.607  -2.554  0.00  0.00    +0.000 A 
ATOM     18  C   UNL     1      -0.719   1.183  -2.090  0.00  0.00    +0.000 A 
ATOM     19  C   UNL     1      -1.338   0.682  -0.943  0.00  0.00    +0.000 A 
ATOM     20  C   UNL     1      -0.767  -0.389  -0.249  0.00  0.00    +0.000 A 
ATOM     21 CL   UNL     1      -1.588  -0.975   1.153  0.00  0.00    +0.000 Cl
ENDBRANCH  14  15
ENDBRANCH  12  13
TORSDOF 2
