REMARK  Name = *****
REMARK  3 active torsions:
REMARK  status: ('A' for Active; 'I' for Inactive)
REMARK    1  A    between atoms: C_1  and  O_2
REMARK    2  A    between atoms: O_2  and  C_3
REMARK    3  A    between atoms: C_3  and  C_13
REMARK                            x       y       z     vdW  Elec       q    Type
REMARK                         _______ _______ _______ _____ _____    ______ ____
ROOT
ATOM      1  C   UNL     1       2.830   1.521   0.382  0.00  0.00    +0.000 C 
ATOM      2  C   UNL     1       4.148   0.734   0.530  0.00  0.00    +0.000 C 
ATOM      3  C   UNL     1       3.985  -0.365   1.574  0.00  0.00    +0.000 C 
ATOM      4  C   UNL     1       3.334   0.182   2.808  0.00  0.00    +0.000 A 
ATOM      5  C   UNL     1       3.389  -0.535   4.011  0.00  0.00    +0.000 A 
ATOM      6  C   UNL     1       2.786  -0.028   5.163  0.00  0.00    +0.000 A 
ATOM      7  C   UNL     1       2.123   1.197   5.121  0.00  0.00    +0.000 A 
ATOM      8  C   UNL     1       2.055   1.909   3.924  0.00  0.00    +0.000 A 
ATOM      9  C   UNL     1       2.644   1.396   2.768  0.00  0.00    +0.000 A 
ATOM     10  O   UNL     1       2.536   2.168   1.645  0.00  0.00    +0.000 OA
ENDROOT
BRANCH   1  11
ATOM     11  C   UNL     1       2.887   2.688  -0.617  0.00  0.00    +0.000 A 
ATOM     12  C   UNL     1       1.729   3.468  -0.816  0.00  0.00    +0.000 A 
ATOM     13  C   UNL     1       1.718   4.536  -1.715  0.00  0.00    +0.000 A 
ATOM     14  C   UNL     1       2.866   4.849  -2.434  0.00  0.00    +0.000 A 
ATOM     15  C   UNL     1       4.024   4.096  -2.253  0.00  0.00    +0.000 A 
ATOM     16  C   UNL     1       4.036   3.026  -1.353  0.00  0.00    +0.000 A 
ENDBRANCH   1  11
BRANCH   1  18
ATOM     17  C   UNL     1       1.837  -0.034  -1.200  0.00  0.00    +0.000 C 
ATOM     18  O   UNL     1       1.726   0.659   0.033  0.00  0.00    +0.000 OA
ENDBRANCH   1  18
TORSDOF 2
