REMARK  Name = *****
REMARK  4 active torsions:
REMARK  status: ('A' for Active; 'I' for Inactive)
REMARK    1  A    between atoms: C_1  and  O_2
REMARK    2  A    between atoms: O_2  and  C_3
REMARK    3  A    between atoms: C_3  and  C_5
REMARK    4  A    between atoms: C_5  and  C_15
REMARK                            x       y       z     vdW  Elec       q    Type
REMARK                         _______ _______ _______ _____ _____    ______ ____
ROOT
ATOM      1  C   UNL     1       4.429  -0.387  -0.896  0.00  0.00    +0.000 C 
ATOM      2  N   UNL     1       4.703   1.063  -1.129  0.00  0.00    +0.000 NA
ATOM      3  C   UNL     1       5.576   1.592  -0.345  0.00  0.00    +0.000 C 
ATOM      4  C   UNL     1       6.219   0.884   0.751  0.00  0.00    +0.000 A 
ATOM      5  C   UNL     1       7.272   1.456   1.465  0.00  0.00    +0.000 A 
ATOM      6  C   UNL     1       7.817   0.756   2.542  0.00  0.00    +0.000 A 
ATOM      7  C   UNL     1       7.299  -0.491   2.900  0.00  0.00    +0.000 A 
ATOM      8  C   UNL     1       6.238  -1.045   2.179  0.00  0.00    +0.000 A 
ATOM      9  C   UNL     1       5.705  -0.356   1.093  0.00  0.00    +0.000 A 
ATOM     10  O   UNL     1       4.655  -0.919   0.435  0.00  0.00    +0.000 OA
ENDROOT
BRANCH   1  11
ATOM     11  C   UNL     1       5.193  -1.290  -1.893  0.00  0.00    +0.000 A 
ATOM     12  C   UNL     1       5.812  -0.762  -3.040  0.00  0.00    +0.000 A 
ATOM     13  C   UNL     1       6.482  -1.594  -3.941  0.00  0.00    +0.000 A 
ATOM     14  C   UNL     1       6.538  -2.967  -3.717  0.00  0.00    +0.000 A 
ATOM     15  C   UNL     1       5.920  -3.512  -2.595  0.00  0.00    +0.000 A 
ATOM     16  C   UNL     1       5.250  -2.683  -1.693  0.00  0.00    +0.000 A 
ENDBRANCH   1  11
BRANCH   1  17
ATOM     17  C   UNL     1       2.886  -0.578  -1.150  0.00  0.00    +0.000 C 
ATOM     18  O   UNL     1       2.095  -1.102  -0.368  0.00  0.00    +0.000 OA
BRANCH  17  20
ATOM     19  C   UNL     1       1.133  -0.248  -2.680  0.00  0.00    +0.000 C 
ATOM     20  O   UNL     1       2.520  -0.099  -2.384  0.00  0.00    +0.000 OA
ENDBRANCH  17  20
ENDBRANCH   1  17
TORSDOF 3
