REMARK  Name = *****
REMARK  1 active torsions:
REMARK  status: ('A' for Active; 'I' for Inactive)
REMARK    1  A    between atoms: C_10  and  C_11
REMARK                            x       y       z     vdW  Elec       q    Type
REMARK                         _______ _______ _______ _____ _____    ______ ____
ROOT
ATOM      1  C   UNL     1      -2.376  -0.909  -0.312  0.00  0.00    +0.000 C 
ATOM      2  C   UNL     1      -1.094  -1.690  -0.069  0.00  0.00    +0.000 C 
ATOM      3  C   UNL     1       0.094  -0.773  -0.075  0.00  0.00    +0.000 A 
ATOM      4  C   UNL     1       1.386  -1.299  -0.207  0.00  0.00    +0.000 A 
ATOM      5  C   UNL     1       2.496  -0.453  -0.217  0.00  0.00    +0.000 A 
ATOM      6  C   UNL     1       2.325   0.924  -0.092  0.00  0.00    +0.000 A 
ATOM      7  C   UNL     1       1.043   1.454   0.051  0.00  0.00    +0.000 A 
ATOM      8  C   UNL     1      -0.066   0.609   0.076  0.00  0.00    +0.000 A 
ATOM      9  O   UNL     1      -1.283   1.220   0.217  0.00  0.00    +0.000 OA
ATOM     10  C   UNL     1      -2.364   0.341   0.568  0.00  0.00    +0.000 C 
ENDROOT
BRANCH  10  11
ATOM     11  C   UNL     1      -3.678   1.092   0.439  0.00  0.00    +0.000 A 
ATOM     12  C   UNL     1      -3.901   2.001  -0.607  0.00  0.00    +0.000 A 
ATOM     13  C   UNL     1      -5.125   2.662  -0.728  0.00  0.00    +0.000 A 
ATOM     14  C   UNL     1      -6.144   2.418   0.191  0.00  0.00    +0.000 A 
ATOM     15  C   UNL     1      -5.940   1.512   1.230  0.00  0.00    +0.000 A 
ATOM     16  C   UNL     1      -4.716   0.851   1.353  0.00  0.00    +0.000 A 
ENDBRANCH  10  11
TORSDOF 1
