REMARK  Name = *****
REMARK  5 active torsions:
REMARK  status: ('A' for Active; 'I' for Inactive)
REMARK    1  A    between atoms: C_1  and  C_2
REMARK    2  A    between atoms: C_2  and  O_3
REMARK    3  A    between atoms: O_3  and  C_4
REMARK    4  A    between atoms: C_4  and  C_13
REMARK    5  A    between atoms: C_5  and  C_12
REMARK                            x       y       z     vdW  Elec       q    Type
REMARK                         _______ _______ _______ _____ _____    ______ ____
ROOT
ATOM      1  C   UNL     1       4.015   1.191   1.906  0.00  0.00    +0.000 C 
ATOM      2  C   UNL     1       3.763   2.750   2.239  0.00  0.00    +0.000 C 
ATOM      3  C   UNL     1       4.607   3.046   1.025  0.00  0.00    +0.000 A 
ATOM      4  C   UNL     1       5.138   4.063   0.266  0.00  0.00    +0.000 A 
ATOM      5  C   UNL     1       5.881   3.703  -0.862  0.00  0.00    +0.000 A 
ATOM      6  C   UNL     1       6.067   2.348  -1.195  0.00  0.00    +0.000 A 
ATOM      7  C   UNL     1       5.516   1.339  -0.403  0.00  0.00    +0.000 A 
ATOM      8  C   UNL     1       4.792   1.724   0.705  0.00  0.00    +0.000 A 
ATOM      9  C   UNL     1       2.358   3.330   2.133  0.00  0.00    +0.000 C 
ENDROOT
BRANCH   1  10
ATOM     10  C   UNL     1       5.039   0.328   2.833  0.00  0.00    +0.000 A 
ATOM     11  C   UNL     1       5.220  -1.056   2.602  0.00  0.00    +0.000 A 
ATOM     12  C   UNL     1       6.084  -1.843   3.369  0.00  0.00    +0.000 A 
ATOM     13  C   UNL     1       6.812  -1.265   4.401  0.00  0.00    +0.000 A 
ATOM     14  C   UNL     1       6.675   0.094   4.658  0.00  0.00    +0.000 A 
ATOM     15  C   UNL     1       5.805   0.872   3.886  0.00  0.00    +0.000 A 
ENDBRANCH   1  10
BRANCH   1  16
ATOM     16  O   UNL     1       2.831   0.432   1.518  0.00  0.00    +0.000 OA
BRANCH  16  18
ATOM     17  C   UNL     1       1.275  -1.260   2.158  0.00  0.00    +0.000 C 
ATOM     18  C   UNL     1       1.922   0.055   2.547  0.00  0.00    +0.000 C 
ENDBRANCH  16  18
ENDBRANCH   1  16
TORSDOF 3
