REMARK  Name = *****
REMARK  4 active torsions:
REMARK  status: ('A' for Active; 'I' for Inactive)
REMARK    1  A    between atoms: C_1  and  C_2
REMARK    2  A    between atoms: C_5  and  S_8
REMARK    3  A    between atoms: S_8  and  N_11
REMARK    4  A    between atoms: C_12  and  C_14
REMARK                            x       y       z     vdW  Elec       q    Type
REMARK                         _______ _______ _______ _____ _____    ______ ____
ROOT
ATOM      1  S   UNL     1      -3.782   0.489  -0.760  0.00  0.00    +0.000 S 
ATOM      2  O   UNL     1      -3.986   0.086  -2.139  0.00  0.00    +0.000 OA
ATOM      3  O   UNL     1      -4.403  -0.259   0.317  0.00  0.00    +0.000 OA
ENDROOT
BRANCH   1   8
ATOM      4  C   UNL     1       2.199   0.582   0.277  0.00  0.00    +0.000 C 
ATOM      5  C   UNL     1       0.721   0.536   0.019  0.00  0.00    +0.000 A 
ATOM      6  C   UNL     1      -0.182   0.436   1.087  0.00  0.00    +0.000 A 
ATOM      7  C   UNL     1      -1.558   0.424   0.852  0.00  0.00    +0.000 A 
ATOM      8  C   UNL     1      -2.033   0.534  -0.457  0.00  0.00    +0.000 A 
ATOM      9  C   UNL     1      -1.146   0.636  -1.532  0.00  0.00    +0.000 A 
ATOM     10  C   UNL     1       0.229   0.647  -1.289  0.00  0.00    +0.000 A 
ENDBRANCH   1   8
BRANCH   1  11
ATOM     11  N   UNL     1      -4.171   2.150  -0.644  0.00  0.00    +0.000 NA
ATOM     12  C   UNL     1      -5.614   2.393  -0.505  0.00  0.00    +0.000 C 
ATOM     13  O   UNL     1      -4.741   2.355   0.643  0.00  0.00    +0.000 OA
BRANCH  12  14
ATOM     14  C   UNL     1      -6.179   3.726  -0.909  0.00  0.00    +0.000 A 
ATOM     15  C   UNL     1      -6.901   4.520  -0.001  0.00  0.00    +0.000 A 
ATOM     16  C   UNL     1      -7.440   5.752  -0.381  0.00  0.00    +0.000 A 
ATOM     17  C   UNL     1      -7.269   6.215  -1.683  0.00  0.00    +0.000 A 
ATOM     18  C   UNL     1      -6.560   5.447  -2.602  0.00  0.00    +0.000 A 
ATOM     19  C   UNL     1      -6.024   4.216  -2.217  0.00  0.00    +0.000 A 
ENDBRANCH  12  14
ENDBRANCH   1  11
TORSDOF 3
