REMARK  Name = *****
REMARK  3 active torsions:
REMARK  status: ('A' for Active; 'I' for Inactive)
REMARK    1  A    between atoms: C_1  and  O_2
REMARK    2  A    between atoms: O_2  and  C_3
REMARK    3  A    between atoms: C_10  and  C_13
REMARK                            x       y       z     vdW  Elec       q    Type
REMARK                         _______ _______ _______ _____ _____    ______ ____
ROOT
ATOM      1  C   UNL     1       3.152   0.869   0.816  0.00  0.00    +0.000 A 
ATOM      2  C   UNL     1       4.357   1.429   0.376  0.00  0.00    +0.000 A 
ATOM      3  C   UNL     1       5.041   2.355   1.169  0.00  0.00    +0.000 A 
ATOM      4  C   UNL     1       4.510   2.714   2.412  0.00  0.00    +0.000 A 
ATOM      5  C   UNL     1       3.337   2.124   2.877  0.00  0.00    +0.000 A 
ATOM      6  C   UNL     1       2.653   1.206   2.076  0.00  0.00    +0.000 A 
ATOM      7  O   UNL     1       5.103   3.634   3.235  0.00  0.00    +0.000 OA
ATOM      8  C   UNL     1       5.961   4.592   2.580  0.00  0.00    +0.000 C 
ATOM      9  C   UNL     1       6.714   4.039   1.392  0.00  0.00    +0.000 C 
ATOM     10  C   UNL     1       6.291   2.960   0.724  0.00  0.00    +0.000 C 
ENDROOT
BRANCH   8  11
ATOM     11  C   UNL     1       5.149   5.847   2.286  0.00  0.00    +0.000 A 
ATOM     12  C   UNL     1       5.039   6.849   3.264  0.00  0.00    +0.000 A 
ATOM     13  C   UNL     1       4.254   7.983   3.041  0.00  0.00    +0.000 A 
ATOM     14  C   UNL     1       3.561   8.130   1.842  0.00  0.00    +0.000 A 
ATOM     15  C   UNL     1       3.647   7.141   0.866  0.00  0.00    +0.000 A 
ATOM     16  C   UNL     1       4.430   6.007   1.088  0.00  0.00    +0.000 A 
ENDBRANCH   8  11
BRANCH   1  18
ATOM     17  C   UNL     1       1.263  -0.459   0.258  0.00  0.00    +0.000 C 
ATOM     18  O   UNL     1       2.565   0.009  -0.072  0.00  0.00    +0.000 OA
ENDBRANCH   1  18
TORSDOF 2
