REMARK  Name = *****
REMARK  3 active torsions:
REMARK  status: ('A' for Active; 'I' for Inactive)
REMARK    1  A    between atoms: C_1  and  O_2
REMARK    2  A    between atoms: O_2  and  C_3
REMARK    3  A    between atoms: C_10  and  C_13
REMARK                            x       y       z     vdW  Elec       q    Type
REMARK                         _______ _______ _______ _____ _____    ______ ____
ROOT
ATOM      1  C   UNL     1       3.364   0.601   0.944  0.00  0.00    +0.000 A 
ATOM      2  C   UNL     1       4.531   1.239   0.513  0.00  0.00    +0.000 A 
ATOM      3  C   UNL     1       5.270   2.028   1.397  0.00  0.00    +0.000 A 
ATOM      4  C   UNL     1       4.853   2.181   2.717  0.00  0.00    +0.000 A 
ATOM      5  C   UNL     1       3.694   1.539   3.171  0.00  0.00    +0.000 A 
ATOM      6  C   UNL     1       2.943   0.764   2.277  0.00  0.00    +0.000 A 
ATOM      7  O   UNL     1       1.781   0.124   2.641  0.00  0.00    +0.000 OA
ATOM      8  C   UNL     1       1.209   0.456   3.917  0.00  0.00    +0.000 C 
ATOM      9  C   UNL     1       2.293   0.612   4.988  0.00  0.00    +0.000 C 
ATOM     10  C   UNL     1       3.257   1.718   4.595  0.00  0.00    +0.000 C 
ENDROOT
BRANCH   8  11
ATOM     11  C   UNL     1       0.207   1.608   3.849  0.00  0.00    +0.000 A 
ATOM     12  C   UNL     1      -0.067   2.288   2.652  0.00  0.00    +0.000 A 
ATOM     13  C   UNL     1      -0.995   3.332   2.614  0.00  0.00    +0.000 A 
ATOM     14  C   UNL     1      -1.675   3.706   3.769  0.00  0.00    +0.000 A 
ATOM     15  C   UNL     1      -1.433   3.032   4.963  0.00  0.00    +0.000 A 
ATOM     16  C   UNL     1      -0.504   1.988   5.001  0.00  0.00    +0.000 A 
ENDBRANCH   8  11
BRANCH   1  18
ATOM     17  C   UNL     1       2.973  -0.387  -1.195  0.00  0.00    +0.000 C 
ATOM     18  O   UNL     1       2.564  -0.181   0.149  0.00  0.00    +0.000 OA
ENDBRANCH   1  18
TORSDOF 2
