REMARK  Name = *****
REMARK  5 active torsions:
REMARK  status: ('A' for Active; 'I' for Inactive)
REMARK    1  A    between atoms: C_1  and  C_2
REMARK    2  A    between atoms: C_4  and  C_8
REMARK    3  A    between atoms: C_8  and  O_21
REMARK    4  A    between atoms: C_9  and  C_19
REMARK    5  A    between atoms: C_9  and  C_20
REMARK                            x       y       z     vdW  Elec       q    Type
REMARK                         _______ _______ _______ _____ _____    ______ ____
ROOT
ATOM      1  C   UNL     1      -1.799   1.836  -0.457  0.00  0.00    +0.000 C 
ATOM      2  C   UNL     1      -1.294   2.687   0.746  0.00  0.00    +0.000 C 
ATOM      3  C   UNL     1      -1.647   1.944   2.023  0.00  0.00    +0.000 C 
ATOM      4  O   UNL     1      -0.964   1.993   3.042  0.00  0.00    +0.000 OA
ATOM      5  C   UNL     1      -2.914   1.183   2.019  0.00  0.00    +0.000 A 
ATOM      6  C   UNL     1      -3.398   0.603   3.196  0.00  0.00    +0.000 A 
ATOM      7  C   UNL     1      -4.617  -0.076   3.181  0.00  0.00    +0.000 A 
ATOM      8  C   UNL     1      -5.349  -0.169   1.996  0.00  0.00    +0.000 A 
ATOM      9  C   UNL     1      -4.859   0.408   0.822  0.00  0.00    +0.000 A 
ATOM     10  C   UNL     1      -3.633   1.072   0.830  0.00  0.00    +0.000 A 
ATOM     11  O   UNL     1      -3.221   1.606  -0.360  0.00  0.00    +0.000 OA
ATOM     12  C   UNL     1       0.215   2.992   0.670  0.00  0.00    +0.000 C 
ATOM     13  C   UNL     1      -2.020   4.055   0.830  0.00  0.00    +0.000 C 
ENDROOT
BRANCH   1  17
ATOM     14  C   UNL     1       1.021  -2.280   0.706  0.00  0.00    +0.000 C 
ATOM     15  C   UNL     1       0.201  -1.501  -0.281  0.00  0.00    +0.000 A 
ATOM     16  C   UNL     1      -0.348  -0.259   0.084  0.00  0.00    +0.000 A 
ATOM     17  C   UNL     1      -1.140   0.491  -0.805  0.00  0.00    +0.000 A 
ATOM     18  C   UNL     1      -1.391  -0.077  -2.072  0.00  0.00    +0.000 A 
ATOM     19  C   UNL     1      -0.864  -1.317  -2.440  0.00  0.00    +0.000 A 
ATOM     20  C   UNL     1      -0.072  -2.028  -1.545  0.00  0.00    +0.000 A 
ENDBRANCH   1  17
BRANCH   1  21
ATOM     21  O   UNL     1      -1.634   2.649  -1.633  0.00  0.00    +0.000 OA
ATOM     22  H   UNL     1      -0.692   2.845  -1.760  0.00  0.00    +0.000 HD
ENDBRANCH   1  21
TORSDOF 2
