REMARK  Name = *****
REMARK  4 active torsions:
REMARK  status: ('A' for Active; 'I' for Inactive)
REMARK    1  A    between atoms: C_3  and  C_8
REMARK    2  A    between atoms: C_8  and  C_9
REMARK    3  A    between atoms: C_8  and  O_18
REMARK    4  A    between atoms: C_9  and  C_11
REMARK                            x       y       z     vdW  Elec       q    Type
REMARK                         _______ _______ _______ _____ _____    ______ ____
ROOT
ATOM      1  C   UNL     1       2.386   2.639   0.224  0.00  0.00    +0.000 C 
ENDROOT
BRANCH   1   4
ATOM      2  C   UNL     1       1.445  -0.917   1.249  0.00  0.00    +0.000 A 
ATOM      3  C   UNL     1       1.935   0.390   1.294  0.00  0.00    +0.000 A 
ATOM      4  C   UNL     1       1.850   1.226   0.168  0.00  0.00    +0.000 A 
ATOM      5  C   UNL     1       1.231   0.732  -0.993  0.00  0.00    +0.000 A 
ATOM      6  C   UNL     1       0.744  -0.574  -1.031  0.00  0.00    +0.000 A 
ATOM      7  C   UNL     1       0.853  -1.402   0.083  0.00  0.00    +0.000 A 
ATOM      8 CL   UNL     1       0.004  -1.168  -2.466  0.00  0.00    +0.000 Cl
ENDBRANCH   1   4
BRANCH   1   9
ATOM      9  C   UNL     1       3.307   3.003  -0.951  0.00  0.00    +0.000 C 
ATOM     10  O   UNL     1       3.035   3.961  -1.682  0.00  0.00    +0.000 OA
BRANCH   9  11
ATOM     11  C   UNL     1       4.553   2.223  -1.205  0.00  0.00    +0.000 A 
ATOM     12  C   UNL     1       5.155   1.427  -0.225  0.00  0.00    +0.000 A 
ATOM     13  C   UNL     1       6.320   0.720  -0.530  0.00  0.00    +0.000 A 
ATOM     14  C   UNL     1       6.897   0.805  -1.796  0.00  0.00    +0.000 A 
ATOM     15  C   UNL     1       6.308   1.608  -2.771  0.00  0.00    +0.000 A 
ATOM     16  C   UNL     1       5.142   2.316  -2.475  0.00  0.00    +0.000 A 
ATOM     17 CL   UNL     1       7.054  -0.263   0.677  0.00  0.00    +0.000 Cl
ENDBRANCH   9  11
ENDBRANCH   1   9
BRANCH   1  18
ATOM     18  O   UNL     1       1.256   3.511   0.249  0.00  0.00    +0.000 OA
ATOM     19  H   UNL     1       0.734   3.389  -0.560  0.00  0.00    +0.000 HD
ENDBRANCH   1  18
TORSDOF 4
