REMARK  Name = *****
REMARK  4 active torsions:
REMARK  status: ('A' for Active; 'I' for Inactive)
REMARK    1  A    between atoms: C_1  and  C_2
REMARK    2  A    between atoms: C_7  and  C_8
REMARK    3  A    between atoms: C_15  and  C_19
REMARK    4  A    between atoms: C_16  and  C_18
REMARK                            x       y       z     vdW  Elec       q    Type
REMARK                         _______ _______ _______ _____ _____    ______ ____
ROOT
ATOM      1  C   UNL     1       1.086  -2.507  -0.139  0.00  0.00    +0.000 C 
ATOM      2  C   UNL     1       1.160  -3.027  -1.576  0.00  0.00    +0.000 C 
ATOM      3  C   UNL     1       1.784  -4.415  -1.562  0.00  0.00    +0.000 C 
ATOM      4  C   UNL     1       3.000  -4.440  -0.684  0.00  0.00    +0.000 A 
ATOM      5  C   UNL     1       3.230  -3.431   0.252  0.00  0.00    +0.000 A 
ATOM      6  O   UNL     1       2.400  -2.356   0.427  0.00  0.00    +0.000 OA
ATOM      7  C   UNL     1       4.374  -3.457   1.049  0.00  0.00    +0.000 A 
ATOM      8  C   UNL     1       5.299  -4.508   0.949  0.00  0.00    +0.000 A 
ATOM      9  C   UNL     1       5.057  -5.551   0.034  0.00  0.00    +0.000 A 
ATOM     10  C   UNL     1       3.910  -5.502  -0.777  0.00  0.00    +0.000 A 
ATOM     11  C   UNL     1       6.012  -6.704  -0.111  0.00  0.00    +0.000 C 
ATOM     12  C   UNL     1       6.513  -4.503   1.836  0.00  0.00    +0.000 C 
ENDROOT
BRANCH   1  19
ATOM     13  C   UNL     1      -1.864  -2.270   0.468  0.00  0.00    +0.000 C 
ATOM     14  C   UNL     1      -1.019  -1.063   0.165  0.00  0.00    +0.000 A 
ATOM     15  C   UNL     1      -1.629   0.204   0.171  0.00  0.00    +0.000 A 
ATOM     16  C   UNL     1      -0.892   1.357  -0.098  0.00  0.00    +0.000 A 
ATOM     17  C   UNL     1       0.466   1.262  -0.375  0.00  0.00    +0.000 A 
ATOM     18  C   UNL     1       1.088   0.014  -0.378  0.00  0.00    +0.000 A 
ATOM     19  C   UNL     1       0.366  -1.163  -0.100  0.00  0.00    +0.000 A 
ENDBRANCH   1  19
TORSDOF 1
