REMARK  Name = *****
REMARK  2 active torsions:
REMARK  status: ('A' for Active; 'I' for Inactive)
REMARK    1  A    between atoms: C_4  and  C_7
REMARK    2  A    between atoms: N_8  and  N_9
REMARK                            x       y       z     vdW  Elec       q    Type
REMARK                         _______ _______ _______ _____ _____    ______ ____
ROOT
ATOM      1  N   UNL     1      -2.916  -2.607   0.115  0.00  0.00    +0.000 N 
ATOM      2  C   UNL     1      -3.258  -3.716   0.903  0.00  0.00    +0.000 A 
ATOM      3  O   UNL     1      -3.577  -3.741   2.085  0.00  0.00    +0.000 OA
ATOM      4  C   UNL     1      -3.168  -4.952   0.105  0.00  0.00    +0.000 A 
ATOM      5  C   UNL     1      -3.345  -6.243   0.587  0.00  0.00    +0.000 A 
ATOM      6  C   UNL     1      -3.237  -7.303  -0.314  0.00  0.00    +0.000 A 
ATOM      7  C   UNL     1      -2.961  -7.058  -1.668  0.00  0.00    +0.000 A 
ATOM      8  C   UNL     1      -2.791  -5.750  -2.137  0.00  0.00    +0.000 A 
ATOM      9  C   UNL     1      -2.899  -4.702  -1.236  0.00  0.00    +0.000 A 
ATOM     10  S   UNL     1      -2.739  -2.974  -1.565  0.00  0.00    +0.000 S 
ENDROOT
BRANCH   1  12
ATOM     11  C   UNL     1      -2.638  -0.344   0.332  0.00  0.00    +0.000 C 
ATOM     12  N   UNL     1      -3.407  -1.384   0.467  0.00  0.00    +0.000 NA
BRANCH  11  16
ATOM     13  C   UNL     1       1.508  -0.041  -0.606  0.00  0.00    +0.000 A 
ATOM     14  C   UNL     1       0.588   0.850  -1.164  0.00  0.00    +0.000 A 
ATOM     15  C   UNL     1      -0.768   0.738  -0.854  0.00  0.00    +0.000 A 
ATOM     16  C   UNL     1      -1.201  -0.279   0.001  0.00  0.00    +0.000 A 
ATOM     17  C   UNL     1      -0.279  -1.157   0.578  0.00  0.00    +0.000 A 
ATOM     18  C   UNL     1       1.076  -1.040   0.267  0.00  0.00    +0.000 A 
ENDBRANCH  11  16
ENDBRANCH   1  12
TORSDOF 2
