REMARK  Name = *****
REMARK  2 active torsions:
REMARK  status: ('A' for Active; 'I' for Inactive)
REMARK    1  A    between atoms: C_11  and  C_15
REMARK    2  A    between atoms: N_13  and  O_14
REMARK                            x       y       z     vdW  Elec       q    Type
REMARK                         _______ _______ _______ _____ _____    ______ ____
ROOT
ATOM      1  C   UNL     1      -1.173  -1.525   0.497  0.00  0.00    +0.000 C 
ATOM      2  C   UNL     1       0.045  -0.708   0.167  0.00  0.00    +0.000 A 
ATOM      3  C   UNL     1      -0.020   0.683   0.030  0.00  0.00    +0.000 A 
ATOM      4  C   UNL     1       1.150   1.425  -0.189  0.00  0.00    +0.000 A 
ATOM      5  C   UNL     1       2.383   0.783  -0.305  0.00  0.00    +0.000 A 
ATOM      6  C   UNL     1       2.445  -0.602  -0.187  0.00  0.00    +0.000 A 
ATOM      7  C   UNL     1       1.290  -1.347   0.052  0.00  0.00    +0.000 A 
ATOM      8 CL   UNL     1       3.961  -1.403  -0.325  0.00  0.00    +0.000 Cl
ATOM      9 CL   UNL     1       1.105   3.145  -0.339  0.00  0.00    +0.000 Cl
ATOM     10  O   UNL     1      -1.203   1.361   0.153  0.00  0.00    +0.000 OA
ATOM     11  C   UNL     1      -2.351   0.626  -0.277  0.00  0.00    +0.000 C 
ATOM     12  C   UNL     1      -2.457  -0.730   0.423  0.00  0.00    +0.000 C 
ATOM     13  N   UNL     1      -3.606  -1.190   0.832  0.00  0.00    +0.000 NA
ENDROOT
BRANCH  11  14
ATOM     14  C   UNL     1      -3.577   1.510  -0.087  0.00  0.00    +0.000 A 
ATOM     15  C   UNL     1      -4.607   1.498  -1.044  0.00  0.00    +0.000 A 
ATOM     16  C   UNL     1      -5.744   2.290  -0.872  0.00  0.00    +0.000 A 
ATOM     17  C   UNL     1      -5.857   3.092   0.257  0.00  0.00    +0.000 A 
ATOM     18  C   UNL     1      -4.856   3.116   1.220  0.00  0.00    +0.000 A 
ATOM     19  C   UNL     1      -3.719   2.323   1.052  0.00  0.00    +0.000 A 
ATOM     20  F   UNL     1      -6.948   3.851   0.421  0.00  0.00    +0.000 F 
ENDBRANCH  11  14
BRANCH  13  21
ATOM     21  O   UNL     1      -3.485  -2.471   1.380  0.00  0.00    +0.000 OA
ATOM     22  H   UNL     1      -4.242  -2.913   1.711  0.00  0.00    +0.000 HD
ENDBRANCH  13  21
TORSDOF 2
