REMARK  Name = *****
REMARK  2 active torsions:
REMARK  status: ('A' for Active; 'I' for Inactive)
REMARK    1  A    between atoms: C_1  and  C_2
REMARK    2  A    between atoms: C_5  and  C_8
REMARK                            x       y       z     vdW  Elec       q    Type
REMARK                         _______ _______ _______ _____ _____    ______ ____
ROOT
ATOM      1  C   UNL     1      -3.370   0.123   0.213  0.00  0.00    +0.000 C 
ATOM      2  C   UNL     1      -3.854  -0.161   1.628  0.00  0.00    +0.000 C 
ATOM      3  C   UNL     1      -5.356  -0.124   1.625  0.00  0.00    +0.000 C 
ATOM      4  O   UNL     1      -6.035  -0.801   2.389  0.00  0.00    +0.000 OA
ATOM      5  C   UNL     1      -5.984   0.837   0.697  0.00  0.00    +0.000 A 
ATOM      6  C   UNL     1      -7.367   1.039   0.708  0.00  0.00    +0.000 A 
ATOM      7  C   UNL     1      -7.931   1.992  -0.142  0.00  0.00    +0.000 A 
ATOM      8  C   UNL     1      -7.113   2.742  -0.991  0.00  0.00    +0.000 A 
ATOM      9  C   UNL     1      -5.732   2.534  -1.000  0.00  0.00    +0.000 A 
ATOM     10  C   UNL     1      -5.168   1.569  -0.167  0.00  0.00    +0.000 A 
ATOM     11  O   UNL     1      -3.809   1.417  -0.234  0.00  0.00    +0.000 OA
ENDROOT
BRANCH   1  16
ATOM     12  C   UNL     1       2.461  -0.140   0.007  0.00  0.00    +0.000 C 
ATOM     13  C   UNL     1       0.964  -0.078   0.082  0.00  0.00    +0.000 A 
ATOM     14  C   UNL     1       0.186  -1.157  -0.348  0.00  0.00    +0.000 A 
ATOM     15  C   UNL     1      -1.209  -1.087  -0.308  0.00  0.00    +0.000 A 
ATOM     16  C   UNL     1      -1.854   0.072   0.148  0.00  0.00    +0.000 A 
ATOM     17  C   UNL     1      -1.069   1.155   0.569  0.00  0.00    +0.000 A 
ATOM     18  C   UNL     1       0.326   1.083   0.529  0.00  0.00    +0.000 A 
ENDBRANCH   1  16
TORSDOF 1
