REMARK  Name = *****
REMARK  3 active torsions:
REMARK  status: ('A' for Active; 'I' for Inactive)
REMARK    1  A    between atoms: C_1  and  C_2
REMARK    2  A    between atoms: C_4  and  C_12
REMARK    3  A    between atoms: C_4  and  C_13
REMARK                            x       y       z     vdW  Elec       q    Type
REMARK                         _______ _______ _______ _____ _____    ______ ____
ROOT
ATOM      1  C   UNL     1       0.754   0.100  -0.083  0.00  0.00    +0.000 C 
ATOM      2  C   UNL     1       2.249   0.036  -0.020  0.00  0.00    +0.000 C 
ATOM      3  C   UNL     1       2.914  -1.128  -0.005  0.00  0.00    +0.000 C 
ATOM      4  C   UNL     1       4.422  -1.253   0.056  0.00  0.00    +0.000 C 
ATOM      5  O   UNL     1       5.136  -0.014   0.243  0.00  0.00    +0.000 OA
ATOM      6  C   UNL     1       4.451   1.165   0.141  0.00  0.00    +0.000 A 
ATOM      7  C   UNL     1       5.246   2.314   0.196  0.00  0.00    +0.000 A 
ATOM      8  C   UNL     1       4.665   3.577   0.118  0.00  0.00    +0.000 A 
ATOM      9  C   UNL     1       3.285   3.691  -0.011  0.00  0.00    +0.000 A 
ATOM     10  C   UNL     1       2.489   2.542  -0.059  0.00  0.00    +0.000 A 
ATOM     11  C   UNL     1       3.060   1.262   0.017  0.00  0.00    +0.000 A 
ATOM     12  C   UNL     1       4.891  -1.781  -1.314  0.00  0.00    +0.000 C 
ENDROOT
BRANCH   4  13
ATOM     13  C   UNL     1       4.810  -2.154   1.247  0.00  0.00    +0.000 C 
ATOM     14  C   UNL     1       5.388  -3.370   1.137  0.00  0.00    +0.000 C 
ATOM     15  C   UNL     1       5.729  -4.259   2.298  0.00  0.00    +0.000 C 
ATOM     16  C   UNL     1       5.079  -3.823   3.608  0.00  0.00    +0.000 C 
ATOM     17  C   UNL     1       5.177  -2.315   3.780  0.00  0.00    +0.000 C 
ATOM     18  C   UNL     1       4.490  -1.584   2.623  0.00  0.00    +0.000 C 
ENDBRANCH   4  13
TORSDOF 1
