REMARK  Name = *****
REMARK  4 active torsions:
REMARK  status: ('A' for Active; 'I' for Inactive)
REMARK    1  A    between atoms: C_1  and  C_2
REMARK    2  A    between atoms: C_3  and  C_12
REMARK    3  A    between atoms: C_12  and  C_13
REMARK    4  A    between atoms: C_12  and  O_19
REMARK                            x       y       z     vdW  Elec       q    Type
REMARK                         _______ _______ _______ _____ _____    ______ ____
ROOT
ATOM      1  C   UNL     1       5.348   0.618   1.485  0.00  0.00    +0.000 C 
ATOM      2  C   UNL     1       4.131   0.230   0.728  0.00  0.00    +0.000 A 
ATOM      3  C   UNL     1       3.184   1.067   0.157  0.00  0.00    +0.000 A 
ATOM      4  O   UNL     1       2.204   0.332  -0.449  0.00  0.00    +0.000 OA
ATOM      5  C   UNL     1       2.521  -0.979  -0.286  0.00  0.00    +0.000 A 
ATOM      6  C   UNL     1       3.704  -1.102   0.434  0.00  0.00    +0.000 A 
ATOM      7  C   UNL     1       4.192  -2.396   0.702  0.00  0.00    +0.000 A 
ATOM      8  C   UNL     1       3.466  -3.499   0.232  0.00  0.00    +0.000 A 
ATOM      9  C   UNL     1       2.286  -3.317  -0.485  0.00  0.00    +0.000 A 
ATOM     10  C   UNL     1       1.776  -2.052  -0.766  0.00  0.00    +0.000 A 
ATOM     11  F   UNL     1       1.618  -4.395  -0.918  0.00  0.00    +0.000 F 
ENDROOT
BRANCH   3  12
ATOM     12  C   UNL     1       3.023   2.553   0.091  0.00  0.00    +0.000 C 
BRANCH  12  13
ATOM     13  C   UNL     1       3.553   3.208  -1.201  0.00  0.00    +0.000 C 
ATOM     14  C   UNL     1       2.861   2.711  -2.485  0.00  0.00    +0.000 C 
ATOM     15  C   UNL     1       3.387   3.438  -3.723  0.00  0.00    +0.000 C 
ATOM     16  C   UNL     1       4.904   3.329  -3.838  0.00  0.00    +0.000 C 
ATOM     17  C   UNL     1       5.600   3.813  -2.570  0.00  0.00    +0.000 C 
ATOM     18  C   UNL     1       5.081   3.087  -1.331  0.00  0.00    +0.000 C 
ENDBRANCH  12  13
BRANCH  12  19
ATOM     19  O   UNL     1       1.630   2.841   0.239  0.00  0.00    +0.000 OA
ATOM     20  H   UNL     1       1.137   2.443  -0.496  0.00  0.00    +0.000 HD
ENDBRANCH  12  19
ENDBRANCH   3  12
TORSDOF 3
