REMARK  Name = *****
REMARK  6 active torsions:
REMARK  status: ('A' for Active; 'I' for Inactive)
REMARK    1  A    between atoms: C_1  and  C_2
REMARK    2  A    between atoms: C_2  and  C_3
REMARK    3  A    between atoms: C_2  and  S_11
REMARK    4  A    between atoms: C_3  and  C_4
REMARK    5  A    between atoms: C_3  and  O_10
REMARK    6  A    between atoms: S_11  and  C_12
REMARK                            x       y       z     vdW  Elec       q    Type
REMARK                         _______ _______ _______ _____ _____    ______ ____
ROOT
ATOM      1  C   UNL     1       0.677  -0.148  -0.026  0.00  0.00    +0.000 C 
ATOM      2  C   UNL     1       2.187  -0.303  -0.229  0.00  0.00    +0.000 C 
ENDROOT
BRANCH   2   3
ATOM      3  C   UNL     1       2.832  -1.144   0.902  0.00  0.00    +0.000 C 
BRANCH   3   4
ATOM      4  C   UNL     1       4.349  -1.179   0.850  0.00  0.00    +0.000 A 
ATOM      5  C   UNL     1       5.109  -0.029   1.119  0.00  0.00    +0.000 A 
ATOM      6  C   UNL     1       6.503  -0.069   1.067  0.00  0.00    +0.000 A 
ATOM      7  C   UNL     1       7.154  -1.257   0.746  0.00  0.00    +0.000 A 
ATOM      8  C   UNL     1       6.414  -2.406   0.477  0.00  0.00    +0.000 A 
ATOM      9  C   UNL     1       5.019  -2.369   0.529  0.00  0.00    +0.000 A 
ENDBRANCH   3   4
BRANCH   3  10
ATOM     10  O   UNL     1       2.449  -0.620   2.182  0.00  0.00    +0.000 OA
ATOM     11  H   UNL     1       2.789   0.284   2.277  0.00  0.00    +0.000 HD
ENDBRANCH   3  10
ENDBRANCH   2   3
BRANCH   2  12
ATOM     12  S   UNL     1       2.465  -1.099  -1.875  0.00  0.00    +0.000 S 
BRANCH  12  13
ATOM     13  C   UNL     1       2.558   0.350  -2.906  0.00  0.00    +0.000 A 
ATOM     14  C   UNL     1       3.659   1.210  -2.831  0.00  0.00    +0.000 A 
ATOM     15  C   UNL     1       3.727   2.338  -3.653  0.00  0.00    +0.000 A 
ATOM     16  C   UNL     1       2.698   2.600  -4.555  0.00  0.00    +0.000 A 
ATOM     17  C   UNL     1       1.604   1.741  -4.646  0.00  0.00    +0.000 A 
ATOM     18  C   UNL     1       1.537   0.613  -3.824  0.00  0.00    +0.000 A 
ATOM     19 CL   UNL     1       2.780   3.989  -5.566  0.00  0.00    +0.000 Cl
ENDBRANCH  12  13
ENDBRANCH   2  12
TORSDOF 5
