REMARK  Name = *****
REMARK  5 active torsions:
REMARK  status: ('A' for Active; 'I' for Inactive)
REMARK    1  A    between atoms: C_1  and  C_2
REMARK    2  A    between atoms: C_2  and  O_3
REMARK    3  A    between atoms: O_3  and  C_4
REMARK    4  A    between atoms: C_4  and  C_15
REMARK    5  A    between atoms: C_5  and  C_14
REMARK                            x       y       z     vdW  Elec       q    Type
REMARK                         _______ _______ _______ _____ _____    ______ ____
ROOT
ATOM      1  C   UNL     1       4.572   0.735   1.050  0.00  0.00    +0.000 C 
ATOM      2  C   UNL     1       5.017  -0.347   2.083  0.00  0.00    +0.000 C 
ATOM      3  O   UNL     1       6.444  -0.467   2.198  0.00  0.00    +0.000 OA
ATOM      4  C   UNL     1       7.045   0.762   2.259  0.00  0.00    +0.000 A 
ATOM      5  C   UNL     1       8.369   0.784   2.693  0.00  0.00    +0.000 A 
ATOM      6  C   UNL     1       9.051   1.997   2.793  0.00  0.00    +0.000 A 
ATOM      7  C   UNL     1       8.408   3.188   2.453  0.00  0.00    +0.000 A 
ATOM      8  C   UNL     1       7.087   3.165   2.006  0.00  0.00    +0.000 A 
ATOM      9  C   UNL     1       6.408   1.951   1.895  0.00  0.00    +0.000 A 
ATOM     10  O   UNL     1       5.125   2.018   1.422  0.00  0.00    +0.000 OA
ATOM     11  C   UNL     1       4.427  -1.736   1.839  0.00  0.00    +0.000 C 
ENDROOT
BRANCH   1  12
ATOM     12  C   UNL     1       4.930   0.529  -0.435  0.00  0.00    +0.000 A 
ATOM     13  C   UNL     1       4.276   1.315  -1.409  0.00  0.00    +0.000 A 
ATOM     14  C   UNL     1       4.576   1.197  -2.768  0.00  0.00    +0.000 A 
ATOM     15  C   UNL     1       5.548   0.296  -3.188  0.00  0.00    +0.000 A 
ATOM     16  C   UNL     1       6.221  -0.478  -2.249  0.00  0.00    +0.000 A 
ATOM     17  C   UNL     1       5.920  -0.359  -0.887  0.00  0.00    +0.000 A 
ENDBRANCH   1  12
BRANCH   1  18
ATOM     18  O   UNL     1       3.119   0.785   1.066  0.00  0.00    +0.000 OA
BRANCH  18  20
ATOM     19  C   UNL     1       1.045   1.408   2.051  0.00  0.00    +0.000 C 
ATOM     20  C   UNL     1       2.553   1.564   2.115  0.00  0.00    +0.000 C 
ENDBRANCH  18  20
ENDBRANCH   1  18
TORSDOF 3
