REMARK  Name = *****
REMARK  2 active torsions:
REMARK  status: ('A' for Active; 'I' for Inactive)
REMARK    1  A    between atoms: C_1  and  C_2
REMARK    2  A    between atoms: C_5  and  C_8
REMARK                            x       y       z     vdW  Elec       q    Type
REMARK                         _______ _______ _______ _____ _____    ______ ____
ROOT
ATOM      1  C   UNL     1      -3.657   0.010   0.524  0.00  0.00    +0.000 C 
ATOM      2  C   UNL     1      -4.333  -0.289   1.855  0.00  0.00    +0.000 C 
ATOM      3  C   UNL     1      -5.817  -0.150   1.667  0.00  0.00    +0.000 C 
ATOM      4  O   UNL     1      -6.630  -0.805   2.310  0.00  0.00    +0.000 OA
ATOM      5  C   UNL     1      -6.264   0.884   0.713  0.00  0.00    +0.000 A 
ATOM      6  C   UNL     1      -5.301   1.588  -0.012  0.00  0.00    +0.000 A 
ATOM      7  O   UNL     1      -3.957   1.345   0.081  0.00  0.00    +0.000 OA
ATOM      8  C   UNL     1      -5.692   2.620  -0.864  0.00  0.00    +0.000 A 
ATOM      9  C   UNL     1      -7.048   2.922  -1.012  0.00  0.00    +0.000 A 
ATOM     10  C   UNL     1      -8.006   2.198  -0.300  0.00  0.00    +0.000 A 
ATOM     11  C   UNL     1      -7.622   1.178   0.568  0.00  0.00    +0.000 A 
ATOM     12 CL   UNL     1      -9.673   2.577  -0.489  0.00  0.00    +0.000 Cl
ENDROOT
BRANCH   1  17
ATOM     13  C   UNL     1       2.117  -0.656   1.084  0.00  0.00    +0.000 C 
ATOM     14  C   UNL     1       0.640  -0.470   0.909  0.00  0.00    +0.000 A 
ATOM     15  C   UNL     1      -0.152  -1.503   0.398  0.00  0.00    +0.000 A 
ATOM     16  C   UNL     1      -1.534  -1.339   0.265  0.00  0.00    +0.000 A 
ATOM     17  C   UNL     1      -2.152  -0.140   0.647  0.00  0.00    +0.000 A 
ATOM     18  C   UNL     1      -1.356   0.885   1.179  0.00  0.00    +0.000 A 
ATOM     19  C   UNL     1       0.025   0.720   1.311  0.00  0.00    +0.000 A 
ENDBRANCH   1  17
TORSDOF 1
