REMARK  Name = *****
REMARK  4 active torsions:
REMARK  status: ('A' for Active; 'I' for Inactive)
REMARK    1  A    between atoms: C_1  and  C_2
REMARK    2  A    between atoms: C_2  and  C_12
REMARK    3  A    between atoms: C_14  and  O_18
REMARK    4  A    between atoms: O_18  and  C_19
REMARK                            x       y       z     vdW  Elec       q    Type
REMARK                         _______ _______ _______ _____ _____    ______ ____
ROOT
ATOM      1  C   UNL     1       1.025   0.037   0.229  0.00  0.00    +0.000 C 
ATOM      2  C   UNL     1       2.536  -0.019  -0.065  0.00  0.00    +0.000 C 
ATOM      3  C   UNL     1       3.147  -1.189   0.736  0.00  0.00    +0.000 C 
ATOM      4  C   UNL     1       4.662  -1.202   0.591  0.00  0.00    +0.000 C 
ATOM      5  C   UNL     1       5.210   0.172   0.832  0.00  0.00    +0.000 A 
ATOM      6  C   UNL     1       6.569   0.345   1.127  0.00  0.00    +0.000 A 
ATOM      7  C   UNL     1       7.085   1.621   1.358  0.00  0.00    +0.000 A 
ATOM      8  C   UNL     1       6.248   2.733   1.293  0.00  0.00    +0.000 A 
ATOM      9  C   UNL     1       4.898   2.568   0.986  0.00  0.00    +0.000 A 
ATOM     10  C   UNL     1       4.383   1.294   0.742  0.00  0.00    +0.000 A 
ATOM     11  O   UNL     1       3.051   1.239   0.432  0.00  0.00    +0.000 OA
ENDROOT
BRANCH   2  12
ATOM     12  C   UNL     1       2.707  -0.146  -1.591  0.00  0.00    +0.000 A 
ATOM     13  C   UNL     1       3.109   0.955  -2.375  0.00  0.00    +0.000 A 
ATOM     14  C   UNL     1       3.261   0.845  -3.760  0.00  0.00    +0.000 A 
ATOM     15  C   UNL     1       2.990  -0.373  -4.383  0.00  0.00    +0.000 A 
ATOM     16  C   UNL     1       2.573  -1.470  -3.634  0.00  0.00    +0.000 A 
ATOM     17  C   UNL     1       2.430  -1.357  -2.251  0.00  0.00    +0.000 A 
BRANCH  14  18
ATOM     18  O   UNL     1       3.655   1.845  -4.608  0.00  0.00    +0.000 OA
ATOM     19  C   UNL     1       4.024   3.082  -4.012  0.00  0.00    +0.000 C 
ENDBRANCH  14  18
ENDBRANCH   2  12
TORSDOF 2
