REMARK  Name = *****
REMARK  1 active torsions:
REMARK  status: ('A' for Active; 'I' for Inactive)
REMARK    1  A    between atoms: C_2  and  C_12
REMARK                            x       y       z     vdW  Elec       q    Type
REMARK                         _______ _______ _______ _____ _____    ______ ____
ROOT
ATOM      1  C   UNL     1      -2.195   0.219  -0.265  0.00  0.00    +0.000 C 
ATOM      2  C   UNL     1      -1.650   1.373   0.573  0.00  0.00    +0.000 C 
ATOM      3  O   UNL     1      -0.314   1.760   0.195  0.00  0.00    +0.000 OA
ATOM      4  C   UNL     1       0.555   0.755  -0.129  0.00  0.00    +0.000 A 
ATOM      5  C   UNL     1       1.896   1.120  -0.246  0.00  0.00    +0.000 A 
ATOM      6  C   UNL     1       2.866   0.152  -0.518  0.00  0.00    +0.000 A 
ATOM      7  C   UNL     1       2.497  -1.184  -0.675  0.00  0.00    +0.000 A 
ATOM      8  C   UNL     1       1.155  -1.552  -0.572  0.00  0.00    +0.000 A 
ATOM      9  C   UNL     1       0.190  -0.576  -0.307  0.00  0.00    +0.000 A 
ATOM     10  C   UNL     1      -1.235  -0.932  -0.248  0.00  0.00    +0.000 C 
ATOM     11  O   UNL     1      -1.601  -2.102  -0.280  0.00  0.00    +0.000 OA
ENDROOT
BRANCH   2  12
ATOM     12  C   UNL     1      -1.827   1.191   2.082  0.00  0.00    +0.000 A 
ATOM     13  C   UNL     1      -3.086   1.360   2.698  0.00  0.00    +0.000 A 
ATOM     14  C   UNL     1      -3.246   1.173   4.078  0.00  0.00    +0.000 A 
ATOM     15  C   UNL     1      -2.158   0.819   4.872  0.00  0.00    +0.000 A 
ATOM     16  C   UNL     1      -0.909   0.658   4.285  0.00  0.00    +0.000 A 
ATOM     17  C   UNL     1      -0.742   0.841   2.910  0.00  0.00    +0.000 A 
ATOM     18 CL   UNL     1       0.442   0.231   5.260  0.00  0.00    +0.000 Cl
ATOM     19 CL   UNL     1      -4.496   1.822   1.809  0.00  0.00    +0.000 Cl
ENDBRANCH   2  12
TORSDOF 1
