REMARK  Name = *****
REMARK  4 active torsions:
REMARK  status: ('A' for Active; 'I' for Inactive)
REMARK    1  A    between atoms: C_1  and  C_2
REMARK    2  A    between atoms: C_5  and  O_8
REMARK    3  A    between atoms: O_8  and  C_9
REMARK    4  A    between atoms: C_9  and  C_11
REMARK                            x       y       z     vdW  Elec       q    Type
REMARK                         _______ _______ _______ _____ _____    ______ ____
ROOT
ATOM      1  C   UNL     1      -3.887   1.441  -0.192  0.00  0.00    +0.000 C 
ATOM      2  O   UNL     1      -3.325   2.502  -0.431  0.00  0.00    +0.000 OA
ENDROOT
BRANCH   1   3
ATOM      3  C   UNL     1      -5.372   1.294  -0.144  0.00  0.00    +0.000 A 
ATOM      4  N   UNL     1      -5.886   0.062   0.112  0.00  0.00    +0.000 NA
ATOM      5  C   UNL     1      -7.222  -0.070   0.153  0.00  0.00    +0.000 A 
ATOM      6  C   UNL     1      -7.774  -1.318   0.411  0.00  0.00    +0.000 A 
ATOM      7  C   UNL     1      -9.157  -1.512   0.465  0.00  0.00    +0.000 A 
ATOM      8  C   UNL     1     -10.016  -0.439   0.258  0.00  0.00    +0.000 A 
ATOM      9  C   UNL     1      -9.490   0.825  -0.002  0.00  0.00    +0.000 A 
ATOM     10  C   UNL     1      -8.098   1.017  -0.056  0.00  0.00    +0.000 A 
ATOM     11  C   UNL     1      -7.540   2.274  -0.317  0.00  0.00    +0.000 A 
ATOM     12  C   UNL     1      -6.157   2.419  -0.362  0.00  0.00    +0.000 A 
ENDBRANCH   1   3
BRANCH   1  13
ATOM     13  O   UNL     1      -3.297   0.215   0.064  0.00  0.00    +0.000 OA
BRANCH  13  18
ATOM     14  C   UNL     1       2.378  -0.165   0.040  0.00  0.00    +0.000 C 
ATOM     15  C   UNL     1       0.884  -0.027   0.029  0.00  0.00    +0.000 A 
ATOM     16  C   UNL     1       0.247   0.837   0.931  0.00  0.00    +0.000 A 
ATOM     17  C   UNL     1      -1.145   0.944   0.946  0.00  0.00    +0.000 A 
ATOM     18  C   UNL     1      -1.897   0.188   0.049  0.00  0.00    +0.000 A 
ATOM     19  C   UNL     1      -1.284  -0.703  -0.828  0.00  0.00    +0.000 A 
ATOM     20  C   UNL     1       0.107  -0.808  -0.838  0.00  0.00    +0.000 A 
ENDBRANCH  13  18
ENDBRANCH   1  13
TORSDOF 3
