REMARK  Name = *****
REMARK  1 active torsions:
REMARK  status: ('A' for Active; 'I' for Inactive)
REMARK    1  A    between atoms: C_2  and  C_11
REMARK                            x       y       z     vdW  Elec       q    Type
REMARK                         _______ _______ _______ _____ _____    ______ ____
ROOT
ATOM      1  C   UNL     1      -1.063  -1.471  -0.181  0.00  0.00    +0.000 C 
ATOM      2  C   UNL     1      -2.214  -0.542  -0.578  0.00  0.00    +0.000 C 
ATOM      3  C   UNL     1      -2.121   0.766   0.211  0.00  0.00    +0.000 C 
ATOM      4  O   UNL     1      -0.872   1.450   0.074  0.00  0.00    +0.000 OA
ATOM      5  C   UNL     1       0.235   0.661   0.221  0.00  0.00    +0.000 A 
ATOM      6  C   UNL     1       1.436   1.331   0.456  0.00  0.00    +0.000 A 
ATOM      7  C   UNL     1       2.624   0.615   0.596  0.00  0.00    +0.000 A 
ATOM      8  C   UNL     1       2.612  -0.774   0.493  0.00  0.00    +0.000 A 
ATOM      9  C   UNL     1       1.414  -1.445   0.242  0.00  0.00    +0.000 A 
ATOM     10  C   UNL     1       0.217  -0.731   0.092  0.00  0.00    +0.000 A 
ENDROOT
BRANCH   2  11
ATOM     11  C   UNL     1      -2.291  -0.306  -2.076  0.00  0.00    +0.000 A 
ATOM     12  C   UNL     1      -1.332   0.181  -2.945  0.00  0.00    +0.000 A 
ATOM     13  C   UNL     1      -1.795   0.256  -4.290  0.00  0.00    +0.000 A 
ATOM     14  C   UNL     1      -3.096  -0.175  -4.411  0.00  0.00    +0.000 A 
ATOM     15  S   UNL     1      -3.750  -0.666  -2.912  0.00  0.00    +0.000 S 
ENDBRANCH   2  11
TORSDOF 1
