REMARK  Name = *****
REMARK  3 active torsions:
REMARK  status: ('A' for Active; 'I' for Inactive)
REMARK    1  A    between atoms: C_1  and  C_2
REMARK    2  A    between atoms: C_4  and  C_20
REMARK    3  A    between atoms: C_9  and  C_13
REMARK                            x       y       z     vdW  Elec       q    Type
REMARK                         _______ _______ _______ _____ _____    ______ ____
ROOT
ATOM      1  C   UNL     1       1.037   0.250   0.180  0.00  0.00    +0.000 C 
ATOM      2  C   UNL     1       2.531   0.163   0.076  0.00  0.00    +0.000 A 
ATOM      3  C   UNL     1       3.179  -1.077   0.155  0.00  0.00    +0.000 A 
ATOM      4  C   UNL     1       4.581  -1.180   0.082  0.00  0.00    +0.000 A 
ATOM      5  C   UNL     1       5.340  -0.001  -0.055  0.00  0.00    +0.000 A 
ATOM      6  C   UNL     1       6.823   0.001  -0.201  0.00  0.00    +0.000 C 
ATOM      7  O   UNL     1       7.494  -1.023  -0.137  0.00  0.00    +0.000 OA
ATOM      8  C   UNL     1       7.467   1.325  -0.500  0.00  0.00    +0.000 C 
ATOM      9  C   UNL     1       6.700   2.396   0.253  0.00  0.00    +0.000 C 
ATOM     10  O   UNL     1       5.342   2.446  -0.203  0.00  0.00    +0.000 OA
ATOM     11  C   UNL     1       4.693   1.243  -0.092  0.00  0.00    +0.000 A 
ATOM     12  C   UNL     1       3.300   1.322  -0.039  0.00  0.00    +0.000 A 
ATOM     13  C   UNL     1       5.199  -2.550   0.144  0.00  0.00    +0.000 C 
ENDROOT
BRANCH   9  14
ATOM     14  C   UNL     1       7.338   3.759   0.045  0.00  0.00    +0.000 A 
ATOM     15  C   UNL     1       7.090   4.512  -1.115  0.00  0.00    +0.000 A 
ATOM     16  C   UNL     1       7.703   5.753  -1.302  0.00  0.00    +0.000 A 
ATOM     17  C   UNL     1       8.572   6.249  -0.334  0.00  0.00    +0.000 A 
ATOM     18  C   UNL     1       8.835   5.514   0.819  0.00  0.00    +0.000 A 
ATOM     19  C   UNL     1       8.223   4.272   1.007  0.00  0.00    +0.000 A 
ATOM     20 CL   UNL     1       9.327   7.778  -0.564  0.00  0.00    +0.000 Cl
ENDBRANCH   9  14
TORSDOF 1
