REMARK  Name = *****
REMARK  1 active torsions:
REMARK  status: ('A' for Active; 'I' for Inactive)
REMARK    1  A    between atoms: C_2  and  C_13
REMARK                            x       y       z     vdW  Elec       q    Type
REMARK                         _______ _______ _______ _____ _____    ______ ____
ROOT
ATOM      1  C   UNL     1      -2.476   0.805  -0.470  0.00  0.00    +0.000 C 
ATOM      2  C   UNL     1      -2.407  -0.543   0.236  0.00  0.00    +0.000 C 
ATOM      3  O   UNL     1      -1.274  -1.305  -0.216  0.00  0.00    +0.000 OA
ATOM      4  C   UNL     1      -0.087  -0.638  -0.073  0.00  0.00    +0.000 A 
ATOM      5  C   UNL     1       0.012   0.754  -0.014  0.00  0.00    +0.000 A 
ATOM      6  C   UNL     1      -1.215   1.560  -0.160  0.00  0.00    +0.000 C 
ATOM      7  O   UNL     1      -1.177   2.783  -0.090  0.00  0.00    +0.000 OA
ATOM      8  C   UNL     1       1.254   1.373   0.138  0.00  0.00    +0.000 A 
ATOM      9  C   UNL     1       2.393   0.580   0.214  0.00  0.00    +0.000 A 
ATOM     10  C   UNL     1       2.312  -0.808   0.134  0.00  0.00    +0.000 A 
ATOM     11  C   UNL     1       1.066  -1.420  -0.015  0.00  0.00    +0.000 A 
ATOM     12  F   UNL     1       3.591   1.161   0.356  0.00  0.00    +0.000 F 
ENDROOT
BRANCH   2  13
ATOM     13  C   UNL     1      -3.673  -1.343  -0.021  0.00  0.00    +0.000 A 
ATOM     14  C   UNL     1      -3.828  -2.111  -1.188  0.00  0.00    +0.000 A 
ATOM     15  C   UNL     1      -5.008  -2.820  -1.419  0.00  0.00    +0.000 A 
ATOM     16  C   UNL     1      -6.038  -2.759  -0.489  0.00  0.00    +0.000 A 
ATOM     17  C   UNL     1      -5.912  -2.000   0.668  0.00  0.00    +0.000 A 
ATOM     18  C   UNL     1      -4.732  -1.290   0.902  0.00  0.00    +0.000 A 
ATOM     19  F   UNL     1      -7.171  -3.438  -0.712  0.00  0.00    +0.000 F 
ENDBRANCH   2  13
TORSDOF 1
