REMARK  Name = *****
REMARK  3 active torsions:
REMARK  status: ('A' for Active; 'I' for Inactive)
REMARK    1  A    between atoms: C_1  and  C_2
REMARK    2  A    between atoms: C_9  and  C_13
REMARK    3  A    between atoms: C_9  and  C_19
REMARK                            x       y       z     vdW  Elec       q    Type
REMARK                         _______ _______ _______ _____ _____    ______ ____
ROOT
ATOM      1  C   UNL     1       0.973   0.034   0.278  0.00  0.00    +0.000 C 
ATOM      2  C   UNL     1       2.464   0.072   0.115  0.00  0.00    +0.000 A 
ATOM      3  C   UNL     1       3.160   1.283   0.218  0.00  0.00    +0.000 A 
ATOM      4  C   UNL     1       4.554   1.307   0.095  0.00  0.00    +0.000 A 
ATOM      5  C   UNL     1       5.257   0.133  -0.122  0.00  0.00    +0.000 A 
ATOM      6  C   UNL     1       4.579  -1.082  -0.191  0.00  0.00    +0.000 A 
ATOM      7  C   UNL     1       3.188  -1.113  -0.074  0.00  0.00    +0.000 A 
ATOM      8  O   UNL     1       6.611   0.098  -0.257  0.00  0.00    +0.000 OA
ATOM      9  C   UNL     1       7.186   1.368  -0.643  0.00  0.00    +0.000 C 
ATOM     10  O   UNL     1       6.624   2.489   0.081  0.00  0.00    +0.000 OA
ATOM     11  C   UNL     1       5.292   2.565   0.265  0.00  0.00    +0.000 C 
ATOM     12  O   UNL     1       4.738   3.604   0.595  0.00  0.00    +0.000 OA
ENDROOT
BRANCH   9  13
ATOM     13  C   UNL     1       7.045   1.589  -2.163  0.00  0.00    +0.000 A 
ATOM     14  C   UNL     1       6.946   2.885  -2.703  0.00  0.00    +0.000 A 
ATOM     15  C   UNL     1       6.829   3.080  -4.081  0.00  0.00    +0.000 A 
ATOM     16  C   UNL     1       6.819   1.987  -4.943  0.00  0.00    +0.000 A 
ATOM     17  C   UNL     1       6.931   0.697  -4.430  0.00  0.00    +0.000 A 
ATOM     18  C   UNL     1       7.047   0.499  -3.053  0.00  0.00    +0.000 A 
ENDBRANCH   9  13
BRANCH   9  19
ATOM     19  C   UNL     1       8.703   1.308  -0.284  0.00  0.00    +0.000 C 
ATOM     20  F   UNL     1       8.886   1.126   1.051  0.00  0.00    +0.000 F 
ATOM     21  F   UNL     1       9.338   0.282  -0.905  0.00  0.00    +0.000 F 
ATOM     22  F   UNL     1       9.361   2.446  -0.616  0.00  0.00    +0.000 F 
ENDBRANCH   9  19
TORSDOF 2
