REMARK  Name = *****
REMARK  3 active torsions:
REMARK  status: ('A' for Active; 'I' for Inactive)
REMARK    1  A    between atoms: C_6  and  C_13
REMARK    2  A    between atoms: C_6  and  O_19
REMARK    3  A    between atoms: N_8  and  O_9
REMARK                            x       y       z     vdW  Elec       q    Type
REMARK                         _______ _______ _______ _____ _____    ______ ____
ROOT
ATOM      1  C   UNL     1      -2.493   0.561   0.632  0.00  0.00    +0.000 C 
ATOM      2  C   UNL     1      -2.498  -0.765  -0.119  0.00  0.00    +0.000 C 
ATOM      3  C   UNL     1      -1.179  -1.510   0.061  0.00  0.00    +0.000 C 
ATOM      4  C   UNL     1       0.026  -0.649  -0.353  0.00  0.00    +0.000 C 
ATOM      5  C   UNL     1       1.333  -1.392  -0.056  0.00  0.00    +0.000 C 
ATOM      6  C   UNL     1       2.618  -0.620  -0.447  0.00  0.00    +0.000 C 
ATOM      7  C   UNL     1       2.545   0.890  -0.064  0.00  0.00    +0.000 C 
ATOM      8  N   UNL     1       3.533   1.727   0.101  0.00  0.00    +0.000 NA
ATOM      9  C   UNL     1       1.175   1.564  -0.099  0.00  0.00    +0.000 C 
ATOM     10  C   UNL     1       0.030   0.691   0.396  0.00  0.00    +0.000 C 
ATOM     11  C   UNL     1      -1.307   1.429   0.223  0.00  0.00    +0.000 C 
ENDROOT
BRANCH   6  12
ATOM     12  C   UNL     1       3.781  -1.398   0.190  0.00  0.00    +0.000 A 
ATOM     13  C   UNL     1       4.620  -2.223  -0.580  0.00  0.00    +0.000 A 
ATOM     14  C   UNL     1       5.652  -2.954   0.013  0.00  0.00    +0.000 A 
ATOM     15  C   UNL     1       5.862  -2.879   1.387  0.00  0.00    +0.000 A 
ATOM     16  C   UNL     1       5.041  -2.073   2.171  0.00  0.00    +0.000 A 
ATOM     17  C   UNL     1       4.009  -1.341   1.579  0.00  0.00    +0.000 A 
ENDBRANCH   6  12
BRANCH   8  18
ATOM     18  O   UNL     1       4.780   1.145  -0.099  0.00  0.00    +0.000 OA
ATOM     19  H   UNL     1       5.558   1.660  -0.006  0.00  0.00    +0.000 HD
ENDBRANCH   8  18
BRANCH   6  20
ATOM     20  O   UNL     1       2.724  -0.673  -1.880  0.00  0.00    +0.000 OA
ATOM     21  H   UNL     1       1.988  -0.181  -2.277  0.00  0.00    +0.000 HD
ENDBRANCH   6  20
TORSDOF 3
