REMARK  Name = *****
REMARK  3 active torsions:
REMARK  status: ('A' for Active; 'I' for Inactive)
REMARK    1  A    between atoms: C_4  and  C_6
REMARK    2  A    between atoms: C_6  and  C_7
REMARK    3  A    between atoms: C_6  and  O_17
REMARK                            x       y       z     vdW  Elec       q    Type
REMARK                         _______ _______ _______ _____ _____    ______ ____
ROOT
ATOM      1  C   UNL     1      -2.638   1.857   1.480  0.00  0.00    +0.000 A 
ATOM      2  C   UNL     1      -2.176   1.912   2.811  0.00  0.00    +0.000 A 
ATOM      3  C   UNL     1      -3.052   1.785   3.884  0.00  0.00    +0.000 A 
ATOM      4  C   UNL     1      -4.409   1.596   3.650  0.00  0.00    +0.000 A 
ATOM      5  C   UNL     1      -4.911   1.527   2.344  0.00  0.00    +0.000 A 
ATOM      6  C   UNL     1      -6.287   1.331   2.138  0.00  0.00    +0.000 A 
ATOM      7  C   UNL     1      -6.819   1.252   0.853  0.00  0.00    +0.000 A 
ATOM      8  C   UNL     1      -5.979   1.367  -0.244  0.00  0.00    +0.000 A 
ATOM      9  C   UNL     1      -4.608   1.564  -0.056  0.00  0.00    +0.000 A 
ATOM     10  C   UNL     1      -4.033   1.654   1.235  0.00  0.00    +0.000 A 
ENDROOT
BRANCH   1  11
ATOM     11  C   UNL     1      -1.639   1.987   0.334  0.00  0.00    +0.000 C 
BRANCH  11  15
ATOM     12  C   UNL     1      -0.591  -0.705  -2.134  0.00  0.00    +0.000 C 
ATOM     13  C   UNL     1      -0.892  -1.560  -0.907  0.00  0.00    +0.000 C 
ATOM     14  C   UNL     1      -1.462  -0.569   0.052  0.00  0.00    +0.000 C 
ATOM     15  C   UNL     1      -1.249   0.697  -0.337  0.00  0.00    +0.000 C 
ATOM     16  C   UNL     1      -0.498   0.736  -1.637  0.00  0.00    +0.000 C 
ENDBRANCH  11  15
BRANCH  11  17
ATOM     17  O   UNL     1      -0.441   2.638   0.769  0.00  0.00    +0.000 OA
ATOM     18  H   UNL     1       0.008   2.083   1.427  0.00  0.00    +0.000 HD
ENDBRANCH  11  17
ENDBRANCH   1  11
TORSDOF 3
