REMARK  Name = *****
REMARK  3 active torsions:
REMARK  status: ('A' for Active; 'I' for Inactive)
REMARK    1  A    between atoms: C_8  and  S_10
REMARK    2  A    between atoms: S_10  and  C_11
REMARK    3  A    between atoms: C_11  and  C_12
REMARK                            x       y       z     vdW  Elec       q    Type
REMARK                         _______ _______ _______ _____ _____    ______ ____
ROOT
ATOM      1  C   UNL     1       2.156  -0.382   0.098  0.00  0.00    +0.000 A 
ATOM      2  C   UNL     1       1.909   0.957  -0.218  0.00  0.00    +0.000 A 
ATOM      3  C   UNL     1       0.604   1.430  -0.395  0.00  0.00    +0.000 A 
ATOM      4  C   UNL     1      -0.419   0.498  -0.240  0.00  0.00    +0.000 A 
ATOM      5  C   UNL     1      -0.215  -0.839   0.074  0.00  0.00    +0.000 A 
ATOM      6  C   UNL     1       1.103  -1.296   0.248  0.00  0.00    +0.000 A 
ATOM      7  C   UNL     1      -1.509  -1.418   0.136  0.00  0.00    +0.000 A 
ATOM      8  C   UNL     1      -2.417  -0.415  -0.143  0.00  0.00    +0.000 A 
ATOM      9  O   UNL     1      -1.749   0.754  -0.371  0.00  0.00    +0.000 OA
ENDROOT
BRANCH   8  10
ATOM     10  S   UNL     1      -4.154  -0.543  -0.209  0.00  0.00    +0.000 S 
BRANCH  10  11
ATOM     11  C   UNL     1      -4.587   1.121  -0.803  0.00  0.00    +0.000 C 
BRANCH  11  12
ATOM     12  C   UNL     1      -6.073   1.260  -0.947  0.00  0.00    +0.000 A 
ATOM     13  C   UNL     1      -6.999   1.598   0.022  0.00  0.00    +0.000 A 
ATOM     14  C   UNL     1      -8.329   1.640  -0.488  0.00  0.00    +0.000 A 
ATOM     15  C   UNL     1      -8.375   1.337  -1.830  0.00  0.00    +0.000 A 
ATOM     16  S   UNL     1      -6.823   1.008  -2.468  0.00  0.00    +0.000 S 
ENDBRANCH  11  12
ENDBRANCH  10  11
ENDBRANCH   8  10
TORSDOF 3
