REMARK  Name = *****
REMARK  5 active torsions:
REMARK  status: ('A' for Active; 'I' for Inactive)
REMARK    1  A    between atoms: C_1  and  C_2
REMARK    2  A    between atoms: C_2  and  C_19
REMARK    3  A    between atoms: C_6  and  C_18
REMARK    4  A    between atoms: C_8  and  C_11
REMARK    5  A    between atoms: C_8  and  O_17
REMARK                            x       y       z     vdW  Elec       q    Type
REMARK                         _______ _______ _______ _____ _____    ______ ____
ROOT
ATOM      1  C   UNL     1       0.469   0.254   0.585  0.00  0.00    +0.000 C 
ATOM      2  C   UNL     1       1.958   0.379   0.128  0.00  0.00    +0.000 C 
ATOM      3  C   UNL     1       2.826   1.253   1.096  0.00  0.00    +0.000 C 
ATOM      4  C   UNL     1       2.918   0.015   2.033  0.00  0.00    +0.000 C 
ATOM      5  C   UNL     1       2.771  -0.828   0.722  0.00  0.00    +0.000 C 
ATOM      6  C   UNL     1       4.165  -1.030   0.101  0.00  0.00    +0.000 C 
ATOM      7  C   UNL     1       4.358  -1.048  -1.415  0.00  0.00    +0.000 C 
ATOM      8  C   UNL     1       5.480   0.056  -1.265  0.00  0.00    +0.000 C 
ATOM      9  C   UNL     1       4.870   0.360   0.186  0.00  0.00    +0.000 C 
ATOM     10  C   UNL     1       4.160   1.680   0.505  0.00  0.00    +0.000 C 
ATOM     11  C   UNL     1       4.885  -2.196   0.790  0.00  0.00    +0.000 C 
ATOM     12  C   UNL     1       1.870   0.858  -1.320  0.00  0.00    +0.000 C 
ENDROOT
BRANCH   8  13
ATOM     13  C   UNL     1       5.531   1.245  -2.347  0.00  0.00    +0.000 A 
ATOM     14  C   UNL     1       6.248   2.432  -2.081  0.00  0.00    +0.000 A 
ATOM     15  C   UNL     1       6.341   3.474  -3.007  0.00  0.00    +0.000 A 
ATOM     16  C   UNL     1       5.726   3.355  -4.247  0.00  0.00    +0.000 A 
ATOM     17  C   UNL     1       5.030   2.193  -4.560  0.00  0.00    +0.000 A 
ATOM     18  C   UNL     1       4.944   1.154  -3.627  0.00  0.00    +0.000 A 
ENDBRANCH   8  13
BRANCH   8  19
ATOM     19  O   UNL     1       6.811  -0.532  -1.175  0.00  0.00    +0.000 OA
ATOM     20  H   UNL     1       6.803  -1.254  -0.527  0.00  0.00    +0.000 HD
ENDBRANCH   8  19
TORSDOF 2
