REMARK  Name = *****
REMARK  6 active torsions:
REMARK  status: ('A' for Active; 'I' for Inactive)
REMARK    1  A    between atoms: C_1  and  C_2
REMARK    2  A    between atoms: C_5  and  C_8
REMARK    3  A    between atoms: C_8  and  O_21
REMARK    4  A    between atoms: C_10  and  O_19
REMARK    5  A    between atoms: O_19  and  C_20
REMARK    6  A    between atoms: O_21  and  C_22
REMARK                            x       y       z     vdW  Elec       q    Type
REMARK                         _______ _______ _______ _____ _____    ______ ____
ROOT
ATOM      1  C   UNL     1      -2.671  -1.436  -0.981  0.00  0.00    +0.000 C 
ATOM      2  C   UNL     1      -1.701  -2.602  -0.707  0.00  0.00    +0.000 C 
ATOM      3  C   UNL     1      -1.249  -2.653   0.745  0.00  0.00    +0.000 C 
ATOM      4  C   UNL     1      -2.458  -2.561   1.634  0.00  0.00    +0.000 A 
ATOM      5  C   UNL     1      -3.632  -1.964   1.172  0.00  0.00    +0.000 A 
ATOM      6  O   UNL     1      -3.792  -1.445  -0.078  0.00  0.00    +0.000 OA
ATOM      7  C   UNL     1      -4.759  -1.887   1.997  0.00  0.00    +0.000 A 
ATOM      8  C   UNL     1      -4.724  -2.407   3.290  0.00  0.00    +0.000 A 
ATOM      9  C   UNL     1      -3.561  -3.011   3.753  0.00  0.00    +0.000 A 
ATOM     10  C   UNL     1      -2.435  -3.093   2.934  0.00  0.00    +0.000 A 
ATOM     11 CL   UNL     1      -3.510  -3.667   5.343  0.00  0.00    +0.000 Cl
ENDROOT
BRANCH   1  16
ATOM     12  C   UNL     1       0.030   3.772  -1.249  0.00  0.00    +0.000 C 
ATOM     13  C   UNL     1      -0.640   2.434  -1.160  0.00  0.00    +0.000 A 
ATOM     14  C   UNL     1      -0.366   1.437  -2.099  0.00  0.00    +0.000 A 
ATOM     15  C   UNL     1      -1.015   0.201  -2.030  0.00  0.00    +0.000 A 
ATOM     16  C   UNL     1      -1.966  -0.070  -1.027  0.00  0.00    +0.000 A 
ATOM     17  C   UNL     1      -2.247   0.948  -0.102  0.00  0.00    +0.000 A 
ATOM     18  C   UNL     1      -1.595   2.184  -0.169  0.00  0.00    +0.000 A 
ENDBRANCH   1  16
BRANCH   3  19
ATOM     19  O   UNL     1      -0.342  -1.579   0.984  0.00  0.00    +0.000 OA
ATOM     20  C   UNL     1       0.605  -1.820   2.012  0.00  0.00    +0.000 C 
ENDBRANCH   3  19
BRANCH   1  21
ATOM     21  O   UNL     1      -3.160  -1.721  -2.324  0.00  0.00    +0.000 OA
ATOM     22  C   UNL     1      -4.284  -0.942  -2.715  0.00  0.00    +0.000 C 
ENDBRANCH   1  21
TORSDOF 3
