REMARK  Name = *****
REMARK  5 active torsions:
REMARK  status: ('A' for Active; 'I' for Inactive)
REMARK    1  A    between atoms: C_1  and  C_2
REMARK    2  A    between atoms: C_4  and  C_8
REMARK    3  A    between atoms: C_8  and  O_19
REMARK    4  A    between atoms: C_12  and  C_18
REMARK    5  A    between atoms: C_14  and  C_17
REMARK                            x       y       z     vdW  Elec       q    Type
REMARK                         _______ _______ _______ _____ _____    ______ ____
ROOT
ATOM      1  C   UNL     1      -2.369   2.294   0.129  0.00  0.00    +0.000 C 
ATOM      2  C   UNL     1      -3.915   2.224  -0.049  0.00  0.00    +0.000 C 
ATOM      3  C   UNL     1      -4.307   1.088   0.845  0.00  0.00    +0.000 A 
ATOM      4  C   UNL     1      -5.523   0.423   0.874  0.00  0.00    +0.000 A 
ATOM      5  C   UNL     1      -5.706  -0.603   1.808  0.00  0.00    +0.000 A 
ATOM      6  C   UNL     1      -4.657  -0.943   2.686  0.00  0.00    +0.000 A 
ATOM      7  C   UNL     1      -3.434  -0.254   2.670  0.00  0.00    +0.000 A 
ATOM      8  C   UNL     1      -3.276   0.757   1.728  0.00  0.00    +0.000 A 
ATOM      9  C   UNL     1      -2.082   1.644   1.512  0.00  0.00    +0.000 C 
ATOM     10  C   UNL     1      -2.331  -0.627   3.612  0.00  0.00    +0.000 C 
ATOM     11  C   UNL     1      -6.992  -1.376   1.837  0.00  0.00    +0.000 C 
ENDROOT
BRANCH   1  15
ATOM     12  C   UNL     1      -1.780  -1.245  -3.488  0.00  0.00    +0.000 C 
ATOM     13  C   UNL     1      -1.230  -0.099  -2.690  0.00  0.00    +0.000 A 
ATOM     14  C   UNL     1      -2.018   0.522  -1.708  0.00  0.00    +0.000 A 
ATOM     15  C   UNL     1      -1.541   1.620  -0.970  0.00  0.00    +0.000 A 
ATOM     16  C   UNL     1      -0.230   2.061  -1.227  0.00  0.00    +0.000 A 
ATOM     17  C   UNL     1       0.555   1.460  -2.213  0.00  0.00    +0.000 A 
ATOM     18  C   UNL     1       0.052   0.391  -2.949  0.00  0.00    +0.000 A 
ENDBRANCH   1  15
BRANCH   1  19
ATOM     19  O   UNL     1      -2.020   3.689   0.188  0.00  0.00    +0.000 OA
ATOM     20  H   UNL     1      -2.196   4.103  -0.671  0.00  0.00    +0.000 HD
ENDBRANCH   1  19
TORSDOF 2
