REMARK  Name = *****
REMARK  1 active torsions:
REMARK  status: ('A' for Active; 'I' for Inactive)
REMARK    1  A    between atoms: C_2  and  C_11
REMARK                            x       y       z     vdW  Elec       q    Type
REMARK                         _______ _______ _______ _____ _____    ______ ____
ROOT
ATOM      1  C   UNL     1      -0.970  -1.505  -0.208  0.00  0.00    +0.000 C 
ATOM      2  C   UNL     1      -2.185  -0.648  -0.577  0.00  0.00    +0.000 C 
ATOM      3  C   UNL     1      -2.234   0.571   0.355  0.00  0.00    +0.000 C 
ATOM      4  O   UNL     1      -1.049   1.372   0.377  0.00  0.00    +0.000 OA
ATOM      5  C   UNL     1       0.134   0.689   0.362  0.00  0.00    +0.000 A 
ATOM      6  C   UNL     1       1.276   1.450   0.621  0.00  0.00    +0.000 A 
ATOM      7  C   UNL     1       2.536   0.852   0.614  0.00  0.00    +0.000 A 
ATOM      8  C   UNL     1       2.655  -0.509   0.344  0.00  0.00    +0.000 A 
ATOM      9  C   UNL     1       1.516  -1.269   0.075  0.00  0.00    +0.000 A 
ATOM     10  C   UNL     1       0.247  -0.671   0.069  0.00  0.00    +0.000 A 
ENDROOT
BRANCH   2  11
ATOM     11  C   UNL     1      -2.256  -0.365  -2.074  0.00  0.00    +0.000 A 
ATOM     12  C   UNL     1      -2.753  -1.369  -2.926  0.00  0.00    +0.000 A 
ATOM     13  C   UNL     1      -2.834  -1.171  -4.306  0.00  0.00    +0.000 A 
ATOM     14  C   UNL     1      -2.417   0.034  -4.861  0.00  0.00    +0.000 A 
ATOM     15  C   UNL     1      -1.919   1.038  -4.035  0.00  0.00    +0.000 A 
ATOM     16  C   UNL     1      -1.837   0.841  -2.654  0.00  0.00    +0.000 A 
ENDBRANCH   2  11
TORSDOF 1
