REMARK  Name = *****
REMARK  2 active torsions:
REMARK  status: ('A' for Active; 'I' for Inactive)
REMARK    1  A    between atoms: C_1  and  C_2
REMARK    2  A    between atoms: C_10  and  C_12
REMARK                            x       y       z     vdW  Elec       q    Type
REMARK                         _______ _______ _______ _____ _____    ______ ____
ROOT
ATOM      1  C   UNL     1       1.150   0.033   0.047  0.00  0.00    +0.000 C 
ATOM      2  C   UNL     1       2.650   0.024   0.041  0.00  0.00    +0.000 A 
ATOM      3  C   UNL     1       3.377   1.222   0.004  0.00  0.00    +0.000 A 
ATOM      4  C   UNL     1       4.772   1.198   0.007  0.00  0.00    +0.000 A 
ATOM      5  C   UNL     1       5.453  -0.022   0.018  0.00  0.00    +0.000 A 
ATOM      6  C   UNL     1       4.739  -1.217   0.073  0.00  0.00    +0.000 A 
ATOM      7  C   UNL     1       3.342  -1.194   0.084  0.00  0.00    +0.000 A 
ATOM      8  O   UNL     1       6.820  -0.123  -0.015  0.00  0.00    +0.000 OA
ATOM      9  C   UNL     1       7.421   1.112  -0.427  0.00  0.00    +0.000 C 
ATOM     10  C   UNL     1       6.800   2.293   0.322  0.00  0.00    +0.000 C 
ATOM     11  O   UNL     1       5.406   2.414  -0.011  0.00  0.00    +0.000 OA
ENDROOT
BRANCH  10  12
ATOM     12  C   UNL     1       7.519   3.586  -0.013  0.00  0.00    +0.000 A 
ATOM     13  C   UNL     1       7.168   4.351  -1.136  0.00  0.00    +0.000 A 
ATOM     14  C   UNL     1       7.863   5.522  -1.446  0.00  0.00    +0.000 A 
ATOM     15  C   UNL     1       8.922   5.938  -0.642  0.00  0.00    +0.000 A 
ATOM     16  C   UNL     1       9.287   5.186   0.473  0.00  0.00    +0.000 A 
ATOM     17  C   UNL     1       8.592   4.016   0.785  0.00  0.00    +0.000 A 
ENDBRANCH  10  12
TORSDOF 1
