REMARK  Name = *****
REMARK  4 active torsions:
REMARK  status: ('A' for Active; 'I' for Inactive)
REMARK    1  A    between atoms: C_1  and  C_2
REMARK    2  A    between atoms: C_2  and  C_21
REMARK    3  A    between atoms: C_12  and  C_13
REMARK    4  A    between atoms: C_12  and  O_20
REMARK                            x       y       z     vdW  Elec       q    Type
REMARK                         _______ _______ _______ _____ _____    ______ ____
ROOT
ATOM      1  C   UNL     1       1.042   0.180  -0.023  0.00  0.00    +0.000 C 
ATOM      2  C   UNL     1       2.578   0.088  -0.098  0.00  0.00    +0.000 C 
ATOM      3  C   UNL     1       3.228   1.441   0.130  0.00  0.00    +0.000 C 
ATOM      4  O   UNL     1       2.649   2.507  -0.060  0.00  0.00    +0.000 OA
ATOM      5  C   UNL     1       4.645   1.435   0.551  0.00  0.00    +0.000 A 
ATOM      6  C   UNL     1       5.370   2.628   0.623  0.00  0.00    +0.000 A 
ATOM      7  C   UNL     1       6.717   2.596   0.984  0.00  0.00    +0.000 A 
ATOM      8  C   UNL     1       7.335   1.377   1.265  0.00  0.00    +0.000 A 
ATOM      9  C   UNL     1       6.606   0.188   1.195  0.00  0.00    +0.000 A 
ATOM     10  C   UNL     1       5.255   0.219   0.853  0.00  0.00    +0.000 A 
ATOM     11  O   UNL     1       4.609  -0.987   0.813  0.00  0.00    +0.000 OA
ATOM     12  C   UNL     1       3.175  -0.908   0.941  0.00  0.00    +0.000 C 
ATOM     13  C   UNL     1       2.928  -0.318  -1.553  0.00  0.00    +0.000 C 
ENDROOT
BRANCH  12  14
ATOM     14  C   UNL     1       2.859  -0.765   2.441  0.00  0.00    +0.000 A 
ATOM     15  C   UNL     1       2.377   0.410   3.044  0.00  0.00    +0.000 A 
ATOM     16  C   UNL     1       2.151   0.481   4.425  0.00  0.00    +0.000 A 
ATOM     17  C   UNL     1       2.413  -0.621   5.232  0.00  0.00    +0.000 A 
ATOM     18  C   UNL     1       2.903  -1.794   4.674  0.00  0.00    +0.000 A 
ATOM     19  C   UNL     1       3.127  -1.860   3.295  0.00  0.00    +0.000 A 
ATOM     20 BR   UNL     1       2.109  -0.518   7.094  0.00  0.00    +0.000 Br
ENDBRANCH  12  14
BRANCH  12  21
ATOM     21  O   UNL     1       2.693  -2.215   0.584  0.00  0.00    +0.000 OA
ATOM     22  H   UNL     1       2.861  -2.376  -0.357  0.00  0.00    +0.000 HD
ENDBRANCH  12  21
TORSDOF 2
