REMARK  Name = *****
REMARK  2 active torsions:
REMARK  status: ('A' for Active; 'I' for Inactive)
REMARK    1  A    between atoms: C_1  and  C_2
REMARK    2  A    between atoms: C_11  and  C_12
REMARK                            x       y       z     vdW  Elec       q    Type
REMARK                         _______ _______ _______ _____ _____    ______ ____
ROOT
ATOM      1  C   UNL     1       0.883   0.178  -0.035  0.00  0.00    +0.000 C 
ATOM      2  C   UNL     1       2.384   0.187   0.038  0.00  0.00    +0.000 C 
ATOM      3  C   UNL     1       3.079   1.332  -0.022  0.00  0.00    +0.000 C 
ATOM      4  C   UNL     1       4.531   1.266   0.025  0.00  0.00    +0.000 A 
ATOM      5  C   UNL     1       5.298   2.437   0.027  0.00  0.00    +0.000 A 
ATOM      6  C   UNL     1       6.693   2.366   0.059  0.00  0.00    +0.000 A 
ATOM      7  C   UNL     1       7.327   1.126   0.086  0.00  0.00    +0.000 A 
ATOM      8  C   UNL     1       6.565  -0.043   0.081  0.00  0.00    +0.000 A 
ATOM      9  C   UNL     1       5.171   0.027   0.054  0.00  0.00    +0.000 A 
ATOM     10  O   UNL     1       4.513  -1.169   0.051  0.00  0.00    +0.000 OA
ATOM     11  C   UNL     1       3.075  -1.164   0.149  0.00  0.00    +0.000 C 
ENDROOT
BRANCH  11  12
ATOM     12  C   UNL     1       2.700  -1.915   1.420  0.00  0.00    +0.000 A 
ATOM     13  C   UNL     1       3.124  -1.458   2.680  0.00  0.00    +0.000 A 
ATOM     14  C   UNL     1       2.768  -2.144   3.842  0.00  0.00    +0.000 A 
ATOM     15  C   UNL     1       1.983  -3.292   3.762  0.00  0.00    +0.000 A 
ATOM     16  C   UNL     1       1.556  -3.758   2.520  0.00  0.00    +0.000 A 
ATOM     17  C   UNL     1       1.912  -3.075   1.356  0.00  0.00    +0.000 A 
ENDBRANCH  11  12
TORSDOF 1
