REMARK  Name = *****
REMARK  2 active torsions:
REMARK  status: ('A' for Active; 'I' for Inactive)
REMARK    1  A    between atoms: C_2  and  C_12
REMARK    2  A    between atoms: C_12  and  C_13
REMARK                            x       y       z     vdW  Elec       q    Type
REMARK                         _______ _______ _______ _____ _____    ______ ____
ROOT
ATOM      1  C   UNL     1      -1.530  -1.053  -0.742  0.00  0.00    +0.000 C 
ATOM      2  C   UNL     1      -0.416  -1.664   0.109  0.00  0.00    +0.000 C 
ATOM      3  C   UNL     1       0.743  -0.695   0.164  0.00  0.00    +0.000 A 
ATOM      4  C   UNL     1       2.067  -1.077   0.416  0.00  0.00    +0.000 A 
ATOM      5  C   UNL     1       3.090  -0.123   0.479  0.00  0.00    +0.000 A 
ATOM      6  C   UNL     1       2.801   1.231   0.325  0.00  0.00    +0.000 A 
ATOM      7  C   UNL     1       1.486   1.636   0.126  0.00  0.00    +0.000 A 
ATOM      8  C   UNL     1       0.477   0.675   0.058  0.00  0.00    +0.000 A 
ATOM      9  O   UNL     1      -0.838   1.171  -0.039  0.00  0.00    +0.000 OA
ATOM     10  C   UNL     1      -1.905   0.314  -0.252  0.00  0.00    +0.000 C 
ATOM     11  O   UNL     1      -3.068   0.688  -0.146  0.00  0.00    +0.000 OA
ENDROOT
BRANCH   2  12
ATOM     12  C   UNL     1      -0.118  -3.121  -0.333  0.00  0.00    +0.000 C 
BRANCH  12  13
ATOM     13  C   UNL     1       0.110  -3.348  -1.812  0.00  0.00    +0.000 A 
ATOM     14  C   UNL     1       1.355  -3.106  -2.405  0.00  0.00    +0.000 A 
ATOM     15  C   UNL     1       1.544  -3.310  -3.774  0.00  0.00    +0.000 A 
ATOM     16  C   UNL     1       0.491  -3.760  -4.567  0.00  0.00    +0.000 A 
ATOM     17  C   UNL     1      -0.751  -4.011  -3.990  0.00  0.00    +0.000 A 
ATOM     18  C   UNL     1      -0.940  -3.809  -2.622  0.00  0.00    +0.000 A 
ENDBRANCH  12  13
ENDBRANCH   2  12
TORSDOF 2
