REMARK  Name = *****
REMARK  6 active torsions:
REMARK  status: ('A' for Active; 'I' for Inactive)
REMARK    1  A    between atoms: C_1  and  C_2
REMARK    2  A    between atoms: C_2  and  C_3
REMARK    3  A    between atoms: C_4  and  C_20
REMARK    4  A    between atoms: C_5  and  C_13
REMARK    5  A    between atoms: C_5  and  O_19
REMARK    6  A    between atoms: C_20  and  C_22
REMARK                            x       y       z     vdW  Elec       q    Type
REMARK                         _______ _______ _______ _____ _____    ______ ____
ROOT
ATOM      1  C   UNL     1       2.901  -0.566   1.285  0.00  0.00    +0.000 C 
ATOM      2  C   UNL     1       2.768  -1.896   1.541  0.00  0.00    +0.000 C 
ATOM      3  C   UNL     1       3.286  -2.558   2.835  0.00  0.00    +0.000 C 
ATOM      4  C   UNL     1       3.489  -1.547   3.988  0.00  0.00    +0.000 C 
ATOM      5  C   UNL     1       3.903  -0.165   3.563  0.00  0.00    +0.000 A 
ATOM      6  C   UNL     1       4.547   0.658   4.506  0.00  0.00    +0.000 A 
ATOM      7  C   UNL     1       4.899   1.964   4.184  0.00  0.00    +0.000 A 
ATOM      8  C   UNL     1       4.596   2.459   2.925  0.00  0.00    +0.000 A 
ATOM      9  C   UNL     1       3.945   1.648   1.989  0.00  0.00    +0.000 A 
ATOM     10  C   UNL     1       3.586   0.319   2.281  0.00  0.00    +0.000 A 
ENDROOT
BRANCH   3  11
ATOM     11  C   UNL     1       4.576  -3.364   2.589  0.00  0.00    +0.000 A 
ATOM     12  C   UNL     1       5.759  -2.727   2.167  0.00  0.00    +0.000 A 
ATOM     13  C   UNL     1       6.931  -3.454   1.941  0.00  0.00    +0.000 A 
ATOM     14  C   UNL     1       6.946  -4.832   2.130  0.00  0.00    +0.000 A 
ATOM     15  C   UNL     1       5.788  -5.485   2.542  0.00  0.00    +0.000 A 
ATOM     16  C   UNL     1       4.615  -4.758   2.768  0.00  0.00    +0.000 A 
ENDBRANCH   3  11
BRANCH   2  17
ATOM     17  C   UNL     1       2.154  -2.806   0.558  0.00  0.00    +0.000 C 
ATOM     18  C   UNL     1       2.888  -3.371  -0.414  0.00  0.00    +0.000 C 
ATOM     19  C   UNL     1       0.671  -3.038   0.657  0.00  0.00    +0.000 C 
ENDBRANCH   2  17
BRANCH   1  21
ATOM     20  C   UNL     1       3.432   0.194  -1.091  0.00  0.00    +0.000 C 
ATOM     21  C   UNL     1       2.378   0.078   0.006  0.00  0.00    +0.000 C 
ENDBRANCH   1  21
BRANCH   3  22
ATOM     22  O   UNL     1       2.262  -3.452   3.327  0.00  0.00    +0.000 OA
ATOM     23  H   UNL     1       1.445  -2.953   3.485  0.00  0.00    +0.000 HD
ENDBRANCH   3  22
TORSDOF 4
