REMARK  Name = *****
REMARK  2 active torsions:
REMARK  status: ('A' for Active; 'I' for Inactive)
REMARK    1  A    between atoms: C_1  and  C_2
REMARK    2  A    between atoms: C_9  and  C_13
REMARK                            x       y       z     vdW  Elec       q    Type
REMARK                         _______ _______ _______ _____ _____    ______ ____
ROOT
ATOM      1  C   UNL     1       0.990   0.153   0.182  0.00  0.00    +0.000 C 
ATOM      2  C   UNL     1       2.493  -0.102   0.045  0.00  0.00    +0.000 C 
ATOM      3  C   UNL     1       2.939  -0.089  -1.423  0.00  0.00    +0.000 C 
ATOM      4  C   UNL     1       2.505  -1.335  -2.198  0.00  0.00    +0.000 C 
ATOM      5  C   UNL     1       2.968  -2.624  -1.502  0.00  0.00    +0.000 C 
ATOM      6  C   UNL     1       2.466  -2.660  -0.039  0.00  0.00    +0.000 C 
ATOM      7  C   UNL     1       2.911  -1.410   0.726  0.00  0.00    +0.000 C 
ATOM      8  O   UNL     1       2.998  -3.800   0.656  0.00  0.00    +0.000 OA
ATOM      9  C   UNL     1       2.549  -5.036   0.067  0.00  0.00    +0.000 C 
ATOM     10  C   UNL     1       3.025  -5.143  -1.394  0.00  0.00    +0.000 C 
ATOM     11  C   UNL     1       2.577  -3.929  -2.185  0.00  0.00    +0.000 C 
ATOM     12  C   UNL     1       1.908  -4.052  -3.343  0.00  0.00    +0.000 C 
ENDROOT
BRANCH   9  13
ATOM     13  C   UNL     1       3.065  -6.204   0.887  0.00  0.00    +0.000 A 
ATOM     14  C   UNL     1       2.300  -7.376   0.995  0.00  0.00    +0.000 A 
ATOM     15  C   UNL     1       2.774  -8.471   1.721  0.00  0.00    +0.000 A 
ATOM     16  C   UNL     1       4.019  -8.409   2.344  0.00  0.00    +0.000 A 
ATOM     17  C   UNL     1       4.791  -7.255   2.242  0.00  0.00    +0.000 A 
ATOM     18  C   UNL     1       4.319  -6.160   1.515  0.00  0.00    +0.000 A 
ENDBRANCH   9  13
TORSDOF 1
