REMARK  Name = *****
REMARK  2 active torsions:
REMARK  status: ('A' for Active; 'I' for Inactive)
REMARK    1  A    between atoms: C_1  and  C_2
REMARK    2  A    between atoms: C_4  and  C_8
REMARK                            x       y       z     vdW  Elec       q    Type
REMARK                         _______ _______ _______ _____ _____    ______ ____
ROOT
ATOM      1  C   UNL     1      -1.783   2.632   0.252  0.00  0.00    +0.000 C 
ATOM      2  C   UNL     1      -2.231   2.863   1.689  0.00  0.00    +0.000 C 
ATOM      3  C   UNL     1      -2.950   4.181   1.748  0.00  0.00    +0.000 C 
ATOM      4  O   UNL     1      -3.856   4.404   2.544  0.00  0.00    +0.000 OA
ATOM      5  C   UNL     1      -2.457   5.236   0.841  0.00  0.00    +0.000 A 
ATOM      6  C   UNL     1      -2.971   6.534   0.911  0.00  0.00    +0.000 A 
ATOM      7  C   UNL     1      -2.449   7.527   0.081  0.00  0.00    +0.000 A 
ATOM      8  C   UNL     1      -1.414   7.223  -0.807  0.00  0.00    +0.000 A 
ATOM      9  C   UNL     1      -0.906   5.924  -0.874  0.00  0.00    +0.000 A 
ATOM     10  C   UNL     1      -1.439   4.925  -0.061  0.00  0.00    +0.000 A 
ATOM     11  O   UNL     1      -0.894   3.675  -0.185  0.00  0.00    +0.000 OA
ENDROOT
BRANCH   1  15
ATOM     12  C   UNL     1       2.367  -0.237   0.756  0.00  0.00    +0.000 C 
ATOM     13  C   UNL     1       0.926  -0.088   0.369  0.00  0.00    +0.000 A 
ATOM     14  C   UNL     1       0.281   1.152   0.471  0.00  0.00    +0.000 A 
ATOM     15  C   UNL     1      -1.073   1.296   0.125  0.00  0.00    +0.000 A 
ATOM     16  C   UNL     1      -1.782   0.165  -0.305  0.00  0.00    +0.000 A 
ATOM     17  C   UNL     1      -1.151  -1.075  -0.396  0.00  0.00    +0.000 A 
ATOM     18  C   UNL     1       0.196  -1.202  -0.059  0.00  0.00    +0.000 A 
ENDBRANCH   1  15
TORSDOF 1
