REMARK  Name = *****
REMARK  3 active torsions:
REMARK  status: ('A' for Active; 'I' for Inactive)
REMARK    1  A    between atoms: C_1  and  C_2
REMARK    2  A    between atoms: C_6  and  C_18
REMARK    3  A    between atoms: C_8  and  C_12
REMARK                            x       y       z     vdW  Elec       q    Type
REMARK                         _______ _______ _______ _____ _____    ______ ____
ROOT
ATOM      1  C   UNL     1       0.894  -0.033   0.194  0.00  0.00    +0.000 C 
ATOM      2  C   UNL     1       2.414   0.019   0.055  0.00  0.00    +0.000 C 
ATOM      3  C   UNL     1       3.073  -1.095   0.878  0.00  0.00    +0.000 C 
ATOM      4  C   UNL     1       4.597  -1.034   0.783  0.00  0.00    +0.000 C 
ATOM      5  C   UNL     1       5.127   0.322   1.191  0.00  0.00    +0.000 C 
ATOM      6  C   UNL     1       6.086   0.541   2.118  0.00  0.00    +0.000 C 
ATOM      7  C   UNL     1       6.587   1.952   2.346  0.00  0.00    +0.000 C 
ATOM      8  C   UNL     1       6.224   2.916   1.204  0.00  0.00    +0.000 C 
ATOM      9  O   UNL     1       4.831   2.769   0.907  0.00  0.00    +0.000 OA
ATOM     10  C   UNL     1       4.484   1.467   0.414  0.00  0.00    +0.000 C 
ATOM     11  C   UNL     1       2.952   1.388   0.484  0.00  0.00    +0.000 C 
ATOM     12  C   UNL     1       6.754  -0.493   2.979  0.00  0.00    +0.000 C 
ENDROOT
BRANCH   8  13
ATOM     13  C   UNL     1       7.063   2.909  -0.067  0.00  0.00    +0.000 A 
ATOM     14  C   UNL     1       8.094   1.990  -0.310  0.00  0.00    +0.000 A 
ATOM     15  C   UNL     1       8.831   2.039  -1.497  0.00  0.00    +0.000 A 
ATOM     16  C   UNL     1       8.549   3.005  -2.459  0.00  0.00    +0.000 A 
ATOM     17  C   UNL     1       7.528   3.925  -2.238  0.00  0.00    +0.000 A 
ATOM     18  C   UNL     1       6.793   3.877  -1.052  0.00  0.00    +0.000 A 
ENDBRANCH   8  13
TORSDOF 1
