REMARK  Name = *****
REMARK  2 active torsions:
REMARK  status: ('A' for Active; 'I' for Inactive)
REMARK    1  A    between atoms: C_7  and  C_9
REMARK    2  A    between atoms: C_12  and  C_13
REMARK                            x       y       z     vdW  Elec       q    Type
REMARK                         _______ _______ _______ _____ _____    ______ ____
ROOT
ATOM      1  C   UNL     1      -2.438   0.638  -0.399  0.00  0.00    +0.000 C 
ATOM      2  C   UNL     1      -1.265   1.537  -0.036  0.00  0.00    +0.000 C 
ATOM      3  C   UNL     1       0.012   0.748   0.008  0.00  0.00    +0.000 A 
ATOM      4  C   UNL     1      -0.011  -0.648   0.103  0.00  0.00    +0.000 A 
ATOM      5  C   UNL     1       1.180  -1.374   0.129  0.00  0.00    +0.000 A 
ATOM      6  C   UNL     1       2.408  -0.711   0.090  0.00  0.00    +0.000 A 
ATOM      7  C   UNL     1       2.445   0.684   0.021  0.00  0.00    +0.000 A 
ATOM      8  C   UNL     1       1.249   1.411  -0.018  0.00  0.00    +0.000 A 
ATOM      9  O   UNL     1      -1.163  -1.386   0.138  0.00  0.00    +0.000 OA
ATOM     10  C   UNL     1      -2.354  -0.640   0.435  0.00  0.00    +0.000 C 
ENDROOT
BRANCH  10  11
ATOM     11  C   UNL     1      -3.561  -1.526   0.174  0.00  0.00    +0.000 A 
ATOM     12  C   UNL     1      -4.652  -1.506   1.057  0.00  0.00    +0.000 A 
ATOM     13  C   UNL     1      -5.777  -2.299   0.815  0.00  0.00    +0.000 A 
ATOM     14  C   UNL     1      -5.821  -3.114  -0.314  0.00  0.00    +0.000 A 
ATOM     15  C   UNL     1      -4.751  -3.143  -1.204  0.00  0.00    +0.000 A 
ATOM     16  C   UNL     1      -3.626  -2.350  -0.962  0.00  0.00    +0.000 A 
ATOM     17 CL   UNL     1      -7.207  -4.089  -0.612  0.00  0.00    +0.000 Cl
ENDBRANCH  10  11
BRANCH   7  18
ATOM     18  C   UNL     1       3.704   1.370  -0.013  0.00  0.00    +0.000 C 
ATOM     19  N   UNL     1       4.721   1.928  -0.040  0.00  0.00    +0.000 NA
ENDBRANCH   7  18
TORSDOF 2
