REMARK  Name = *****
REMARK  2 active torsions:
REMARK  status: ('A' for Active; 'I' for Inactive)
REMARK    1  A    between atoms: C_1  and  C_2
REMARK    2  A    between atoms: C_4  and  C_12
REMARK                            x       y       z     vdW  Elec       q    Type
REMARK                         _______ _______ _______ _____ _____    ______ ____
ROOT
ATOM      1  C   UNL     1       3.122   0.674  -1.477  0.00  0.00    +0.000 C 
ATOM      2  C   UNL     1       2.607   0.185  -0.118  0.00  0.00    +0.000 C 
ATOM      3  C   UNL     1       2.865  -1.320  -0.004  0.00  0.00    +0.000 C 
ATOM      4  C   UNL     1       2.491  -1.828   1.390  0.00  0.00    +0.000 C 
ATOM      5  O   UNL     1       3.238  -1.164   2.420  0.00  0.00    +0.000 OA
ATOM      6  C   UNL     1       3.501   0.168   2.244  0.00  0.00    +0.000 A 
ATOM      7  C   UNL     1       4.077   0.803   3.348  0.00  0.00    +0.000 A 
ATOM      8  C   UNL     1       4.354   2.167   3.312  0.00  0.00    +0.000 A 
ATOM      9  C   UNL     1       4.050   2.900   2.170  0.00  0.00    +0.000 A 
ATOM     10  C   UNL     1       3.483   2.265   1.061  0.00  0.00    +0.000 A 
ATOM     11  C   UNL     1       3.223   0.885   1.072  0.00  0.00    +0.000 A 
ENDROOT
BRANCH   4  12
ATOM     12  C   UNL     1       0.988  -1.869   1.656  0.00  0.00    +0.000 A 
ATOM     13  C   UNL     1       0.175  -2.726   0.892  0.00  0.00    +0.000 A 
ATOM     14  C   UNL     1      -1.204  -2.788   1.104  0.00  0.00    +0.000 A 
ATOM     15  C   UNL     1      -1.793  -1.998   2.087  0.00  0.00    +0.000 A 
ATOM     16  C   UNL     1      -1.003  -1.150   2.859  0.00  0.00    +0.000 A 
ATOM     17  C   UNL     1       0.376  -1.088   2.647  0.00  0.00    +0.000 A 
ENDBRANCH   4  12
TORSDOF 1
