REMARK  Name = *****
REMARK  2 active torsions:
REMARK  status: ('A' for Active; 'I' for Inactive)
REMARK    1  A    between atoms: C_4  and  O_7
REMARK    2  A    between atoms: O_7  and  C_8
REMARK                            x       y       z     vdW  Elec       q    Type
REMARK                         _______ _______ _______ _____ _____    ______ ____
ROOT
ATOM      1  C   UNL     1      -6.437  -0.260   0.410  0.00  0.00    +0.000 C 
ATOM      2  C   UNL     1      -6.425  -1.670   0.940  0.00  0.00    +0.000 C 
ATOM      3  C   UNL     1      -5.416  -2.170   1.659  0.00  0.00    +0.000 C 
ATOM      4  C   UNL     1      -4.289  -1.291   1.929  0.00  0.00    +0.000 A 
ATOM      5  C   UNL     1      -3.260  -1.684   2.792  0.00  0.00    +0.000 A 
ATOM      6  C   UNL     1      -2.172  -0.838   3.019  0.00  0.00    +0.000 A 
ATOM      7  C   UNL     1      -2.103   0.398   2.378  0.00  0.00    +0.000 A 
ATOM      8  C   UNL     1      -3.123   0.792   1.513  0.00  0.00    +0.000 A 
ATOM      9  C   UNL     1      -4.219  -0.046   1.298  0.00  0.00    +0.000 A 
ATOM     10  O   UNL     1      -5.162   0.406   0.418  0.00  0.00    +0.000 OA
ENDROOT
BRANCH   1  11
ATOM     11  O   UNL     1      -6.959  -0.348  -0.924  0.00  0.00    +0.000 OA
BRANCH  11  15
ATOM     12  C   UNL     1      -8.678   2.928  -2.839  0.00  0.00    +0.000 A 
ATOM     13  C   UNL     1      -7.956   3.152  -1.668  0.00  0.00    +0.000 A 
ATOM     14  C   UNL     1      -7.360   2.083  -0.991  0.00  0.00    +0.000 A 
ATOM     15  C   UNL     1      -7.488   0.783  -1.481  0.00  0.00    +0.000 A 
ATOM     16  C   UNL     1      -8.204   0.568  -2.663  0.00  0.00    +0.000 A 
ATOM     17  C   UNL     1      -8.800   1.634  -3.339  0.00  0.00    +0.000 A 
ENDBRANCH  11  15
ENDBRANCH   1  11
TORSDOF 2
