REMARK  Name = *****
REMARK  3 active torsions:
REMARK  status: ('A' for Active; 'I' for Inactive)
REMARK    1  A    between atoms: C_4  and  C_7
REMARK    2  A    between atoms: C_7  and  C_8
REMARK    3  A    between atoms: C_7  and  O_17
REMARK                            x       y       z     vdW  Elec       q    Type
REMARK                         _______ _______ _______ _____ _____    ______ ____
ROOT
ATOM      1  C   UNL     1       0.110   0.992   2.185  0.00  0.00    +0.000 C 
ENDROOT
BRANCH   1   2
ATOM      2  C   UNL     1       1.375   1.453   2.831  0.00  0.00    +0.000 A 
ATOM      3  C   UNL     1       2.360   0.813   3.557  0.00  0.00    +0.000 A 
ATOM      4  C   UNL     1       3.317   1.802   3.904  0.00  0.00    +0.000 A 
ATOM      5  C   UNL     1       4.531   1.821   4.613  0.00  0.00    +0.000 A 
ATOM      6  C   UNL     1       5.213   3.040   4.747  0.00  0.00    +0.000 A 
ATOM      7  C   UNL     1       4.703   4.216   4.191  0.00  0.00    +0.000 A 
ATOM      8  C   UNL     1       3.496   4.218   3.483  0.00  0.00    +0.000 A 
ATOM      9  C   UNL     1       2.843   2.993   3.367  0.00  0.00    +0.000 A 
ATOM     10  O   UNL     1       1.662   2.785   2.722  0.00  0.00    +0.000 OA
ENDBRANCH   1   2
BRANCH   1  14
ATOM     11  C   UNL     1      -0.642  -1.821  -0.397  0.00  0.00    +0.000 C 
ATOM     12  C   UNL     1       0.745  -1.608   0.194  0.00  0.00    +0.000 C 
ATOM     13  S   UNL     1       1.434   0.033  -0.162  0.00  0.00    +0.000 S 
ATOM     14  C   UNL     1       0.166   1.100   0.634  0.00  0.00    +0.000 C 
ATOM     15  S   UNL     1      -1.453   0.831  -0.196  0.00  0.00    +0.000 S 
ATOM     16  C   UNL     1      -1.720  -0.920   0.190  0.00  0.00    +0.000 C 
ENDBRANCH   1  14
BRANCH   1  17
ATOM     17  O   UNL     1      -0.928   1.809   2.742  0.00  0.00    +0.000 OA
ATOM     18  H   UNL     1      -0.743   2.742   2.551  0.00  0.00    +0.000 HD
ENDBRANCH   1  17
TORSDOF 3
