REMARK  Name = *****
REMARK  2 active torsions:
REMARK  status: ('A' for Active; 'I' for Inactive)
REMARK    1  A    between atoms: C_1  and  C_2
REMARK    2  A    between atoms: C_5  and  C_8
REMARK                            x       y       z     vdW  Elec       q    Type
REMARK                         _______ _______ _______ _____ _____    ______ ____
ROOT
ATOM      1  C   UNL     1      -3.421   1.319  -0.060  0.00  0.00    +0.000 C 
ATOM      2  C   UNL     1      -3.828   2.478  -0.977  0.00  0.00    +0.000 C 
ATOM      3  C   UNL     1      -5.213   2.959  -0.642  0.00  0.00    +0.000 A 
ATOM      4  C   UNL     1      -5.907   3.774  -1.547  0.00  0.00    +0.000 A 
ATOM      5  C   UNL     1      -7.194   4.225  -1.248  0.00  0.00    +0.000 A 
ATOM      6  C   UNL     1      -7.796   3.867  -0.044  0.00  0.00    +0.000 A 
ATOM      7  C   UNL     1      -7.108   3.065   0.866  0.00  0.00    +0.000 A 
ATOM      8  C   UNL     1      -5.816   2.625   0.576  0.00  0.00    +0.000 A 
ATOM      9  O   UNL     1      -5.223   1.838   1.528  0.00  0.00    +0.000 OA
ATOM     10  C   UNL     1      -3.807   1.684   1.376  0.00  0.00    +0.000 C 
ENDROOT
BRANCH   1  15
ATOM     11  C   UNL     1       2.201  -0.161  -0.620  0.00  0.00    +0.000 C 
ATOM     12  C   UNL     1       0.759   0.236  -0.503  0.00  0.00    +0.000 A 
ATOM     13  C   UNL     1       0.409   1.488   0.010  0.00  0.00    +0.000 A 
ATOM     14  C   UNL     1      -0.934   1.847   0.153  0.00  0.00    +0.000 A 
ATOM     15  C   UNL     1      -1.956   0.956  -0.205  0.00  0.00    +0.000 A 
ATOM     16  C   UNL     1      -1.599  -0.303  -0.707  0.00  0.00    +0.000 A 
ATOM     17  C   UNL     1      -0.255  -0.662  -0.848  0.00  0.00    +0.000 A 
ENDBRANCH   1  15
TORSDOF 1
