REMARK  Name = *****
REMARK  1 active torsions:
REMARK  status: ('A' for Active; 'I' for Inactive)
REMARK    1  A    between atoms: C_2  and  C_11
REMARK                            x       y       z     vdW  Elec       q    Type
REMARK                         _______ _______ _______ _____ _____    ______ ____
ROOT
ATOM      1  C   UNL     1      -1.098  -1.420  -0.105  0.00  0.00    +0.000 C 
ATOM      2  C   UNL     1      -2.172  -0.437  -0.591  0.00  0.00    +0.000 C 
ATOM      3  C   UNL     1      -1.983   0.912   0.113  0.00  0.00    +0.000 C 
ATOM      4  O   UNL     1      -0.687   1.485  -0.077  0.00  0.00    +0.000 OA
ATOM      5  C   UNL     1       0.352   0.632   0.176  0.00  0.00    +0.000 A 
ATOM      6  C   UNL     1       1.594   1.227   0.396  0.00  0.00    +0.000 A 
ATOM      7  C   UNL     1       2.716   0.437   0.641  0.00  0.00    +0.000 A 
ATOM      8  C   UNL     1       2.597  -0.951   0.657  0.00  0.00    +0.000 A 
ATOM      9  C   UNL     1       1.357  -1.548   0.420  0.00  0.00    +0.000 A 
ATOM     10  C   UNL     1       0.226  -0.760   0.165  0.00  0.00    +0.000 A 
ENDROOT
BRANCH   2  11
ATOM     11  C   UNL     1      -2.281  -0.281  -2.105  0.00  0.00    +0.000 A 
ATOM     12  C   UNL     1      -1.160  -0.222  -2.947  0.00  0.00    +0.000 A 
ATOM     13  C   UNL     1      -1.309  -0.065  -4.329  0.00  0.00    +0.000 A 
ATOM     14  C   UNL     1      -2.581   0.040  -4.883  0.00  0.00    +0.000 A 
ATOM     15  C   UNL     1      -3.707  -0.008  -4.067  0.00  0.00    +0.000 A 
ATOM     16  C   UNL     1      -3.557  -0.164  -2.686  0.00  0.00    +0.000 A 
ATOM     17 CL   UNL     1      -2.763   0.233  -6.583  0.00  0.00    +0.000 Cl
ENDBRANCH   2  11
TORSDOF 1
