REMARK  Name = *****
REMARK  4 active torsions:
REMARK  status: ('A' for Active; 'I' for Inactive)
REMARK    1  A    between atoms: C_1  and  O_2
REMARK    2  A    between atoms: O_2  and  C_3
REMARK    3  A    between atoms: C_3  and  C_5
REMARK    4  A    between atoms: C_14  and  C_15
REMARK                            x       y       z     vdW  Elec       q    Type
REMARK                         _______ _______ _______ _____ _____    ______ ____
ROOT
ATOM      1  C   UNL     1       4.393  -1.035   0.615  0.00  0.00    +0.000 C 
ATOM      2  C   UNL     1       4.774   0.422   0.361  0.00  0.00    +0.000 C 
ATOM      3  C   UNL     1       4.713   1.262   1.605  0.00  0.00    +0.000 A 
ATOM      4  C   UNL     1       4.840   2.656   1.511  0.00  0.00    +0.000 A 
ATOM      5  C   UNL     1       4.770   3.452   2.656  0.00  0.00    +0.000 A 
ATOM      6  C   UNL     1       4.572   2.863   3.903  0.00  0.00    +0.000 A 
ATOM      7  C   UNL     1       4.452   1.478   4.005  0.00  0.00    +0.000 A 
ATOM      8  C   UNL     1       4.539   0.681   2.864  0.00  0.00    +0.000 A 
ATOM      9  O   UNL     1       4.405  -0.666   3.060  0.00  0.00    +0.000 OA
ATOM     10  C   UNL     1       4.903  -1.478   1.987  0.00  0.00    +0.000 C 
ENDROOT
BRANCH  10  11
ATOM     11  C   UNL     1       4.622  -2.945   2.278  0.00  0.00    +0.000 A 
ATOM     12  C   UNL     1       3.521  -3.344   3.052  0.00  0.00    +0.000 A 
ATOM     13  C   UNL     1       3.265  -4.697   3.283  0.00  0.00    +0.000 A 
ATOM     14  C   UNL     1       4.103  -5.669   2.741  0.00  0.00    +0.000 A 
ATOM     15  C   UNL     1       5.199  -5.289   1.969  0.00  0.00    +0.000 A 
ATOM     16  C   UNL     1       5.457  -3.937   1.737  0.00  0.00    +0.000 A 
ENDBRANCH  10  11
BRANCH   1  17
ATOM     17  C   UNL     1       2.894  -1.226   0.484  0.00  0.00    +0.000 C 
ATOM     18  O   UNL     1       2.036  -0.449   0.880  0.00  0.00    +0.000 OA
BRANCH  17  20
ATOM     19  C   UNL     1       1.241  -2.691  -0.303  0.00  0.00    +0.000 C 
ATOM     20  O   UNL     1       2.632  -2.393  -0.175  0.00  0.00    +0.000 OA
ENDBRANCH  17  20
ENDBRANCH   1  17
TORSDOF 3
