REMARK  Name = *****
REMARK  7 active torsions:
REMARK  status: ('A' for Active; 'I' for Inactive)
REMARK    1  A    between atoms: C_1  and  O_2
REMARK    2  A    between atoms: O_2  and  C_3
REMARK    3  A    between atoms: C_6  and  C_9
REMARK    4  A    between atoms: C_9  and  O_22
REMARK    5  A    between atoms: C_18  and  O_20
REMARK    6  A    between atoms: O_20  and  C_21
REMARK    7  A    between atoms: O_22  and  C_23
REMARK                            x       y       z     vdW  Elec       q    Type
REMARK                         _______ _______ _______ _____ _____    ______ ____
ROOT
ATOM      1  C   UNL     1       5.605  -2.695   2.721  0.00  0.00    +0.000 C 
ATOM      2  C   UNL     1       4.874  -1.450   2.204  0.00  0.00    +0.000 C 
ATOM      3  C   UNL     1       4.957  -0.348   3.220  0.00  0.00    +0.000 C 
ATOM      4  O   UNL     1       4.116   0.542   3.292  0.00  0.00    +0.000 OA
ATOM      5  C   UNL     1       6.166  -0.311   4.059  0.00  0.00    +0.000 A 
ATOM      6  C   UNL     1       7.115  -1.315   3.908  0.00  0.00    +0.000 A 
ATOM      7  O   UNL     1       6.968  -2.379   3.065  0.00  0.00    +0.000 OA
ATOM      8  C   UNL     1       8.307  -1.248   4.626  0.00  0.00    +0.000 A 
ATOM      9  C   UNL     1       8.534  -0.193   5.517  0.00  0.00    +0.000 A 
ATOM     10  C   UNL     1       7.573   0.806   5.685  0.00  0.00    +0.000 A 
ATOM     11  C   UNL     1       6.387   0.744   4.949  0.00  0.00    +0.000 A 
ENDROOT
BRANCH   1  15
ATOM     12  C   UNL     1       5.535  -5.576  -0.567  0.00  0.00    +0.000 A 
ATOM     13  C   UNL     1       6.705  -4.878  -0.273  0.00  0.00    +0.000 A 
ATOM     14  C   UNL     1       6.734  -3.959   0.784  0.00  0.00    +0.000 A 
ATOM     15  C   UNL     1       5.596  -3.722   1.574  0.00  0.00    +0.000 A 
ATOM     16  C   UNL     1       4.421  -4.429   1.260  0.00  0.00    +0.000 A 
ATOM     17  C   UNL     1       4.396  -5.345   0.205  0.00  0.00    +0.000 A 
BRANCH  12  19
ATOM     18  C   UNL     1       6.500  -6.747  -2.396  0.00  0.00    +0.000 C 
ATOM     19  O   UNL     1       5.373  -6.494  -1.566  0.00  0.00    +0.000 OA
ENDBRANCH  12  19
ENDBRANCH   1  15
BRANCH  10  20
ATOM     20  O   UNL     1       7.674   1.886   6.516  0.00  0.00    +0.000 OA
ATOM     21  C   UNL     1       8.874   2.014   7.268  0.00  0.00    +0.000 C 
ENDBRANCH  10  20
BRANCH   1  22
ATOM     22  O   UNL     1       4.863  -3.208   3.846  0.00  0.00    +0.000 OA
ATOM     23  C   UNL     1       5.492  -4.289   4.524  0.00  0.00    +0.000 C 
ENDBRANCH   1  22
TORSDOF 4
