REMARK  Name = *****
REMARK  1 active torsions:
REMARK  status: ('A' for Active; 'I' for Inactive)
REMARK    1  A    between atoms: C_9  and  C_11
REMARK                            x       y       z     vdW  Elec       q    Type
REMARK                         _______ _______ _______ _____ _____    ______ ____
ROOT
ATOM      1  C   UNL     1       2.511   0.776   0.257  0.00  0.00    +0.000 C 
ATOM      2  C   UNL     1       2.529  -0.649  -0.293  0.00  0.00    +0.000 C 
ATOM      3  C   UNL     1       1.271  -1.422   0.091  0.00  0.00    +0.000 C 
ATOM      4  C   UNL     1       0.006  -0.672  -0.327  0.00  0.00    +0.000 C 
ATOM      5  C   UNL     1      -0.011   0.738   0.280  0.00  0.00    +0.000 C 
ATOM      6  C   UNL     1       1.236   1.524  -0.131  0.00  0.00    +0.000 C 
ATOM      7  C   UNL     1      -1.303   1.456  -0.120  0.00  0.00    +0.000 C 
ATOM      8  C   UNL     1      -2.514   0.597   0.239  0.00  0.00    +0.000 C 
ATOM      9  C   UNL     1      -2.366  -0.823  -0.322  0.00  0.00    +0.000 C 
ATOM     10  O   UNL     1      -1.132  -1.411   0.118  0.00  0.00    +0.000 OA
ENDROOT
BRANCH   9  11
ATOM     11  C   UNL     1      -3.531  -1.695   0.108  0.00  0.00    +0.000 A 
ATOM     12  C   UNL     1      -4.692  -1.750  -0.679  0.00  0.00    +0.000 A 
ATOM     13  C   UNL     1      -5.784  -2.526  -0.284  0.00  0.00    +0.000 A 
ATOM     14  C   UNL     1      -5.732  -3.251   0.904  0.00  0.00    +0.000 A 
ATOM     15  C   UNL     1      -4.589  -3.201   1.699  0.00  0.00    +0.000 A 
ATOM     16  C   UNL     1      -3.497  -2.426   1.305  0.00  0.00    +0.000 A 
ENDBRANCH   9  11
TORSDOF 1
