REMARK  Name = *****
REMARK  3 active torsions:
REMARK  status: ('A' for Active; 'I' for Inactive)
REMARK    1  A    between atoms: C_7  and  O_9
REMARK    2  A    between atoms: O_9  and  C_10
REMARK    3  A    between atoms: C_10  and  C_11
REMARK                            x       y       z     vdW  Elec       q    Type
REMARK                         _______ _______ _______ _____ _____    ______ ____
ROOT
ATOM      1  C   UNL     1       2.581   0.613  -0.130  0.00  0.00    +0.000 C 
ATOM      2  C   UNL     1       1.344   1.413   0.300  0.00  0.00    +0.000 C 
ATOM      3  C   UNL     1       0.052   0.675   0.047  0.00  0.00    +0.000 A 
ATOM      4  C   UNL     1       0.038  -0.730   0.095  0.00  0.00    +0.000 A 
ATOM      5  C   UNL     1      -1.171  -1.411  -0.065  0.00  0.00    +0.000 A 
ATOM      6  C   UNL     1      -2.352  -0.699  -0.285  0.00  0.00    +0.000 A 
ATOM      7  C   UNL     1      -2.345   0.697  -0.342  0.00  0.00    +0.000 A 
ATOM      8  C   UNL     1      -1.144   1.383  -0.156  0.00  0.00    +0.000 A 
ATOM      9  C   UNL     1       1.284  -1.470   0.319  0.00  0.00    +0.000 C 
ATOM     10  C   UNL     1       2.468  -0.850   0.203  0.00  0.00    +0.000 C 
ATOM     11 BR   UNL     1       4.084  -1.757   0.425  0.00  0.00    +0.000 Br
ENDROOT
BRANCH   7  12
ATOM     12  O   UNL     1      -3.568   1.261  -0.573  0.00  0.00    +0.000 OA
BRANCH  12  13
ATOM     13  C   UNL     1      -3.599   2.665  -0.822  0.00  0.00    +0.000 C 
BRANCH  13  14
ATOM     14  C   UNL     1      -4.996   3.036  -1.255  0.00  0.00    +0.000 A 
ATOM     15  C   UNL     1      -6.029   3.135  -0.313  0.00  0.00    +0.000 A 
ATOM     16  C   UNL     1      -7.324   3.467  -0.714  0.00  0.00    +0.000 A 
ATOM     17  C   UNL     1      -7.601   3.696  -2.061  0.00  0.00    +0.000 A 
ATOM     18  C   UNL     1      -6.584   3.588  -3.008  0.00  0.00    +0.000 A 
ATOM     19  C   UNL     1      -5.289   3.256  -2.609  0.00  0.00    +0.000 A 
ENDBRANCH  13  14
ENDBRANCH  12  13
ENDBRANCH   7  12
TORSDOF 3
