REMARK  Name = *****
REMARK  2 active torsions:
REMARK  status: ('A' for Active; 'I' for Inactive)
REMARK    1  A    between atoms: C_1  and  C_2
REMARK    2  A    between atoms: C_9  and  C_13
REMARK                            x       y       z     vdW  Elec       q    Type
REMARK                         _______ _______ _______ _____ _____    ______ ____
ROOT
ATOM      1  C   UNL     1       0.866  -0.224   0.086  0.00  0.00    +0.000 C 
ATOM      2  C   UNL     1       2.389  -0.115   0.022  0.00  0.00    +0.000 C 
ATOM      3  C   UNL     1       2.810   1.189  -0.666  0.00  0.00    +0.000 C 
ATOM      4  C   UNL     1       4.329   1.300  -0.793  0.00  0.00    +0.000 C 
ATOM      5  C   UNL     1       4.927   0.087  -1.525  0.00  0.00    +0.000 C 
ATOM      6  C   UNL     1       4.511  -1.223  -0.814  0.00  0.00    +0.000 C 
ATOM      7  C   UNL     1       2.988  -1.327  -0.698  0.00  0.00    +0.000 C 
ATOM      8  O   UNL     1       4.967  -2.371  -1.549  0.00  0.00    +0.000 OA
ATOM      9  C   UNL     1       6.405  -2.414  -1.616  0.00  0.00    +0.000 C 
ATOM     10  C   UNL     1       6.944  -1.177  -2.358  0.00  0.00    +0.000 C 
ATOM     11  C   UNL     1       6.441   0.092  -1.697  0.00  0.00    +0.000 C 
ATOM     12  C   UNL     1       7.282   1.068  -1.318  0.00  0.00    +0.000 C 
ENDROOT
BRANCH   9  13
ATOM     13  C   UNL     1       6.766  -3.684  -2.342  0.00  0.00    +0.000 A 
ATOM     14  C   UNL     1       6.079  -4.339  -3.347  0.00  0.00    +0.000 A 
ATOM     15  C   UNL     1       6.749  -5.513  -3.794  0.00  0.00    +0.000 A 
ATOM     16  C   UNL     1       7.930  -5.719  -3.118  0.00  0.00    +0.000 A 
ATOM     17  S   UNL     1       8.224  -4.504  -1.952  0.00  0.00    +0.000 S 
ENDBRANCH   9  13
TORSDOF 1
