REMARK  Name = *****
REMARK  5 active torsions:
REMARK  status: ('A' for Active; 'I' for Inactive)
REMARK    1  A    between atoms: C_1  and  C_2
REMARK    2  A    between atoms: C_5  and  C_8
REMARK    3  A    between atoms: C_8  and  O_21
REMARK    4  A    between atoms: C_9  and  C_19
REMARK    5  A    between atoms: C_9  and  C_20
REMARK                            x       y       z     vdW  Elec       q    Type
REMARK                         _______ _______ _______ _____ _____    ______ ____
ROOT
ATOM      1  C   UNL     1      -2.486  -0.239  -0.329  0.00  0.00    +0.000 C 
ATOM      2  C   UNL     1      -3.014   0.661   0.827  0.00  0.00    +0.000 C 
ATOM      3  C   UNL     1      -2.730  -0.051   2.139  0.00  0.00    +0.000 C 
ATOM      4  O   UNL     1      -2.485   0.540   3.186  0.00  0.00    +0.000 OA
ATOM      5  C   UNL     1      -2.822  -1.526   2.127  0.00  0.00    +0.000 A 
ATOM      6  C   UNL     1      -2.737  -2.252   3.319  0.00  0.00    +0.000 A 
ATOM      7  C   UNL     1      -2.867  -3.641   3.292  0.00  0.00    +0.000 A 
ATOM      8  C   UNL     1      -3.087  -4.297   2.081  0.00  0.00    +0.000 A 
ATOM      9  C   UNL     1      -3.167  -3.568   0.893  0.00  0.00    +0.000 A 
ATOM     10  C   UNL     1      -3.020  -2.182   0.914  0.00  0.00    +0.000 A 
ATOM     11  O   UNL     1      -3.107  -1.541  -0.292  0.00  0.00    +0.000 OA
ATOM     12  C   UNL     1      -2.404   2.075   0.810  0.00  0.00    +0.000 C 
ATOM     13  C   UNL     1      -4.553   0.840   0.760  0.00  0.00    +0.000 C 
ENDROOT
BRANCH   1  18
ATOM     14  C   UNL     1       3.228  -1.294  -1.255  0.00  0.00    +0.000 C 
ATOM     15  C   UNL     1       1.780  -0.986  -1.018  0.00  0.00    +0.000 A 
ATOM     16  C   UNL     1       1.352  -0.498   0.219  0.00  0.00    +0.000 A 
ATOM     17  C   UNL     1      -0.004  -0.238   0.458  0.00  0.00    +0.000 A 
ATOM     18  C   UNL     1      -0.976  -0.457  -0.530  0.00  0.00    +0.000 A 
ATOM     19  C   UNL     1      -0.525  -0.979  -1.762  0.00  0.00    +0.000 A 
ATOM     20  C   UNL     1       0.827  -1.240  -2.003  0.00  0.00    +0.000 A 
ENDBRANCH   1  18
BRANCH   1  21
ATOM     21  O   UNL     1      -2.945   0.357  -1.556  0.00  0.00    +0.000 OA
ATOM     22  H   UNL     1      -2.562   1.243  -1.647  0.00  0.00    +0.000 HD
ENDBRANCH   1  21
TORSDOF 2
