REMARK  Name = *****
REMARK  1 active torsions:
REMARK  status: ('A' for Active; 'I' for Inactive)
REMARK    1  A    between atoms: C_2  and  C_11
REMARK                            x       y       z     vdW  Elec       q    Type
REMARK                         _______ _______ _______ _____ _____    ______ ____
ROOT
ATOM      1  C   UNL     1       2.164   0.712  -0.385  0.00  0.00    +0.000 C 
ATOM      2  C   UNL     1       2.132  -0.571   0.456  0.00  0.00    +0.000 C 
ATOM      3  O   UNL     1       0.996  -1.376   0.088  0.00  0.00    +0.000 OA
ATOM      4  C   UNL     1      -0.144  -0.633  -0.077  0.00  0.00    +0.000 A 
ATOM      5  C   UNL     1      -1.346  -1.339  -0.112  0.00  0.00    +0.000 A 
ATOM      6  C   UNL     1      -2.553  -0.653  -0.249  0.00  0.00    +0.000 A 
ATOM      7  C   UNL     1      -2.558   0.738  -0.354  0.00  0.00    +0.000 A 
ATOM      8  C   UNL     1      -1.354   1.444  -0.333  0.00  0.00    +0.000 A 
ATOM      9  C   UNL     1      -0.146   0.758  -0.208  0.00  0.00    +0.000 A 
ATOM     10  O   UNL     1       0.993   1.518  -0.212  0.00  0.00    +0.000 OA
ENDROOT
BRANCH   2  11
ATOM     11  C   UNL     1       2.216  -0.447   1.973  0.00  0.00    +0.000 A 
ATOM     12  C   UNL     1       2.285   0.782   2.644  0.00  0.00    +0.000 A 
ATOM     13  C   UNL     1       2.371   0.832   4.038  0.00  0.00    +0.000 A 
ATOM     14  C   UNL     1       2.392  -0.344   4.783  0.00  0.00    +0.000 A 
ATOM     15  C   UNL     1       2.325  -1.574   4.136  0.00  0.00    +0.000 A 
ATOM     16  C   UNL     1       2.240  -1.625   2.743  0.00  0.00    +0.000 A 
ENDBRANCH   2  11
TORSDOF 1
