REMARK  Name = *****
REMARK  1 active torsions:
REMARK  status: ('A' for Active; 'I' for Inactive)
REMARK    1  A    between atoms: C_11  and  C_12
REMARK                            x       y       z     vdW  Elec       q    Type
REMARK                         _______ _______ _______ _____ _____    ______ ____
ROOT
ATOM      1  C   UNL     1      -2.461   0.668  -0.460  0.00  0.00    +0.000 C 
ATOM      2  C   UNL     1      -1.239   1.508  -0.216  0.00  0.00    +0.000 C 
ATOM      3  O   UNL     1      -1.272   2.732  -0.190  0.00  0.00    +0.000 OA
ATOM      4  C   UNL     1       0.030   0.768  -0.090  0.00  0.00    +0.000 A 
ATOM      5  C   UNL     1       1.253   1.439  -0.037  0.00  0.00    +0.000 A 
ATOM      6  C   UNL     1       2.437   0.702  -0.009  0.00  0.00    +0.000 A 
ATOM      7  C   UNL     1       2.394  -0.694  -0.048  0.00  0.00    +0.000 A 
ATOM      8  C   UNL     1       1.167  -1.359  -0.080  0.00  0.00    +0.000 A 
ATOM      9  C   UNL     1      -0.018  -0.626  -0.073  0.00  0.00    +0.000 A 
ATOM     10  O   UNL     1      -1.187  -1.343  -0.037  0.00  0.00    +0.000 OA
ATOM     11  C   UNL     1      -2.337  -0.585   0.407  0.00  0.00    +0.000 C 
ATOM     12 CL   UNL     1      -3.780  -1.622   0.062  0.00  0.00    +0.000 Cl
ENDROOT
BRANCH  11  13
ATOM     13  C   UNL     1      -2.320  -0.352   1.927  0.00  0.00    +0.000 A 
ATOM     14  C   UNL     1      -2.942   0.765   2.514  0.00  0.00    +0.000 A 
ATOM     15  C   UNL     1      -2.846   1.006   3.887  0.00  0.00    +0.000 A 
ATOM     16  C   UNL     1      -2.146   0.124   4.703  0.00  0.00    +0.000 A 
ATOM     17  C   UNL     1      -1.563  -1.013   4.153  0.00  0.00    +0.000 A 
ATOM     18  C   UNL     1      -1.659  -1.256   2.781  0.00  0.00    +0.000 A 
ENDBRANCH  11  13
TORSDOF 1
