REMARK  Name = *****
REMARK  4 active torsions:
REMARK  status: ('A' for Active; 'I' for Inactive)
REMARK    1  A    between atoms: C_1  and  C_2
REMARK    2  A    between atoms: C_4  and  C_19
REMARK    3  A    between atoms: C_7  and  C_11
REMARK    4  A    between atoms: C_7  and  O_18
REMARK                            x       y       z     vdW  Elec       q    Type
REMARK                         _______ _______ _______ _____ _____    ______ ____
ROOT
ATOM      1  C   UNL     1       0.992  -0.106   0.523  0.00  0.00    +0.000 C 
ATOM      2  C   UNL     1       2.466   0.003   0.264  0.00  0.00    +0.000 A 
ATOM      3  C   UNL     1       3.275  -1.151   0.242  0.00  0.00    +0.000 A 
ATOM      4  C   UNL     1       4.649  -1.080  -0.034  0.00  0.00    +0.000 A 
ATOM      5  C   UNL     1       5.194   0.177  -0.275  0.00  0.00    +0.000 A 
ATOM      6  C   UNL     1       6.619   0.518  -0.619  0.00  0.00    +0.000 C 
ATOM      7  C   UNL     1       6.648   2.060  -0.410  0.00  0.00    +0.000 C 
ATOM      8  C   UNL     1       5.187   2.555  -0.607  0.00  0.00    +0.000 C 
ATOM      9  C   UNL     1       4.394   1.325  -0.267  0.00  0.00    +0.000 A 
ATOM     10  C   UNL     1       3.034   1.253  -0.010  0.00  0.00    +0.000 A 
ATOM     11  C   UNL     1       5.495  -2.317  -0.050  0.00  0.00    +0.000 C 
ENDROOT
BRANCH   7  12
ATOM     12  C   UNL     1       7.637   2.761  -1.334  0.00  0.00    +0.000 A 
ATOM     13  C   UNL     1       7.503   2.672  -2.731  0.00  0.00    +0.000 A 
ATOM     14  C   UNL     1       8.407   3.313  -3.575  0.00  0.00    +0.000 A 
ATOM     15  C   UNL     1       9.462   4.055  -3.064  0.00  0.00    +0.000 A 
ATOM     16  C   UNL     1       9.615   4.158  -1.685  0.00  0.00    +0.000 A 
ATOM     17  C   UNL     1       8.712   3.517  -0.830  0.00  0.00    +0.000 A 
ATOM     18  F   UNL     1       8.254   3.210  -4.901  0.00  0.00    +0.000 F 
ENDBRANCH   7  12
BRANCH   7  19
ATOM     19  O   UNL     1       7.017   2.311   0.963  0.00  0.00    +0.000 OA
ATOM     20  H   UNL     1       6.389   1.866   1.553  0.00  0.00    +0.000 HD
ENDBRANCH   7  19
TORSDOF 2
