REMARK  Name = *****
REMARK  3 active torsions:
REMARK  status: ('A' for Active; 'I' for Inactive)
REMARK    1  A    between atoms: C_1  and  C_2
REMARK    2  A    between atoms: N_9  and  N_12
REMARK    3  A    between atoms: C_13  and  C_14
REMARK                            x       y       z     vdW  Elec       q    Type
REMARK                         _______ _______ _______ _____ _____    ______ ____
ROOT
ATOM      1  C   UNL     1       0.526  -0.363   0.559  0.00  0.00    +0.000 C 
ATOM      2  C   UNL     1       1.905  -0.268  -0.027  0.00  0.00    +0.000 A 
ATOM      3  C   UNL     1       2.959  -0.998   0.538  0.00  0.00    +0.000 A 
ATOM      4  C   UNL     1       4.230  -0.860  -0.008  0.00  0.00    +0.000 A 
ATOM      5  C   UNL     1       4.476  -0.023  -1.090  0.00  0.00    +0.000 A 
ATOM      6  C   UNL     1       3.447   0.715  -1.651  0.00  0.00    +0.000 A 
ATOM      7  C   UNL     1       2.161   0.595  -1.111  0.00  0.00    +0.000 A 
ATOM      8  S   UNL     1       6.172  -0.057  -1.579  0.00  0.00    +0.000 S 
ATOM      9  N   UNL     1       6.562  -1.096  -0.256  0.00  0.00    +0.000 N 
ATOM     10  C   UNL     1       5.443  -1.562   0.449  0.00  0.00    +0.000 A 
ATOM     11  O   UNL     1       5.397  -2.406   1.334  0.00  0.00    +0.000 OA
ENDROOT
BRANCH   9  12
ATOM     12  N   UNL     1       7.652  -1.910  -0.359  0.00  0.00    +0.000 NA
ATOM     13  C   UNL     1       8.836  -1.375  -0.288  0.00  0.00    +0.000 C 
BRANCH  13  14
ATOM     14  C   UNL     1       9.218   0.006   0.066  0.00  0.00    +0.000 A 
ATOM     15  C   UNL     1       8.614   0.679   1.131  0.00  0.00    +0.000 A 
ATOM     16  C   UNL     1       9.028   1.971   1.457  0.00  0.00    +0.000 A 
ATOM     17  C   UNL     1      10.052   2.580   0.730  0.00  0.00    +0.000 A 
ATOM     18  C   UNL     1      10.670   1.896  -0.318  0.00  0.00    +0.000 A 
ATOM     19  C   UNL     1      10.261   0.604  -0.648  0.00  0.00    +0.000 A 
ENDBRANCH  13  14
ENDBRANCH   9  12
TORSDOF 2
