REMARK  Name = *****
REMARK  2 active torsions:
REMARK  status: ('A' for Active; 'I' for Inactive)
REMARK    1  A    between atoms: C_1  and  C_2
REMARK    2  A    between atoms: C_11  and  C_13
REMARK                            x       y       z     vdW  Elec       q    Type
REMARK                         _______ _______ _______ _____ _____    ______ ____
ROOT
ATOM      1  C   UNL     1       1.141   0.167   0.189  0.00  0.00    +0.000 C 
ATOM      2  C   UNL     1       2.640   0.102   0.162  0.00  0.00    +0.000 A 
ATOM      3  C   UNL     1       3.398   1.269  -0.015  0.00  0.00    +0.000 A 
ATOM      4  C   UNL     1       4.790   1.203  -0.062  0.00  0.00    +0.000 A 
ATOM      5  C   UNL     1       5.430  -0.033   0.025  0.00  0.00    +0.000 A 
ATOM      6  C   UNL     1       4.688  -1.204   0.189  0.00  0.00    +0.000 A 
ATOM      7  C   UNL     1       3.295  -1.134   0.256  0.00  0.00    +0.000 A 
ATOM      8  C   UNL     1       6.900  -0.083  -0.109  0.00  0.00    +0.000 C 
ATOM      9  O   UNL     1       7.505  -1.147  -0.035  0.00  0.00    +0.000 OA
ATOM     10  C   UNL     1       7.586   1.217  -0.418  0.00  0.00    +0.000 C 
ATOM     11  C   UNL     1       6.809   2.334   0.263  0.00  0.00    +0.000 C 
ATOM     12  O   UNL     1       5.457   2.389  -0.224  0.00  0.00    +0.000 OA
ENDROOT
BRANCH  11  13
ATOM     13  C   UNL     1       7.424   3.677  -0.036  0.00  0.00    +0.000 A 
ATOM     14  C   UNL     1       7.270   4.476  -1.155  0.00  0.00    +0.000 A 
ATOM     15  C   UNL     1       8.030   5.678  -1.077  0.00  0.00    +0.000 A 
ATOM     16  C   UNL     1       8.743   5.760   0.098  0.00  0.00    +0.000 A 
ATOM     17  S   UNL     1       8.495   4.396   1.096  0.00  0.00    +0.000 S 
ENDBRANCH  11  13
TORSDOF 1
