REMARK  Name = *****
REMARK  3 active torsions:
REMARK  status: ('A' for Active; 'I' for Inactive)
REMARK    1  A    between atoms: C_1  and  C_2
REMARK    2  A    between atoms: C_4  and  C_9
REMARK    3  A    between atoms: C_5  and  C_8
REMARK                            x       y       z     vdW  Elec       q    Type
REMARK                         _______ _______ _______ _____ _____    ______ ____
ROOT
ATOM      1  C   UNL     1      -0.952   2.344  -0.226  0.00  0.00    +0.000 C 
ATOM      2  C   UNL     1      -0.536   2.804  -1.619  0.00  0.00    +0.000 C 
ATOM      3  C   UNL     1       0.798   3.485  -1.583  0.00  0.00    +0.000 C 
ATOM      4  O   UNL     1       1.582   3.456  -2.526  0.00  0.00    +0.000 OA
ATOM      5  C   UNL     1       1.067   4.312  -0.397  0.00  0.00    +0.000 A 
ATOM      6  C   UNL     1       2.157   5.188  -0.377  0.00  0.00    +0.000 A 
ATOM      7  C   UNL     1       2.369   6.002   0.736  0.00  0.00    +0.000 A 
ATOM      8  C   UNL     1       1.493   5.939   1.820  0.00  0.00    +0.000 A 
ATOM      9  C   UNL     1       0.410   5.057   1.795  0.00  0.00    +0.000 A 
ATOM     10  C   UNL     1       0.200   4.232   0.689  0.00  0.00    +0.000 A 
ATOM     11  O   UNL     1      -0.855   3.369   0.779  0.00  0.00    +0.000 OA
ENDROOT
BRANCH   1  15
ATOM     12  C   UNL     1       2.726  -0.210   2.159  0.00  0.00    +0.000 C 
ATOM     13  C   UNL     1       1.456  -0.221   1.361  0.00  0.00    +0.000 A 
ATOM     14  C   UNL     1       0.851   0.983   0.974  0.00  0.00    +0.000 A 
ATOM     15  C   UNL     1      -0.324   1.012   0.196  0.00  0.00    +0.000 A 
ATOM     16  C   UNL     1      -0.887  -0.224  -0.207  0.00  0.00    +0.000 A 
ATOM     17  C   UNL     1      -0.269  -1.427   0.177  0.00  0.00    +0.000 A 
ATOM     18  C   UNL     1       0.894  -1.425   0.944  0.00  0.00    +0.000 A 
ATOM     19  C   UNL     1      -2.157  -0.311  -1.013  0.00  0.00    +0.000 C 
ENDBRANCH   1  15
TORSDOF 1
