REMARK  Name = *****
REMARK  5 active torsions:
REMARK  status: ('A' for Active; 'I' for Inactive)
REMARK    1  A    between atoms: C_1  and  C_2
REMARK    2  A    between atoms: C_2  and  C_3
REMARK    3  A    between atoms: C_2  and  C_12
REMARK    4  A    between atoms: C_2  and  O_21
REMARK    5  A    between atoms: C_12  and  C_15
REMARK                            x       y       z     vdW  Elec       q    Type
REMARK                         _______ _______ _______ _____ _____    ______ ____
ROOT
ATOM      1  C   UNL     1       0.762  -0.083  -0.120  0.00  0.00    +0.000 C 
ATOM      2  C   UNL     1       2.301   0.037  -0.130  0.00  0.00    +0.000 C 
ENDROOT
BRANCH   2   3
ATOM      3  C   UNL     1       2.884  -1.248   0.468  0.00  0.00    +0.000 A 
ATOM      4  N   UNL     1       3.380  -1.305   1.692  0.00  0.00    +0.000 NA
ATOM      5  C   UNL     1       3.828  -2.588   1.959  0.00  0.00    +0.000 A 
ATOM      6  C   UNL     1       4.429  -3.019   3.159  0.00  0.00    +0.000 A 
ATOM      7  C   UNL     1       4.833  -4.351   3.297  0.00  0.00    +0.000 A 
ATOM      8  C   UNL     1       4.646  -5.255   2.256  0.00  0.00    +0.000 A 
ATOM      9  C   UNL     1       4.051  -4.853   1.056  0.00  0.00    +0.000 A 
ATOM     10  C   UNL     1       3.649  -3.513   0.929  0.00  0.00    +0.000 A 
ATOM     11  S   UNL     1       2.893  -2.730  -0.404  0.00  0.00    +0.000 S 
ENDBRANCH   2   3
BRANCH   2  12
ATOM     12  C   UNL     1       2.866   0.467  -1.494  0.00  0.00    +0.000 C 
ATOM     13  C   UNL     1       2.121   0.981  -2.442  0.00  0.00    +0.000 C 
ATOM     14  C   UNL     1       1.385   1.498  -3.378  0.00  0.00    +0.000 C 
BRANCH  12  15
ATOM     15  C   UNL     1       4.329   0.323  -1.749  0.00  0.00    +0.000 A 
ATOM     16  C   UNL     1       5.288   0.657  -0.782  0.00  0.00    +0.000 A 
ATOM     17  C   UNL     1       6.653   0.499  -1.036  0.00  0.00    +0.000 A 
ATOM     18  C   UNL     1       7.084   0.007  -2.265  0.00  0.00    +0.000 A 
ATOM     19  C   UNL     1       6.150  -0.324  -3.242  0.00  0.00    +0.000 A 
ATOM     20  C   UNL     1       4.785  -0.165  -2.986  0.00  0.00    +0.000 A 
ENDBRANCH  12  15
ENDBRANCH   2  12
BRANCH   2  21
ATOM     21  O   UNL     1       2.591   1.099   0.812  0.00  0.00    +0.000 OA
ATOM     22  H   UNL     1       2.246   0.859   1.686  0.00  0.00    +0.000 HD
ENDBRANCH   2  21
TORSDOF 4
