REMARK  Name = *****
REMARK  4 active torsions:
REMARK  status: ('A' for Active; 'I' for Inactive)
REMARK    1  A    between atoms: C_1  and  C_2
REMARK    2  A    between atoms: C_9  and  O_14
REMARK    3  A    between atoms: O_14  and  C_15
REMARK    4  A    between atoms: C_15  and  C_16
REMARK                            x       y       z     vdW  Elec       q    Type
REMARK                         _______ _______ _______ _____ _____    ______ ____
ROOT
ATOM      1  C   UNL     1       1.074   0.278   0.122  0.00  0.00    +0.000 C 
ATOM      2  C   UNL     1       2.519  -0.038  -0.133  0.00  0.00    +0.000 A 
ATOM      3  C   UNL     1       3.381   0.910  -0.529  0.00  0.00    +0.000 A 
ATOM      4  C   UNL     1       4.806   0.655  -0.793  0.00  0.00    +0.000 A 
ATOM      5  O   UNL     1       5.547   1.561  -1.157  0.00  0.00    +0.000 OA
ATOM      6  O   UNL     1       5.250  -0.643  -0.614  0.00  0.00    +0.000 OA
ATOM      7  C   UNL     1       4.373  -1.663  -0.198  0.00  0.00    +0.000 A 
ATOM      8  C   UNL     1       4.931  -2.932  -0.048  0.00  0.00    +0.000 A 
ATOM      9  C   UNL     1       4.114  -3.988   0.347  0.00  0.00    +0.000 A 
ATOM     10  C   UNL     1       2.763  -3.760   0.628  0.00  0.00    +0.000 A 
ATOM     11  C   UNL     1       2.220  -2.477   0.471  0.00  0.00    +0.000 A 
ATOM     12  C   UNL     1       3.022  -1.407   0.050  0.00  0.00    +0.000 A 
ATOM     13 CL   UNL     1       1.727  -5.021   1.188  0.00  0.00    +0.000 Cl
ENDROOT
BRANCH   9  14
ATOM     14  O   UNL     1       4.712  -5.208   0.514  0.00  0.00    +0.000 OA
BRANCH  14  15
ATOM     15  C   UNL     1       4.438  -6.084  -0.589  0.00  0.00    +0.000 C 
BRANCH  15  16
ATOM     16  C   UNL     1       5.674  -6.903  -0.882  0.00  0.00    +0.000 A 
ATOM     17  C   UNL     1       6.317  -7.614   0.145  0.00  0.00    +0.000 A 
ATOM     18  C   UNL     1       7.448  -8.385  -0.128  0.00  0.00    +0.000 A 
ATOM     19  C   UNL     1       7.934  -8.451  -1.428  0.00  0.00    +0.000 A 
ATOM     20  C   UNL     1       7.309  -7.763  -2.461  0.00  0.00    +0.000 A 
ATOM     21  C   UNL     1       6.178  -6.990  -2.190  0.00  0.00    +0.000 A 
ATOM     22  F   UNL     1       9.018  -9.192  -1.691  0.00  0.00    +0.000 F 
ENDBRANCH  15  16
ENDBRANCH  14  15
ENDBRANCH   9  14
TORSDOF 3
