REMARK  Name = *****
REMARK  5 active torsions:
REMARK  status: ('A' for Active; 'I' for Inactive)
REMARK    1  A    between atoms: C_1  and  C_2
REMARK    2  A    between atoms: C_4  and  C_12
REMARK    3  A    between atoms: C_12  and  C_13
REMARK    4  A    between atoms: C_12  and  O_14
REMARK    5  A    between atoms: O_14  and  C_15
REMARK                            x       y       z     vdW  Elec       q    Type
REMARK                         _______ _______ _______ _____ _____    ______ ____
ROOT
ATOM      1  C   UNL     1      -1.810   1.983  -1.078  0.00  0.00    +0.000 C 
ATOM      2  C   UNL     1      -1.364   0.658  -0.523  0.00  0.00    +0.000 A 
ATOM      3  C   UNL     1      -2.305  -0.369  -0.386  0.00  0.00    +0.000 A 
ATOM      4  C   UNL     1      -1.908  -1.599   0.129  0.00  0.00    +0.000 A 
ATOM      5  N   UNL     1      -0.631  -1.838   0.517  0.00  0.00    +0.000 NA
ATOM      6  C   UNL     1       0.284  -0.865   0.376  0.00  0.00    +0.000 A 
ATOM      7  C   UNL     1       1.591  -1.137   0.756  0.00  0.00    +0.000 A 
ATOM      8  C   UNL     1       2.608  -0.186   0.643  0.00  0.00    +0.000 A 
ATOM      9  C   UNL     1       2.316   1.073   0.139  0.00  0.00    +0.000 A 
ATOM     10  C   UNL     1       1.011   1.372  -0.249  0.00  0.00    +0.000 A 
ATOM     11  C   UNL     1      -0.024   0.413  -0.140  0.00  0.00    +0.000 A 
ENDROOT
BRANCH   4  12
ATOM     12  C   UNL     1      -2.905  -2.735   0.315  0.00  0.00    +0.000 C 
ATOM     13  C   UNL     1      -3.783  -2.466   1.537  0.00  0.00    +0.000 C 
BRANCH  12  14
ATOM     14  O   UNL     1      -3.736  -2.826  -0.854  0.00  0.00    +0.000 OA
BRANCH  14  15
ATOM     15  C   UNL     1      -3.957  -4.073  -1.369  0.00  0.00    +0.000 A 
ATOM     16  C   UNL     1      -4.031  -5.251  -0.625  0.00  0.00    +0.000 A 
ATOM     17  C   UNL     1      -4.286  -6.468  -1.265  0.00  0.00    +0.000 A 
ATOM     18  C   UNL     1      -4.478  -6.509  -2.645  0.00  0.00    +0.000 A 
ATOM     19  C   UNL     1      -4.425  -5.332  -3.387  0.00  0.00    +0.000 A 
ATOM     20  C   UNL     1      -4.172  -4.117  -2.748  0.00  0.00    +0.000 A 
ENDBRANCH  14  15
ENDBRANCH  12  14
ENDBRANCH   4  12
TORSDOF 3
