REMARK  Name = *****
REMARK  3 active torsions:
REMARK  status: ('A' for Active; 'I' for Inactive)
REMARK    1  A    between atoms: C_4  and  O_7
REMARK    2  A    between atoms: O_7  and  C_8
REMARK    3  A    between atoms: C_8  and  C_9
REMARK                            x       y       z     vdW  Elec       q    Type
REMARK                         _______ _______ _______ _____ _____    ______ ____
ROOT
ATOM      1  C   UNL     1      -5.485  -1.488  -0.529  0.00  0.00    +0.000 A 
ATOM      2  N   UNL     1      -6.327  -2.551  -0.456  0.00  0.00    +0.000 NA
ATOM      3  C   UNL     1      -7.623  -2.372  -0.770  0.00  0.00    +0.000 A 
ATOM      4  C   UNL     1      -8.502  -3.443  -0.682  0.00  0.00    +0.000 A 
ATOM      5  C   UNL     1      -9.858  -3.312  -0.996  0.00  0.00    +0.000 A 
ATOM      6  C   UNL     1     -10.356  -2.082  -1.411  0.00  0.00    +0.000 A 
ATOM      7  C   UNL     1      -9.497  -0.989  -1.509  0.00  0.00    +0.000 A 
ATOM      8  C   UNL     1      -8.134  -1.126  -1.190  0.00  0.00    +0.000 A 
ATOM      9  C   UNL     1      -7.246  -0.049  -1.274  0.00  0.00    +0.000 A 
ATOM     10  C   UNL     1      -5.908  -0.229  -0.942  0.00  0.00    +0.000 A 
ENDROOT
BRANCH   1  11
ATOM     11  C   UNL     1      -4.032  -1.730  -0.180  0.00  0.00    +0.000 C 
BRANCH  11  12
ATOM     12  O   UNL     1      -3.597  -0.754   0.770  0.00  0.00    +0.000 OA
BRANCH  12  16
ATOM     13  C   UNL     1       0.251  -0.875   2.356  0.00  0.00    +0.000 A 
ATOM     14  C   UNL     1      -0.073  -1.774   1.341  0.00  0.00    +0.000 A 
ATOM     15  C   UNL     1      -1.354  -1.771   0.778  0.00  0.00    +0.000 A 
ATOM     16  C   UNL     1      -2.315  -0.867   1.232  0.00  0.00    +0.000 A 
ATOM     17  C   UNL     1      -1.981   0.034   2.247  0.00  0.00    +0.000 A 
ATOM     18  C   UNL     1      -0.704   0.030   2.810  0.00  0.00    +0.000 A 
ENDBRANCH  12  16
ENDBRANCH  11  12
ENDBRANCH   1  11
TORSDOF 3
