REMARK  Name = *****
REMARK  3 active torsions:
REMARK  status: ('A' for Active; 'I' for Inactive)
REMARK    1  A    between atoms: C_1  and  C_2
REMARK    2  A    between atoms: C_5  and  S_8
REMARK    3  A    between atoms: C_16  and  C_18
REMARK                            x       y       z     vdW  Elec       q    Type
REMARK                         _______ _______ _______ _____ _____    ______ ____
ROOT
ATOM      1  S   UNL     1      -4.804  -2.133   2.683  0.00  0.00    +0.000 S 
ATOM      2  N   UNL     1      -4.464  -3.444   1.955  0.00  0.00    +0.000 NA
ATOM      3  C   UNL     1      -3.642  -3.491   0.918  0.00  0.00    +0.000 A 
ATOM      4  C   UNL     1      -3.415  -4.768   0.431  0.00  0.00    +0.000 A 
ATOM      5  C   UNL     1      -2.587  -5.019  -0.664  0.00  0.00    +0.000 A 
ATOM      6  C   UNL     1      -1.961  -3.962  -1.301  0.00  0.00    +0.000 A 
ATOM      7  C   UNL     1      -2.170  -2.665  -0.837  0.00  0.00    +0.000 A 
ATOM      8  C   UNL     1      -3.008  -2.395   0.272  0.00  0.00    +0.000 A 
ATOM      9  C   UNL     1      -3.228  -1.079   0.742  0.00  0.00    +0.000 C 
ATOM     10  C   UNL     1      -4.042  -0.825   1.842  0.00  0.00    +0.000 C 
ATOM     11  C   UNL     1      -2.576   0.114   0.081  0.00  0.00    +0.000 C 
ATOM     12  O   UNL     1      -4.295  -2.234   4.029  0.00  0.00    +0.000 OA
ENDROOT
BRANCH   1  17
ATOM     13  C   UNL     1     -10.837  -1.924   2.522  0.00  0.00    +0.000 C 
ATOM     14  C   UNL     1      -9.337  -1.949   2.557  0.00  0.00    +0.000 A 
ATOM     15  C   UNL     1      -8.658  -1.872   3.780  0.00  0.00    +0.000 A 
ATOM     16  C   UNL     1      -7.264  -1.933   3.822  0.00  0.00    +0.000 A 
ATOM     17  C   UNL     1      -6.547  -2.081   2.635  0.00  0.00    +0.000 A 
ATOM     18  C   UNL     1      -7.209  -2.178   1.410  0.00  0.00    +0.000 A 
ATOM     19  C   UNL     1      -8.603  -2.118   1.375  0.00  0.00    +0.000 A 
ENDBRANCH   1  17
TORSDOF 1
