REMARK  Name = *****
REMARK  3 active torsions:
REMARK  status: ('A' for Active; 'I' for Inactive)
REMARK    1  A    between atoms: C_4  and  C_7
REMARK    2  A    between atoms: N_8  and  N_9
REMARK    3  A    between atoms: N_9  and  C_10
REMARK                            x       y       z     vdW  Elec       q    Type
REMARK                         _______ _______ _______ _____ _____    ______ ____
ROOT
ATOM      1  N   UNL     1      -3.949  -1.284  -0.270  0.00  0.00    +0.000 N 
ATOM      2  H   UNL     1      -3.332  -1.518   0.460  0.00  0.00    +0.000 HD
ENDROOT
BRANCH   1   3
ATOM      3  C   UNL     1      -4.746  -2.281  -0.781  0.00  0.00    +0.000 A 
ATOM      4  C   UNL     1      -5.824  -2.073  -1.566  0.00  0.00    +0.000 A 
ATOM      5  C   UNL     1      -6.386  -3.361  -1.863  0.00  0.00    +0.000 A 
ATOM      6  C   UNL     1      -7.470  -3.600  -2.600  0.00  0.00    +0.000 A 
ATOM      7  C   UNL     1      -8.064  -4.876  -2.904  0.00  0.00    +0.000 A 
ATOM      8  C   UNL     1      -7.666  -6.098  -2.535  0.00  0.00    +0.000 A 
ATOM      9  C   UNL     1      -6.535  -6.490  -1.734  0.00  0.00    +0.000 A 
ATOM     10  C   UNL     1      -5.602  -5.739  -1.141  0.00  0.00    +0.000 A 
ATOM     11  C   UNL     1      -5.474  -4.276  -1.152  0.00  0.00    +0.000 A 
ATOM     12  N   UNL     1      -4.523  -3.630  -0.524  0.00  0.00    +0.000 NA
ENDBRANCH   1   3
BRANCH   1  14
ATOM     13  C   UNL     1      -3.260   0.876  -0.040  0.00  0.00    +0.000 C 
ATOM     14  N   UNL     1      -3.955   0.001  -0.706  0.00  0.00    +0.000 NA
BRANCH  13  18
ATOM     15  C   UNL     1      -1.156   0.568   3.658  0.00  0.00    +0.000 A 
ATOM     16  C   UNL     1      -2.363  -0.114   3.502  0.00  0.00    +0.000 A 
ATOM     17  C   UNL     1      -3.060  -0.031   2.296  0.00  0.00    +0.000 A 
ATOM     18  C   UNL     1      -2.539   0.724   1.241  0.00  0.00    +0.000 A 
ATOM     19  C   UNL     1      -1.341   1.425   1.405  0.00  0.00    +0.000 A 
ATOM     20  C   UNL     1      -0.647   1.340   2.613  0.00  0.00    +0.000 A 
ENDBRANCH  13  18
ENDBRANCH   1  14
TORSDOF 3
