REMARK  Name = *****
REMARK  2 active torsions:
REMARK  status: ('A' for Active; 'I' for Inactive)
REMARK    1  A    between atoms: C_1  and  C_2
REMARK    2  A    between atoms: C_10  and  C_12
REMARK                            x       y       z     vdW  Elec       q    Type
REMARK                         _______ _______ _______ _____ _____    ______ ____
ROOT
ATOM      1  C   UNL     1       0.747   0.155   0.354  0.00  0.00    +0.000 C 
ATOM      2  C   UNL     1       2.233   0.186   0.133  0.00  0.00    +0.000 C 
ATOM      3  C   UNL     1       2.960   1.230  -0.326  0.00  0.00    +0.000 C 
ATOM      4  C   UNL     1       2.394   2.556  -0.786  0.00  0.00    +0.000 C 
ATOM      5  C   UNL     1       3.072   3.732  -0.086  0.00  0.00    +0.000 C 
ATOM      6  C   UNL     1       4.587   3.689  -0.262  0.00  0.00    +0.000 C 
ATOM      7  C   UNL     1       5.155   2.359   0.218  0.00  0.00    +0.000 C 
ATOM      8  C   UNL     1       4.481   1.155  -0.452  0.00  0.00    +0.000 C 
ATOM      9  O   UNL     1       5.046  -0.008   0.163  0.00  0.00    +0.000 OA
ATOM     10  C   UNL     1       4.324  -1.195  -0.172  0.00  0.00    +0.000 C 
ATOM     11  C   UNL     1       2.931  -1.118   0.468  0.00  0.00    +0.000 C 
ENDROOT
BRANCH  10  12
ATOM     12  C   UNL     1       5.078  -2.418   0.313  0.00  0.00    +0.000 A 
ATOM     13  C   UNL     1       5.855  -2.385   1.481  0.00  0.00    +0.000 A 
ATOM     14  C   UNL     1       6.520  -3.528   1.928  0.00  0.00    +0.000 A 
ATOM     15  C   UNL     1       6.413  -4.721   1.216  0.00  0.00    +0.000 A 
ATOM     16  C   UNL     1       5.640  -4.772   0.058  0.00  0.00    +0.000 A 
ATOM     17  C   UNL     1       4.975  -3.629  -0.390  0.00  0.00    +0.000 A 
ENDBRANCH  10  12
TORSDOF 1
