REMARK  Name = *****
REMARK  4 active torsions:
REMARK  status: ('A' for Active; 'I' for Inactive)
REMARK    1  A    between atoms: C_1  and  C_2
REMARK    2  A    between atoms: C_3  and  O_11
REMARK    3  A    between atoms: O_11  and  C_12
REMARK    4  A    between atoms: C_12  and  C_13
REMARK                            x       y       z     vdW  Elec       q    Type
REMARK                         _______ _______ _______ _____ _____    ______ ____
ROOT
ATOM      1  C   UNL     1       0.844   0.092  -0.240  0.00  0.00    +0.000 C 
ATOM      2  C   UNL     1       2.337   0.107  -0.075  0.00  0.00    +0.000 A 
ATOM      3  C   UNL     1       3.062  -1.093   0.086  0.00  0.00    +0.000 A 
ATOM      4  C   UNL     1       4.460  -1.060   0.248  0.00  0.00    +0.000 A 
ATOM      5  C   UNL     1       5.154   0.154   0.266  0.00  0.00    +0.000 A 
ATOM      6  C   UNL     1       4.434   1.326   0.143  0.00  0.00    +0.000 A 
ATOM      7  C   UNL     1       3.043   1.308  -0.018  0.00  0.00    +0.000 A 
ATOM      8  C   UNL     1       2.522   2.709  -0.162  0.00  0.00    +0.000 C 
ATOM      9  C   UNL     1       3.694   3.532   0.389  0.00  0.00    +0.000 C 
ATOM     10  C   UNL     1       4.965   2.725   0.107  0.00  0.00    +0.000 C 
ENDROOT
BRANCH   3  11
ATOM     11  O   UNL     1       2.311  -2.242   0.064  0.00  0.00    +0.000 OA
BRANCH  11  12
ATOM     12  C   UNL     1       2.989  -3.483   0.248  0.00  0.00    +0.000 C 
BRANCH  12  13
ATOM     13  C   UNL     1       1.985  -4.615   0.231  0.00  0.00    +0.000 A 
ATOM     14  C   UNL     1       2.279  -5.812  -0.439  0.00  0.00    +0.000 A 
ATOM     15  C   UNL     1       1.372  -6.874  -0.426  0.00  0.00    +0.000 A 
ATOM     16  C   UNL     1       0.166  -6.754   0.262  0.00  0.00    +0.000 A 
ATOM     17  C   UNL     1      -0.133  -5.575   0.941  0.00  0.00    +0.000 A 
ATOM     18  C   UNL     1       0.774  -4.513   0.931  0.00  0.00    +0.000 A 
ENDBRANCH  12  13
ENDBRANCH  11  12
ENDBRANCH   3  11
TORSDOF 3
