REMARK  Name = *****
REMARK  5 active torsions:
REMARK  status: ('A' for Active; 'I' for Inactive)
REMARK    1  A    between atoms: C_1  and  C_2
REMARK    2  A    between atoms: C_3  and  C_12
REMARK    3  A    between atoms: C_5  and  C_11
REMARK    4  A    between atoms: C_12  and  C_13
REMARK    5  A    between atoms: C_12  and  O_19
REMARK                            x       y       z     vdW  Elec       q    Type
REMARK                         _______ _______ _______ _____ _____    ______ ____
ROOT
ATOM      1  C   UNL     1       1.118  -0.280  -0.013  0.00  0.00    +0.000 C 
ATOM      2  C   UNL     1       2.602  -0.121   0.024  0.00  0.00    +0.000 C 
ATOM      3  C   UNL     1       3.351   1.009  -0.017  0.00  0.00    +0.000 C 
ATOM      4  C   UNL     1       4.779   0.595   0.019  0.00  0.00    +0.000 A 
ATOM      5  C   UNL     1       5.991   1.295   0.003  0.00  0.00    +0.000 A 
ATOM      6  C   UNL     1       7.191   0.549   0.045  0.00  0.00    +0.000 A 
ATOM      7  C   UNL     1       7.192  -0.850   0.099  0.00  0.00    +0.000 A 
ATOM      8  C   UNL     1       5.992  -1.544   0.117  0.00  0.00    +0.000 A 
ATOM      9  C   UNL     1       4.812  -0.813   0.078  0.00  0.00    +0.000 A 
ATOM     10  C   UNL     1       3.430  -1.375   0.094  0.00  0.00    +0.000 C 
ATOM     11  C   UNL     1       6.106   2.788  -0.051  0.00  0.00    +0.000 C 
ENDROOT
BRANCH   3  12
ATOM     12  C   UNL     1       2.889   2.444  -0.043  0.00  0.00    +0.000 C 
BRANCH  12  13
ATOM     13  C   UNL     1       2.833   3.091  -1.420  0.00  0.00    +0.000 A 
ATOM     14  C   UNL     1       2.485   2.373  -2.575  0.00  0.00    +0.000 A 
ATOM     15  C   UNL     1       2.403   3.010  -3.815  0.00  0.00    +0.000 A 
ATOM     16  C   UNL     1       2.655   4.375  -3.918  0.00  0.00    +0.000 A 
ATOM     17  C   UNL     1       2.982   5.108  -2.780  0.00  0.00    +0.000 A 
ATOM     18  C   UNL     1       3.062   4.473  -1.539  0.00  0.00    +0.000 A 
ENDBRANCH  12  13
BRANCH  12  19
ATOM     19  O   UNL     1       1.604   2.573   0.577  0.00  0.00    +0.000 OA
ATOM     20  H   UNL     1       0.944   2.088   0.057  0.00  0.00    +0.000 HD
ENDBRANCH  12  19
ENDBRANCH   3  12
TORSDOF 3
