REMARK  Name = *****
REMARK  4 active torsions:
REMARK  status: ('A' for Active; 'I' for Inactive)
REMARK    1  A    between atoms: C_1  and  C_2
REMARK    2  A    between atoms: C_5  and  O_8
REMARK    3  A    between atoms: O_8  and  C_9
REMARK    4  A    between atoms: C_9  and  C_11
REMARK                            x       y       z     vdW  Elec       q    Type
REMARK                         _______ _______ _______ _____ _____    ______ ____
ROOT
ATOM      1  C   UNL     1      -3.888   1.476  -0.256  0.00  0.00    +0.000 C 
ATOM      2  O   UNL     1      -3.274   2.483  -0.595  0.00  0.00    +0.000 OA
ENDROOT
BRANCH   1   3
ATOM      3  C   UNL     1      -5.328   1.365  -0.232  0.00  0.00    +0.000 A 
ATOM      4  C   UNL     1      -6.305   2.295  -0.546  0.00  0.00    +0.000 A 
ATOM      5  C   UNL     1      -7.560   1.663  -0.352  0.00  0.00    +0.000 A 
ATOM      6  C   UNL     1      -8.907   2.038  -0.488  0.00  0.00    +0.000 A 
ATOM      7  C   UNL     1      -9.901   1.094  -0.191  0.00  0.00    +0.000 A 
ATOM      8  C   UNL     1      -9.567  -0.195   0.233  0.00  0.00    +0.000 A 
ATOM      9  C   UNL     1      -8.232  -0.586   0.375  0.00  0.00    +0.000 A 
ATOM     10  C   UNL     1      -7.269   0.373   0.073  0.00  0.00    +0.000 A 
ATOM     11  O   UNL     1      -5.923   0.190   0.147  0.00  0.00    +0.000 OA
ENDBRANCH   1   3
BRANCH   1  12
ATOM     12  O   UNL     1      -3.319   0.274   0.156  0.00  0.00    +0.000 OA
BRANCH  12  17
ATOM     13  C   UNL     1       2.349  -0.150   0.339  0.00  0.00    +0.000 C 
ATOM     14  C   UNL     1       0.858  -0.002   0.270  0.00  0.00    +0.000 A 
ATOM     15  C   UNL     1       0.200   0.923   1.093  0.00  0.00    +0.000 A 
ATOM     16  C   UNL     1      -1.191   1.040   1.057  0.00  0.00    +0.000 A 
ATOM     17  C   UNL     1      -1.919   0.233   0.186  0.00  0.00    +0.000 A 
ATOM     18  C   UNL     1      -1.288  -0.717  -0.612  0.00  0.00    +0.000 A 
ATOM     19  C   UNL     1       0.102  -0.832  -0.570  0.00  0.00    +0.000 A 
ENDBRANCH  12  17
ENDBRANCH   1  12
TORSDOF 3
