REMARK  Name = *****
REMARK  2 active torsions:
REMARK  status: ('A' for Active; 'I' for Inactive)
REMARK    1  A    between atoms: C_13  and  C_14
REMARK    2  A    between atoms: C_13  and  O_22
REMARK                            x       y       z     vdW  Elec       q    Type
REMARK                         _______ _______ _______ _____ _____    ______ ____
ROOT
ATOM      1  C   UNL     1      -3.078   0.963   0.063  0.00  0.00    +0.000 C 
ATOM      2  C   UNL     1      -2.936  -0.517   0.441  0.00  0.00    +0.000 C 
ATOM      3  N   UNL     1      -1.561  -0.765   0.064  0.00  0.00    +0.000 NA
ATOM      4  C   UNL     1      -0.929   0.447  -0.079  0.00  0.00    +0.000 C 
ATOM      5  N   UNL     1      -1.696   1.508  -0.073  0.00  0.00    +0.000 NA
ATOM      6  C   UNL     1       0.544   0.529  -0.187  0.00  0.00    +0.000 A 
ATOM      7  C   UNL     1       1.190   1.765  -0.254  0.00  0.00    +0.000 A 
ATOM      8  C   UNL     1       2.582   1.812  -0.326  0.00  0.00    +0.000 A 
ATOM      9  C   UNL     1       3.321   0.629  -0.334  0.00  0.00    +0.000 A 
ATOM     10  C   UNL     1       2.674  -0.608  -0.269  0.00  0.00    +0.000 A 
ATOM     11  C   UNL     1       1.277  -0.668  -0.183  0.00  0.00    +0.000 A 
ATOM     12  C   UNL     1       0.563  -1.999  -0.169  0.00  0.00    +0.000 C 
ATOM     13  C   UNL     1      -0.863  -1.969   0.453  0.00  0.00    +0.000 C 
ATOM     14  H   UNL     1      -1.423   2.451  -0.143  0.00  0.00    +0.000 HD
ENDROOT
BRANCH  13  15
ATOM     15  C   UNL     1      -0.810  -2.189   1.970  0.00  0.00    +0.000 A 
ATOM     16  C   UNL     1      -1.056  -3.464   2.517  0.00  0.00    +0.000 A 
ATOM     17  C   UNL     1      -0.989  -3.695   3.897  0.00  0.00    +0.000 A 
ATOM     18  C   UNL     1      -0.665  -2.649   4.763  0.00  0.00    +0.000 A 
ATOM     19  C   UNL     1      -0.409  -1.380   4.242  0.00  0.00    +0.000 A 
ATOM     20  C   UNL     1      -0.476  -1.154   2.863  0.00  0.00    +0.000 A 
ATOM     21 CL   UNL     1      -0.562  -2.854   6.474  0.00  0.00    +0.000 Cl
ATOM     22 CL   UNL     1      -1.311  -5.297   4.461  0.00  0.00    +0.000 Cl
ENDBRANCH  13  15
BRANCH  13  23
ATOM     23  O   UNL     1      -1.594  -3.032  -0.149  0.00  0.00    +0.000 OA
ATOM     24  H   UNL     1      -1.630  -2.896  -1.109  0.00  0.00    +0.000 HD
ENDBRANCH  13  23
TORSDOF 2
