REMARK  Name = *****
REMARK  2 active torsions:
REMARK  status: ('A' for Active; 'I' for Inactive)
REMARK    1  A    between atoms: C_1  and  C_2
REMARK    2  A    between atoms: C_2  and  C_8
REMARK                            x       y       z     vdW  Elec       q    Type
REMARK                         _______ _______ _______ _____ _____    ______ ____
ROOT
ATOM      1  C   UNL     1       1.245  -0.001   1.701  0.00  0.00    +0.000 C 
ATOM      2  C   UNL     1       2.000   1.163   2.342  0.00  0.00    +0.000 C 
ATOM      3  C   UNL     1       3.485   1.020   2.196  0.00  0.00    +0.000 C 
ATOM      4  O   UNL     1       4.237   1.987   2.142  0.00  0.00    +0.000 OA
ATOM      5  C   UNL     1       4.010  -0.353   2.213  0.00  0.00    +0.000 A 
ATOM      6  C   UNL     1       5.388  -0.585   2.269  0.00  0.00    +0.000 A 
ATOM      7  C   UNL     1       5.867  -1.893   2.321  0.00  0.00    +0.000 A 
ATOM      8  C   UNL     1       4.970  -2.962   2.320  0.00  0.00    +0.000 A 
ATOM      9  C   UNL     1       3.596  -2.723   2.259  0.00  0.00    +0.000 A 
ATOM     10  C   UNL     1       3.112  -1.416   2.192  0.00  0.00    +0.000 A 
ATOM     11  O   UNL     1       1.757  -1.283   2.110  0.00  0.00    +0.000 OA
ENDROOT
BRANCH   1  13
ATOM     12  C   UNL     1       2.290   0.104  -0.668  0.00  0.00    +0.000 C 
ATOM     13  C   UNL     1       0.978   0.057   0.145  0.00  0.00    +0.000 C 
ATOM     14  C   UNL     1       0.140   1.306  -0.251  0.00  0.00    +0.000 C 
ATOM     15  C   UNL     1      -1.297   1.271   0.271  0.00  0.00    +0.000 C 
ATOM     16  C   UNL     1      -2.020  -0.002  -0.156  0.00  0.00    +0.000 C 
ATOM     17  C   UNL     1      -1.240  -1.261   0.207  0.00  0.00    +0.000 C 
ATOM     18  C   UNL     1       0.195  -1.207  -0.319  0.00  0.00    +0.000 C 
ENDBRANCH   1  13
TORSDOF 1
