REMARK  Name = *****
REMARK  1 active torsions:
REMARK  status: ('A' for Active; 'I' for Inactive)
REMARK    1  A    between atoms: C_3  and  C_13
REMARK                            x       y       z     vdW  Elec       q    Type
REMARK                         _______ _______ _______ _____ _____    ______ ____
ROOT
ATOM      1  C   UNL     1      -3.266  -0.033  -0.348  0.00  0.00    +0.000 C 
ATOM      2  C   UNL     1      -1.994   0.172   0.034  0.00  0.00    +0.000 C 
ATOM      3  C   UNL     1      -1.444   1.457   0.586  0.00  0.00    +0.000 C 
ATOM      4  O   UNL     1      -0.205   1.815  -0.063  0.00  0.00    +0.000 OA
ATOM      5  C   UNL     1       0.727   0.813  -0.102  0.00  0.00    +0.000 A 
ATOM      6  C   UNL     1       2.063   1.203  -0.188  0.00  0.00    +0.000 A 
ATOM      7  C   UNL     1       3.070   0.236  -0.235  0.00  0.00    +0.000 A 
ATOM      8  C   UNL     1       2.742  -1.120  -0.211  0.00  0.00    +0.000 A 
ATOM      9  C   UNL     1       1.404  -1.513  -0.147  0.00  0.00    +0.000 A 
ATOM     10  C   UNL     1       0.398  -0.542  -0.096  0.00  0.00    +0.000 A 
ATOM     11  C   UNL     1      -1.020  -0.941  -0.094  0.00  0.00    +0.000 C 
ATOM     12  O   UNL     1      -1.360  -2.113  -0.190  0.00  0.00    +0.000 OA
ENDROOT
BRANCH   3  13
ATOM     13  C   UNL     1      -1.290   1.540   2.108  0.00  0.00    +0.000 A 
ATOM     14  C   UNL     1      -1.795   0.563   2.985  0.00  0.00    +0.000 A 
ATOM     15  C   UNL     1      -1.643   0.704   4.366  0.00  0.00    +0.000 A 
ATOM     16  C   UNL     1      -0.998   1.816   4.901  0.00  0.00    +0.000 A 
ATOM     17  C   UNL     1      -0.503   2.800   4.049  0.00  0.00    +0.000 A 
ATOM     18  C   UNL     1      -0.653   2.665   2.667  0.00  0.00    +0.000 A 
ATOM     19 CL   UNL     1      -2.263  -0.508   5.420  0.00  0.00    +0.000 Cl
ENDBRANCH   3  13
TORSDOF 1
