REMARK  Name = *****
REMARK  2 active torsions:
REMARK  status: ('A' for Active; 'I' for Inactive)
REMARK    1  A    between atoms: C_1  and  C_2
REMARK    2  A    between atoms: C_3  and  C_13
REMARK                            x       y       z     vdW  Elec       q    Type
REMARK                         _______ _______ _______ _____ _____    ______ ____
ROOT
ATOM      1  C   UNL     1       2.820  -0.558  -1.535  0.00  0.00    +0.000 C 
ATOM      2  C   UNL     1       2.605  -0.074  -0.100  0.00  0.00    +0.000 C 
ATOM      3  C   UNL     1       3.248  -1.010   0.934  0.00  0.00    +0.000 C 
ATOM      4  O   UNL     1       4.683  -1.042   0.786  0.00  0.00    +0.000 OA
ATOM      5  C   UNL     1       5.274   0.193   0.812  0.00  0.00    +0.000 A 
ATOM      6  C   UNL     1       6.623   0.231   1.162  0.00  0.00    +0.000 A 
ATOM      7  C   UNL     1       7.295   1.454   1.218  0.00  0.00    +0.000 A 
ATOM      8  C   UNL     1       6.623   2.639   0.914  0.00  0.00    +0.000 A 
ATOM      9  C   UNL     1       5.278   2.602   0.544  0.00  0.00    +0.000 A 
ATOM     10  C   UNL     1       4.610   1.375   0.489  0.00  0.00    +0.000 A 
ATOM     11  C   UNL     1       3.205   1.304   0.044  0.00  0.00    +0.000 C 
ATOM     12  O   UNL     1       2.581   2.321  -0.245  0.00  0.00    +0.000 OA
ENDROOT
BRANCH   3  13
ATOM     13  C   UNL     1       2.873  -0.834   2.406  0.00  0.00    +0.000 A 
ATOM     14  C   UNL     1       1.939   0.109   2.863  0.00  0.00    +0.000 A 
ATOM     15  C   UNL     1       1.632   0.210   4.223  0.00  0.00    +0.000 A 
ATOM     16  C   UNL     1       2.246  -0.631   5.148  0.00  0.00    +0.000 A 
ATOM     17  C   UNL     1       3.168  -1.577   4.714  0.00  0.00    +0.000 A 
ATOM     18  C   UNL     1       3.476  -1.679   3.357  0.00  0.00    +0.000 A 
ENDBRANCH   3  13
TORSDOF 1
