REMARK  Name = *****
REMARK  3 active torsions:
REMARK  status: ('A' for Active; 'I' for Inactive)
REMARK    1  A    between atoms: C_1  and  C_2
REMARK    2  A    between atoms: C_5  and  C_8
REMARK    3  A    between atoms: C_16  and  C_19
REMARK                            x       y       z     vdW  Elec       q    Type
REMARK                         _______ _______ _______ _____ _____    ______ ____
ROOT
ATOM      1  C   UNL     1      -3.663  -0.069   0.453  0.00  0.00    +0.000 C 
ATOM      2  C   UNL     1      -4.346  -0.449   1.760  0.00  0.00    +0.000 C 
ATOM      3  C   UNL     1      -5.827  -0.274   1.581  0.00  0.00    +0.000 C 
ATOM      4  O   UNL     1      -6.649  -0.960   2.179  0.00  0.00    +0.000 OA
ATOM      5  C   UNL     1      -6.254   0.828   0.697  0.00  0.00    +0.000 A 
ATOM      6  C   UNL     1      -5.280   1.566   0.025  0.00  0.00    +0.000 A 
ATOM      7  O   UNL     1      -3.939   1.298   0.104  0.00  0.00    +0.000 OA
ATOM      8  C   UNL     1      -5.655   2.657  -0.760  0.00  0.00    +0.000 A 
ATOM      9  C   UNL     1      -7.007   3.002  -0.893  0.00  0.00    +0.000 A 
ATOM     10  C   UNL     1      -7.980   2.231  -0.241  0.00  0.00    +0.000 A 
ATOM     11  C   UNL     1      -7.606   1.150   0.560  0.00  0.00    +0.000 A 
ATOM     12  C   UNL     1      -7.415   4.148  -1.772  0.00  0.00    +0.000 C 
ENDROOT
BRANCH   1  17
ATOM     13  C   UNL     1       2.102  -0.855   0.956  0.00  0.00    +0.000 C 
ATOM     14  C   UNL     1       0.627  -0.632   0.799  0.00  0.00    +0.000 A 
ATOM     15  C   UNL     1      -0.172  -1.594   0.171  0.00  0.00    +0.000 A 
ATOM     16  C   UNL     1      -1.551  -1.403   0.052  0.00  0.00    +0.000 A 
ATOM     17  C   UNL     1      -2.160  -0.249   0.565  0.00  0.00    +0.000 A 
ATOM     18  C   UNL     1      -1.358   0.702   1.212  0.00  0.00    +0.000 A 
ATOM     19  C   UNL     1       0.021   0.510   1.330  0.00  0.00    +0.000 A 
ENDBRANCH   1  17
TORSDOF 1
