REMARK  Name = *****
REMARK  2 active torsions:
REMARK  status: ('A' for Active; 'I' for Inactive)
REMARK    1  A    between atoms: C_3  and  C_13
REMARK    2  A    between atoms: C_3  and  O_19
REMARK                            x       y       z     vdW  Elec       q    Type
REMARK                         _______ _______ _______ _____ _____    ______ ____
ROOT
ATOM      1  C   UNL     1      -0.963   1.610   0.083  0.00  0.00    +0.000 C 
ATOM      2  C   UNL     1      -2.243   0.842  -0.222  0.00  0.00    +0.000 C 
ATOM      3  C   UNL     1      -2.287  -0.501   0.518  0.00  0.00    +0.000 C 
ATOM      4  C   UNL     1      -1.071  -1.344   0.101  0.00  0.00    +0.000 C 
ATOM      5  O   UNL     1      -1.124  -2.573   0.028  0.00  0.00    +0.000 OA
ATOM      6  C   UNL     1       0.209  -0.632  -0.174  0.00  0.00    +0.000 A 
ATOM      7  C   UNL     1       0.260   0.771  -0.179  0.00  0.00    +0.000 A 
ATOM      8  C   UNL     1       1.494   1.405  -0.400  0.00  0.00    +0.000 A 
ATOM      9  C   UNL     1       2.642   0.648  -0.636  0.00  0.00    +0.000 A 
ATOM     10  C   UNL     1       2.584  -0.744  -0.650  0.00  0.00    +0.000 A 
ATOM     11  C   UNL     1       1.366  -1.385  -0.417  0.00  0.00    +0.000 A 
ATOM     12 BR   UNL     1       4.292   1.519  -0.940  0.00  0.00    +0.000 Br
ENDROOT
BRANCH   3  13
ATOM     13  C   UNL     1      -2.457  -0.339   2.029  0.00  0.00    +0.000 A 
ATOM     14  C   UNL     1      -3.646   0.223   2.534  0.00  0.00    +0.000 A 
ATOM     15  C   UNL     1      -3.837   0.408   3.904  0.00  0.00    +0.000 A 
ATOM     16  C   UNL     1      -2.844   0.032   4.801  0.00  0.00    +0.000 A 
ATOM     17  C   UNL     1      -1.664  -0.535   4.327  0.00  0.00    +0.000 A 
ATOM     18  C   UNL     1      -1.472  -0.721   2.955  0.00  0.00    +0.000 A 
ENDBRANCH   3  13
BRANCH   3  19
ATOM     19  O   UNL     1      -3.450  -1.203   0.044  0.00  0.00    +0.000 OA
ATOM     20  H   UNL     1      -3.383  -1.328  -0.916  0.00  0.00    +0.000 HD
ENDBRANCH   3  19
TORSDOF 2
