REMARK  Name = *****
REMARK  3 active torsions:
REMARK  status: ('A' for Active; 'I' for Inactive)
REMARK    1  A    between atoms: C_7  and  C_11
REMARK    2  A    between atoms: C_11  and  C_12
REMARK    3  A    between atoms: C_11  and  O_20
REMARK                            x       y       z     vdW  Elec       q    Type
REMARK                         _______ _______ _______ _____ _____    ______ ____
ROOT
ATOM      1  C   UNL     1       1.043  -2.532   1.294  0.00  0.00    +0.000 C 
ENDROOT
BRANCH   1   8
ATOM      2  C   UNL     1      -2.682  -0.315  -0.152  0.00  0.00    +0.000 A 
ATOM      3  C   UNL     1      -2.374   1.056  -0.148  0.00  0.00    +0.000 A 
ATOM      4  C   UNL     1      -1.047   1.480  -0.081  0.00  0.00    +0.000 A 
ATOM      5  C   UNL     1      -0.067   0.505  -0.018  0.00  0.00    +0.000 A 
ATOM      6  C   UNL     1      -0.356  -0.845  -0.013  0.00  0.00    +0.000 A 
ATOM      7  C   UNL     1      -1.670  -1.278  -0.087  0.00  0.00    +0.000 A 
ATOM      8  C   UNL     1       0.910  -1.619   0.049  0.00  0.00    +0.000 C 
ATOM      9  O   UNL     1       1.920  -0.573   0.109  0.00  0.00    +0.000 OA
ATOM     10  C   UNL     1       1.375   0.681   0.063  0.00  0.00    +0.000 C 
ATOM     11  O   UNL     1       1.983   1.730   0.113  0.00  0.00    +0.000 OA
ENDBRANCH   1   8
BRANCH   1  12
ATOM     12  C   UNL     1       2.166  -3.550   1.135  0.00  0.00    +0.000 A 
ATOM     13  C   UNL     1       1.984  -4.745   0.401  0.00  0.00    +0.000 A 
ATOM     14  C   UNL     1       3.046  -5.657   0.258  0.00  0.00    +0.000 A 
ATOM     15  C   UNL     1       4.289  -5.387   0.834  0.00  0.00    +0.000 A 
ATOM     16  C   UNL     1       4.482  -4.210   1.551  0.00  0.00    +0.000 A 
ATOM     17  C   UNL     1       3.434  -3.302   1.698  0.00  0.00    +0.000 A 
ATOM     18 CL   UNL     1       2.891  -7.136  -0.626  0.00  0.00    +0.000 Cl
ATOM     19 CL   UNL     1       0.447  -5.081  -0.341  0.00  0.00    +0.000 Cl
ENDBRANCH   1  12
BRANCH   1  20
ATOM     20  O   UNL     1       1.240  -1.759   2.489  0.00  0.00    +0.000 OA
ATOM     21  H   UNL     1       2.073  -1.266   2.422  0.00  0.00    +0.000 HD
ENDBRANCH   1  20
TORSDOF 3
