REMARK  Name = *****
REMARK  2 active torsions:
REMARK  status: ('A' for Active; 'I' for Inactive)
REMARK    1  A    between atoms: C_1  and  C_2
REMARK    2  A    between atoms: C_5  and  C_8
REMARK                            x       y       z     vdW  Elec       q    Type
REMARK                         _______ _______ _______ _____ _____    ______ ____
ROOT
ATOM      1  C   UNL     1      -3.631  -0.012   0.404  0.00  0.00    +0.000 C 
ATOM      2  C   UNL     1      -4.336  -0.496   1.664  0.00  0.00    +0.000 C 
ATOM      3  C   UNL     1      -5.814  -0.306   1.475  0.00  0.00    +0.000 C 
ATOM      4  O   UNL     1      -6.648  -1.036   2.000  0.00  0.00    +0.000 OA
ATOM      5  C   UNL     1      -6.229   0.866   0.677  0.00  0.00    +0.000 A 
ATOM      6  C   UNL     1      -5.242   1.656   0.081  0.00  0.00    +0.000 A 
ATOM      7  O   UNL     1      -3.904   1.380   0.162  0.00  0.00    +0.000 OA
ATOM      8  C   UNL     1      -5.603   2.808  -0.614  0.00  0.00    +0.000 A 
ATOM      9  C   UNL     1      -6.949   3.139  -0.733  0.00  0.00    +0.000 A 
ATOM     10  C   UNL     1      -7.941   2.345  -0.161  0.00  0.00    +0.000 A 
ATOM     11  C   UNL     1      -7.581   1.202   0.553  0.00  0.00    +0.000 A 
ATOM     12  F   UNL     1      -7.299   4.241  -1.409  0.00  0.00    +0.000 F 
ENDROOT
BRANCH   1  17
ATOM     13  C   UNL     1       2.123  -0.848   0.944  0.00  0.00    +0.000 C 
ATOM     14  C   UNL     1       0.651  -0.611   0.779  0.00  0.00    +0.000 A 
ATOM     15  C   UNL     1      -0.141  -1.531   0.084  0.00  0.00    +0.000 A 
ATOM     16  C   UNL     1      -1.518  -1.328  -0.044  0.00  0.00    +0.000 A 
ATOM     17  C   UNL     1      -2.131  -0.203   0.526  0.00  0.00    +0.000 A 
ATOM     18  C   UNL     1      -1.335   0.705   1.240  0.00  0.00    +0.000 A 
ATOM     19  C   UNL     1       0.041   0.502   1.367  0.00  0.00    +0.000 A 
ENDBRANCH   1  17
TORSDOF 1
