REMARK  Name = *****
REMARK  2 active torsions:
REMARK  status: ('A' for Active; 'I' for Inactive)
REMARK    1  A    between atoms: C_9  and  C_12
REMARK    2  A    between atoms: C_9  and  O_19
REMARK                            x       y       z     vdW  Elec       q    Type
REMARK                         _______ _______ _______ _____ _____    ______ ____
ROOT
ATOM      1  C   UNL     1      -2.509  -0.824  -0.026  0.00  0.00    +0.000 A 
ATOM      2  C   UNL     1      -2.541   0.569  -0.058  0.00  0.00    +0.000 A 
ATOM      3  C   UNL     1      -1.352   1.294   0.011  0.00  0.00    +0.000 A 
ATOM      4  C   UNL     1      -0.130   0.617   0.107  0.00  0.00    +0.000 A 
ATOM      5  C   UNL     1      -0.087  -0.784   0.144  0.00  0.00    +0.000 A 
ATOM      6  C   UNL     1      -1.289  -1.498   0.078  0.00  0.00    +0.000 A 
ATOM      7  C   UNL     1       1.181  -1.500   0.281  0.00  0.00    +0.000 C 
ATOM      8  C   UNL     1       2.345  -0.842   0.210  0.00  0.00    +0.000 C 
ATOM      9  C   UNL     1       2.469   0.637  -0.021  0.00  0.00    +0.000 C 
ATOM     10  C   UNL     1       1.133   1.393   0.180  0.00  0.00    +0.000 C 
ATOM     11  O   UNL     1       1.101   2.606   0.403  0.00  0.00    +0.000 OA
ENDROOT
BRANCH   9  12
ATOM     12  C   UNL     1       3.084   0.932  -1.394  0.00  0.00    +0.000 A 
ATOM     13  C   UNL     1       2.338   0.728  -2.573  0.00  0.00    +0.000 A 
ATOM     14  C   UNL     1       2.894   0.982  -3.830  0.00  0.00    +0.000 A 
ATOM     15  C   UNL     1       4.206   1.437  -3.930  0.00  0.00    +0.000 A 
ATOM     16  C   UNL     1       4.968   1.633  -2.783  0.00  0.00    +0.000 A 
ATOM     17  C   UNL     1       4.412   1.378  -1.525  0.00  0.00    +0.000 A 
ATOM     18 CL   UNL     1       4.889   1.748  -5.477  0.00  0.00    +0.000 Cl
ENDBRANCH   9  12
BRANCH   9  19
ATOM     19  O   UNL     1       3.336   1.124   1.015  0.00  0.00    +0.000 OA
ATOM     20  H   UNL     1       2.942   0.935   1.881  0.00  0.00    +0.000 HD
ENDBRANCH   9  19
TORSDOF 2
