REMARK  Name = *****
REMARK  3 active torsions:
REMARK  status: ('A' for Active; 'I' for Inactive)
REMARK    1  A    between atoms: C_3  and  C_8
REMARK    2  A    between atoms: C_8  and  O_9
REMARK    3  A    between atoms: O_9  and  C_10
REMARK                            x       y       z     vdW  Elec       q    Type
REMARK                         _______ _______ _______ _____ _____    ______ ____
ROOT
ATOM      1  C   UNL     1       2.336   4.949   0.366  0.00  0.00    +0.000 A 
ATOM      2  C   UNL     1       3.335   5.306  -0.541  0.00  0.00    +0.000 A 
ATOM      3  C   UNL     1       3.616   6.653  -0.761  0.00  0.00    +0.000 A 
ATOM      4  C   UNL     1       2.923   7.661  -0.098  0.00  0.00    +0.000 A 
ATOM      5  C   UNL     1       1.922   7.303   0.806  0.00  0.00    +0.000 A 
ATOM      6  C   UNL     1       1.630   5.952   1.037  0.00  0.00    +0.000 A 
ATOM      7  C   UNL     1       3.262   9.047  -0.370  0.00  0.00    +0.000 A 
ATOM      8  C   UNL     1       4.232   9.325  -1.247  0.00  0.00    +0.000 A 
ATOM      9  C   UNL     1       4.981   8.275  -1.960  0.00  0.00    +0.000 A 
ATOM     10  O   UNL     1       5.865   8.570  -2.755  0.00  0.00    +0.000 OA
ATOM     11  O   UNL     1       4.636   6.959  -1.684  0.00  0.00    +0.000 OA
ENDROOT
BRANCH   1  12
ATOM     12  O   UNL     1       2.147   3.602   0.502  0.00  0.00    +0.000 OA
BRANCH  12  13
ATOM     13  C   UNL     1       1.174   3.170   1.453  0.00  0.00    +0.000 C 
BRANCH  13  16
ATOM     14  C   UNL     1       2.356  -0.457   1.683  0.00  0.00    +0.000 A 
ATOM     15  C   UNL     1       2.366   0.937   1.602  0.00  0.00    +0.000 A 
ATOM     16  C   UNL     1       1.166   1.659   1.505  0.00  0.00    +0.000 A 
ATOM     17  C   UNL     1      -0.048   0.955   1.511  0.00  0.00    +0.000 A 
ATOM     18  C   UNL     1      -0.052  -0.438   1.593  0.00  0.00    +0.000 A 
ATOM     19  C   UNL     1       1.145  -1.147   1.678  0.00  0.00    +0.000 A 
ATOM     20 CL   UNL     1      -1.549  -1.288   1.596  0.00  0.00    +0.000 Cl
ENDBRANCH  13  16
ENDBRANCH  12  13
ENDBRANCH   1  12
TORSDOF 3
