REMARK  Name = *****
REMARK  3 active torsions:
REMARK  status: ('A' for Active; 'I' for Inactive)
REMARK    1  A    between atoms: C_3  and  C_8
REMARK    2  A    between atoms: C_8  and  O_9
REMARK    3  A    between atoms: O_9  and  C_10
REMARK                            x       y       z     vdW  Elec       q    Type
REMARK                         _______ _______ _______ _____ _____    ______ ____
ROOT
ATOM      1  C   UNL     1       2.181   4.846   0.144  0.00  0.00    +0.000 A 
ATOM      2  C   UNL     1       1.403   5.835   0.753  0.00  0.00    +0.000 A 
ATOM      3  C   UNL     1       1.871   7.140   0.772  0.00  0.00    +0.000 A 
ATOM      4  C   UNL     1       3.085   7.478   0.190  0.00  0.00    +0.000 A 
ATOM      5  C   UNL     1       3.864   6.514  -0.427  0.00  0.00    +0.000 A 
ATOM      6  C   UNL     1       3.407   5.189  -0.448  0.00  0.00    +0.000 A 
ATOM      7  S   UNL     1       3.406   9.188   0.373  0.00  0.00    +0.000 S 
ATOM      8  C   UNL     1       1.868   9.335   1.238  0.00  0.00    +0.000 A 
ATOM      9  O   UNL     1       1.480  10.407   1.682  0.00  0.00    +0.000 OA
ATOM     10  O   UNL     1       1.138   8.156   1.379  0.00  0.00    +0.000 OA
ENDROOT
BRANCH   1  11
ATOM     11  O   UNL     1       1.633   3.593   0.179  0.00  0.00    +0.000 OA
BRANCH  11  12
ATOM     12  C   UNL     1       2.466   2.508  -0.223  0.00  0.00    +0.000 C 
BRANCH  12  15
ATOM     13  C   UNL     1      -0.056  -0.264  -0.921  0.00  0.00    +0.000 A 
ATOM     14  C   UNL     1       0.683   0.916  -1.032  0.00  0.00    +0.000 A 
ATOM     15  C   UNL     1       1.674   1.231  -0.090  0.00  0.00    +0.000 A 
ATOM     16  C   UNL     1       1.897   0.353   0.980  0.00  0.00    +0.000 A 
ATOM     17  C   UNL     1       1.155  -0.825   1.086  0.00  0.00    +0.000 A 
ATOM     18  C   UNL     1       0.183  -1.138   0.139  0.00  0.00    +0.000 A 
ATOM     19 CL   UNL     1       1.446  -1.901   2.397  0.00  0.00    +0.000 Cl
ENDBRANCH  12  15
ENDBRANCH  11  12
ENDBRANCH   1  11
TORSDOF 3
