REMARK  Name = *****
REMARK  3 active torsions:
REMARK  status: ('A' for Active; 'I' for Inactive)
REMARK    1  A    between atoms: C_1  and  C_2
REMARK    2  A    between atoms: C_9  and  S_11
REMARK    3  A    between atoms: S_11  and  C_12
REMARK                            x       y       z     vdW  Elec       q    Type
REMARK                         _______ _______ _______ _____ _____    ______ ____
ROOT
ATOM      1  C   UNL     1       1.019  -0.353  -0.429  0.00  0.00    +0.000 C 
ATOM      2  C   UNL     1       2.470  -0.118  -0.123  0.00  0.00    +0.000 A 
ATOM      3  C   UNL     1       2.991   1.183  -0.079  0.00  0.00    +0.000 A 
ATOM      4  C   UNL     1       4.334   1.347   0.217  0.00  0.00    +0.000 A 
ATOM      5  C   UNL     1       5.146   0.256   0.478  0.00  0.00    +0.000 A 
ATOM      6  C   UNL     1       4.662  -1.034   0.453  0.00  0.00    +0.000 A 
ATOM      7  C   UNL     1       3.312  -1.220   0.143  0.00  0.00    +0.000 A 
ATOM      8  O   UNL     1       6.437   0.592   0.788  0.00  0.00    +0.000 OA
ATOM      9  C   UNL     1       6.534   1.989   0.408  0.00  0.00    +0.000 C 
ATOM     10  C   UNL     1       5.116   2.591   0.405  0.00  0.00    +0.000 C 
ENDROOT
BRANCH   9  11
ATOM     11  S   UNL     1       7.618   2.948   1.523  0.00  0.00    +0.000 S 
BRANCH  11  12
ATOM     12  C   UNL     1       9.221   2.170   1.365  0.00  0.00    +0.000 A 
ATOM     13  C   UNL     1       9.553   1.179   0.436  0.00  0.00    +0.000 A 
ATOM     14  C   UNL     1      10.848   0.648   0.391  0.00  0.00    +0.000 A 
ATOM     15  C   UNL     1      11.825   1.103   1.272  0.00  0.00    +0.000 A 
ATOM     16  C   UNL     1      11.511   2.089   2.200  0.00  0.00    +0.000 A 
ATOM     17  C   UNL     1      10.218   2.618   2.244  0.00  0.00    +0.000 A 
ENDBRANCH  11  12
ENDBRANCH   9  11
TORSDOF 2
