REMARK  Name = *****
REMARK  4 active torsions:
REMARK  status: ('A' for Active; 'I' for Inactive)
REMARK    1  A    between atoms: N_3  and  N_18
REMARK    2  A    between atoms: C_7  and  O_10
REMARK    3  A    between atoms: O_10  and  C_11
REMARK    4  A    between atoms: C_11  and  C_12
REMARK                            x       y       z     vdW  Elec       q    Type
REMARK                         _______ _______ _______ _____ _____    ______ ____
ROOT
ATOM      1  C   UNL     1       1.727  -1.185   0.024  0.00  0.00    +0.000 C 
ATOM      2  C   UNL     1       2.459   0.075   0.520  0.00  0.00    +0.000 C 
ATOM      3  N   UNL     1       1.623   1.245   0.200  0.00  0.00    +0.000 N 
ATOM      4  C   UNL     1       0.333   0.716  -0.046  0.00  0.00    +0.000 A 
ATOM      5  C   UNL     1       0.333  -0.679  -0.130  0.00  0.00    +0.000 A 
ATOM      6  C   UNL     1      -0.824  -1.406  -0.381  0.00  0.00    +0.000 A 
ATOM      7  C   UNL     1      -2.022  -0.708  -0.542  0.00  0.00    +0.000 A 
ATOM      8  C   UNL     1      -2.028   0.695  -0.457  0.00  0.00    +0.000 A 
ATOM      9  C   UNL     1      -0.852   1.414  -0.213  0.00  0.00    +0.000 A 
ENDROOT
BRANCH   3  10
ATOM     10  N   UNL     1       1.884   2.541   0.417  0.00  0.00    +0.000 NA
ATOM     11  O   UNL     1       3.055   2.745   0.755  0.00  0.00    +0.000 OA
ENDBRANCH   3  10
BRANCH   7  12
ATOM     12  O   UNL     1      -3.247  -1.261  -0.791  0.00  0.00    +0.000 OA
BRANCH  12  13
ATOM     13  C   UNL     1      -3.311  -2.681  -0.900  0.00  0.00    +0.000 C 
BRANCH  13  14
ATOM     14  C   UNL     1      -4.743  -3.069  -1.174  0.00  0.00    +0.000 A 
ATOM     15  C   UNL     1      -5.179  -3.315  -2.484  0.00  0.00    +0.000 A 
ATOM     16  C   UNL     1      -6.508  -3.662  -2.734  0.00  0.00    +0.000 A 
ATOM     17  C   UNL     1      -7.414  -3.759  -1.680  0.00  0.00    +0.000 A 
ATOM     18  C   UNL     1      -6.996  -3.502  -0.376  0.00  0.00    +0.000 A 
ATOM     19  C   UNL     1      -5.667  -3.155  -0.124  0.00  0.00    +0.000 A 
ENDBRANCH  13  14
ENDBRANCH  12  13
ENDBRANCH   7  12
TORSDOF 4
