REMARK  Name = *****
REMARK  2 active torsions:
REMARK  status: ('A' for Active; 'I' for Inactive)
REMARK    1  A    between atoms: C_1  and  C_2
REMARK    2  A    between atoms: C_9  and  C_15
REMARK                            x       y       z     vdW  Elec       q    Type
REMARK                         _______ _______ _______ _____ _____    ______ ____
ROOT
ATOM      1  C   UNL     1       0.953  -0.037   0.347  0.00  0.00    +0.000 C 
ATOM      2  C   UNL     1       2.445  -0.014   0.182  0.00  0.00    +0.000 A 
ATOM      3  C   UNL     1       3.149   1.194   0.258  0.00  0.00    +0.000 A 
ATOM      4  C   UNL     1       4.543   1.200   0.138  0.00  0.00    +0.000 A 
ATOM      5  C   UNL     1       5.242   0.012  -0.068  0.00  0.00    +0.000 A 
ATOM      6  C   UNL     1       4.548  -1.195  -0.112  0.00  0.00    +0.000 A 
ATOM      7  C   UNL     1       3.157  -1.209   0.015  0.00  0.00    +0.000 A 
ATOM      8  O   UNL     1       6.599  -0.064  -0.226  0.00  0.00    +0.000 OA
ATOM      9  C   UNL     1       7.254   1.184  -0.565  0.00  0.00    +0.000 C 
ATOM     10  C   UNL     1       6.793   2.302   0.392  0.00  0.00    +0.000 C 
ATOM     11  C   UNL     1       5.299   2.459   0.247  0.00  0.00    +0.000 C 
ATOM     12  O   UNL     1       4.707   3.536   0.252  0.00  0.00    +0.000 OA
ATOM     13  F   UNL     1       7.107   1.964   1.682  0.00  0.00    +0.000 F 
ATOM     14  F   UNL     1       7.472   3.462   0.151  0.00  0.00    +0.000 F 
ATOM     15  F   UNL     1       8.582   0.950  -0.294  0.00  0.00    +0.000 F 
ENDROOT
BRANCH   9  16
ATOM     16  C   UNL     1       7.108   1.426  -2.075  0.00  0.00    +0.000 A 
ATOM     17  C   UNL     1       6.776   2.670  -2.637  0.00  0.00    +0.000 A 
ATOM     18  C   UNL     1       6.663   2.823  -4.023  0.00  0.00    +0.000 A 
ATOM     19  C   UNL     1       6.894   1.744  -4.871  0.00  0.00    +0.000 A 
ATOM     20  C   UNL     1       7.248   0.509  -4.338  0.00  0.00    +0.000 A 
ATOM     21  C   UNL     1       7.361   0.354  -2.956  0.00  0.00    +0.000 A 
ENDBRANCH   9  16
TORSDOF 1
