REMARK  Name = *****
REMARK  1 active torsions:
REMARK  status: ('A' for Active; 'I' for Inactive)
REMARK    1  A    between atoms: C_2  and  C_12
REMARK                            x       y       z     vdW  Elec       q    Type
REMARK                         _______ _______ _______ _____ _____    ______ ____
ROOT
ATOM      1  C   UNL     1      -2.299   0.266  -0.429  0.00  0.00    +0.000 C 
ATOM      2  C   UNL     1      -1.794   1.420   0.431  0.00  0.00    +0.000 C 
ATOM      3  O   UNL     1      -0.478   1.829   0.005  0.00  0.00    +0.000 OA
ATOM      4  C   UNL     1       0.435   0.809  -0.052  0.00  0.00    +0.000 A 
ATOM      5  C   UNL     1       1.780   1.170   0.023  0.00  0.00    +0.000 A 
ATOM      6  C   UNL     1       2.770   0.186  -0.015  0.00  0.00    +0.000 A 
ATOM      7  C   UNL     1       2.418  -1.159  -0.139  0.00  0.00    +0.000 A 
ATOM      8  C   UNL     1       1.074  -1.523  -0.235  0.00  0.00    +0.000 A 
ATOM      9  C   UNL     1       0.088  -0.533  -0.198  0.00  0.00    +0.000 A 
ATOM     10  C   UNL     1      -1.335  -0.884  -0.355  0.00  0.00    +0.000 C 
ATOM     11  O   UNL     1      -1.694  -2.050  -0.481  0.00  0.00    +0.000 OA
ENDROOT
BRANCH   2  12
ATOM     12  C   UNL     1      -1.845   1.279   1.950  0.00  0.00    +0.000 A 
ATOM     13  C   UNL     1      -2.393   0.166   2.607  0.00  0.00    +0.000 A 
ATOM     14  C   UNL     1      -2.417   0.109   4.004  0.00  0.00    +0.000 A 
ATOM     15  C   UNL     1      -1.907   1.154   4.769  0.00  0.00    +0.000 A 
ATOM     16  C   UNL     1      -1.369   2.269   4.135  0.00  0.00    +0.000 A 
ATOM     17  C   UNL     1      -1.341   2.332   2.740  0.00  0.00    +0.000 A 
ATOM     18 CL   UNL     1      -3.089  -1.269   4.788  0.00  0.00    +0.000 Cl
ENDBRANCH   2  12
TORSDOF 1
