REMARK  Name = *****
REMARK  3 active torsions:
REMARK  status: ('A' for Active; 'I' for Inactive)
REMARK    1  A    between atoms: C_1  and  C_2
REMARK    2  A    between atoms: C_3  and  C_13
REMARK    3  A    between atoms: N_11  and  C_12
REMARK                            x       y       z     vdW  Elec       q    Type
REMARK                         _______ _______ _______ _____ _____    ______ ____
ROOT
ATOM      1  C   UNL     1       1.137   0.368   0.047  0.00  0.00    +0.000 C 
ATOM      2  C   UNL     1       2.659   0.276   0.146  0.00  0.00    +0.000 C 
ATOM      3  C   UNL     1       3.174  -0.786   1.156  0.00  0.00    +0.000 C 
ATOM      4  O   UNL     1       4.608  -0.929   1.098  0.00  0.00    +0.000 OA
ATOM      5  C   UNL     1       5.302   0.223   0.817  0.00  0.00    +0.000 A 
ATOM      6  C   UNL     1       6.692   0.106   0.926  0.00  0.00    +0.000 A 
ATOM      7  C   UNL     1       7.510   1.212   0.708  0.00  0.00    +0.000 A 
ATOM      8  C   UNL     1       6.939   2.436   0.374  0.00  0.00    +0.000 A 
ATOM      9  C   UNL     1       5.551   2.552   0.258  0.00  0.00    +0.000 A 
ATOM     10  C   UNL     1       4.704   1.453   0.479  0.00  0.00    +0.000 A 
ATOM     11  N   UNL     1       3.304   1.598   0.316  0.00  0.00    +0.000 N 
ATOM     12  C   UNL     1       2.709   2.578   1.226  0.00  0.00    +0.000 C 
ENDROOT
BRANCH   3  13
ATOM     13  C   UNL     1       2.676  -0.703   2.597  0.00  0.00    +0.000 A 
ATOM     14  C   UNL     1       1.436  -1.272   2.939  0.00  0.00    +0.000 A 
ATOM     15  C   UNL     1       0.952  -1.214   4.248  0.00  0.00    +0.000 A 
ATOM     16  C   UNL     1       1.703  -0.592   5.241  0.00  0.00    +0.000 A 
ATOM     17  C   UNL     1       2.939  -0.034   4.926  0.00  0.00    +0.000 A 
ATOM     18  C   UNL     1       3.422  -0.092   3.617  0.00  0.00    +0.000 A 
ENDBRANCH   3  13
TORSDOF 1
