@<TRIPOS>MOLECULE
control_3
 36 36 0 0 0
SMALL
GASTEIGER

@<TRIPOS>ATOM
      1 N          89.9020   71.2360   85.4060 N.pl3   1  UNL1       -0.3557
      2 N          89.0870   64.1130   87.6060 N.4     1  UNL1        0.2328
      3 C          89.5740   65.4780   85.5470 C.3     1  UNL1        0.1198
      4 C          89.6190   66.9920   85.4950 C.ar    1  UNL1       -0.0112
      5 C          89.8960   67.6680   84.2970 C.ar    1  UNL1       -0.0357
      6 C          89.9550   69.0660   84.2640 C.ar    1  UNL1        0.0633
      7 C          89.7020   69.8370   85.4120 C.ar    1  UNL1        0.0617
      8 C          89.4680   69.1460   86.6160 C.ar    1  UNL1        0.0633
      9 C          89.4100   67.7480   86.6550 C.ar    1  UNL1       -0.0357
     10 C          88.5050   64.9170   86.5210 C.3     1  UNL1       -0.0023
     11 C          89.0620   63.7290   90.0730 C.3     1  UNL1       -0.0193
     12 C          88.2320   63.9130   88.7910 C.3     1  UNL1       -0.0203
     13 C          87.2680   62.7290   88.6140 C.3     1  UNL1       -0.0193
     14 C          87.3960   65.2000   88.9340 C.3     1  UNL1       -0.0193
     15 O          90.8630   64.9980   85.9400 O.3     1  UNL1       -0.3819
     16 CL         89.2110   70.0110   88.0940 Cl      1  UNL1       -0.0816
     17 CL         90.3220   69.8270   82.7530 Cl      1  UNL1       -0.0816
     18 H          90.0646   71.7064   84.5566 H       1  UNL1        0.1424
     19 H          89.8787   71.7402   86.2513 H       1  UNL1        0.1424
     20 H          89.9428   64.5754   87.9128 H       1  UNL1        0.2020
     21 H          89.2337   63.1836   87.2121 H       1  UNL1        0.2020
     22 H          89.3020   65.1383   84.5695 H       1  UNL1        0.0698
     23 H          90.0578   67.1292   83.4318 H       1  UNL1        0.0636
     24 H          89.2112   67.2697   87.5476 H       1  UNL1        0.0636
     25 H          87.8266   64.3027   85.9667 H       1  UNL1        0.0843
     26 H          88.0090   65.7521   86.9699 H       1  UNL1        0.0843
     27 H          89.6502   62.8388   89.9924 H       1  UNL1        0.0287
     28 H          88.4057   63.6479   90.9142 H       1  UNL1        0.0287
     29 H          89.7074   64.5723   90.2042 H       1  UNL1        0.0287
     30 H          86.6955   62.8657   87.7205 H       1  UNL1        0.0287
     31 H          86.6090   62.6767   89.4554 H       1  UNL1        0.0287
     32 H          87.8284   61.8203   88.5429 H       1  UNL1        0.0287
     33 H          86.8107   65.3452   88.0501 H       1  UNL1        0.0287
     34 H          88.0493   66.0363   89.0706 H       1  UNL1        0.0287
     35 H          86.7476   65.1119   89.7806 H       1  UNL1        0.0287
     36 H          91.0732   65.3261   86.8283 H       1  UNL1        0.2105
@<TRIPOS>BOND
     1     1     7    1
     2     1    18    1
     3     1    19    1
     4     2    10    1
     5     2    12    1
     6     2    20    1
     7     2    21    1
     8     3     4    1
     9     3    15    1
    10     3    10    1
    11     3    22    1
    12     4     5   ar
    13     4     9   ar
    14     5     6   ar
    15     5    23    1
    16     6    17    1
    17     6     7   ar
    18     7     8   ar
    19     8     9   ar
    20     8    16    1
    21     9    24    1
    22    10    25    1
    23    10    26    1
    24    11    12    1
    25    11    27    1
    26    11    28    1
    27    11    29    1
    28    12    13    1
    29    12    14    1
    30    13    30    1
    31    13    31    1
    32    13    32    1
    33    14    33    1
    34    14    34    1
    35    14    35    1
    36    15    36    1
