REMARK  Name = *****
REMARK  6 active torsions:
REMARK  status: ('A' for Active; 'I' for Inactive)
REMARK    1  A    between atoms: C_1  and  C_2
REMARK    2  A    between atoms: C_3  and  O_13
REMARK    3  A    between atoms: C_10  and  O_12
REMARK    4  A    between atoms: O_13  and  C_14
REMARK    5  A    between atoms: C_14  and  C_16
REMARK    6  A    between atoms: C_16  and  C_18
REMARK                            x       y       z     vdW  Elec       q    Type
REMARK                         _______ _______ _______ _____ _____    ______ ____
ROOT
ATOM      1  C   UNL     1       0.924  -0.659   0.877  0.00  0.00    +0.000 C 
ATOM      2  C   UNL     1       2.363  -0.416   0.532  0.00  0.00    +0.000 A 
ATOM      3  C   UNL     1       2.918   0.872   0.522  0.00  0.00    +0.000 A 
ATOM      4  C   UNL     1       4.278   1.120   0.209  0.00  0.00    +0.000 A 
ATOM      5  C   UNL     1       4.839   2.417   0.247  0.00  0.00    +0.000 A 
ATOM      6  C   UNL     1       6.173   2.646  -0.085  0.00  0.00    +0.000 A 
ATOM      7  C   UNL     1       6.977   1.584  -0.469  0.00  0.00    +0.000 A 
ATOM      8  C   UNL     1       6.449   0.292  -0.507  0.00  0.00    +0.000 A 
ATOM      9  C   UNL     1       5.101   0.026  -0.158  0.00  0.00    +0.000 A 
ATOM     10  C   UNL     1       4.523  -1.267  -0.162  0.00  0.00    +0.000 A 
ATOM     11  C   UNL     1       3.182  -1.482   0.164  0.00  0.00    +0.000 A 
ENDROOT
BRANCH  10  12
ATOM     12  O   UNL     1       5.225  -2.405  -0.467  0.00  0.00    +0.000 OA
ATOM     13  H   UNL     1       6.132  -2.348  -0.697  0.00  0.00    +0.000 HD
ENDBRANCH  10  12
BRANCH   3  14
ATOM     14  O   UNL     1       2.102   1.950   0.913  0.00  0.00    +0.000 OA
BRANCH  14  15
ATOM     15  C   UNL     1       1.389   2.510  -0.133  0.00  0.00    +0.000 C 
ATOM     16  O   UNL     1       1.396   2.154  -1.303  0.00  0.00    +0.000 OA
BRANCH  15  17
ATOM     17  C   UNL     1       0.556   3.655   0.354  0.00  0.00    +0.000 C 
ATOM     18  C   UNL     1       0.568   4.078   1.631  0.00  0.00    +0.000 C 
ATOM     19  C   UNL     1      -0.298   4.303  -0.695  0.00  0.00    +0.000 C 
ENDBRANCH  15  17
ENDBRANCH  14  15
ENDBRANCH   3  14
TORSDOF 4
