REMARK  Name = *****
REMARK  3 active torsions:
REMARK  status: ('A' for Active; 'I' for Inactive)
REMARK    1  A    between atoms: C_1  and  C_2
REMARK    2  A    between atoms: N_4  and  C_5
REMARK    3  A    between atoms: C_8  and  N_15
REMARK                            x       y       z     vdW  Elec       q    Type
REMARK                         _______ _______ _______ _____ _____    ______ ____
ROOT
ATOM      1  C   UNL     1       4.838  -0.427  -0.944  0.00  0.00    +0.000 A 
ATOM      2  C   UNL     1       5.583  -0.590   0.233  0.00  0.00    +0.000 A 
ATOM      3  C   UNL     1       6.970  -0.657   0.199  0.00  0.00    +0.000 A 
ATOM      4  C   UNL     1       7.622  -0.557  -1.028  0.00  0.00    +0.000 A 
ATOM      5  C   UNL     1       6.935  -0.401  -2.256  0.00  0.00    +0.000 A 
ATOM      6  C   UNL     1       7.594  -0.321  -3.513  0.00  0.00    +0.000 A 
ATOM      7  C   UNL     1       6.894  -0.169  -4.706  0.00  0.00    +0.000 A 
ATOM      8  C   UNL     1       5.515  -0.095  -4.678  0.00  0.00    +0.000 A 
ATOM      9  C   UNL     1       4.839  -0.176  -3.458  0.00  0.00    +0.000 A 
ATOM     10  C   UNL     1       5.511  -0.333  -2.214  0.00  0.00    +0.000 A 
ENDROOT
BRANCH   1  14
ATOM     11  C   UNL     1       1.131  -0.313  -0.166  0.00  0.00    +0.000 C 
ATOM     12  C   UNL     1       2.588  -0.427   0.209  0.00  0.00    +0.000 C 
ATOM     13  O   UNL     1       2.919  -0.592   1.377  0.00  0.00    +0.000 OA
ATOM     14  N   UNL     1       3.418  -0.355  -0.897  0.00  0.00    +0.000 N 
ATOM     15  H   UNL     1       2.967  -0.238  -1.764  0.00  0.00    +0.000 HD
ENDBRANCH   1  14
BRANCH   4  16
ATOM     16  N   UNL     1       9.072  -0.622  -0.991  0.00  0.00    +0.000 N 
ATOM     17  O   UNL     1       9.577  -1.693  -0.630  0.00  0.00    +0.000 OA
ATOM     18  O   UNL     1       9.695   0.403  -1.300  0.00  0.00    +0.000 OA
ENDBRANCH   4  16
TORSDOF 2
