REMARK  Name = *****
REMARK  2 active torsions:
REMARK  status: ('A' for Active; 'I' for Inactive)
REMARK    1  A    between atoms: C_10  and  S_11
REMARK    2  A    between atoms: S_11  and  C_13
REMARK                            x       y       z     vdW  Elec       q    Type
REMARK                         _______ _______ _______ _____ _____    ______ ____
ROOT
ATOM      1  C   UNL     1       2.431  -0.775  -0.118  0.00  0.00    +0.000 A 
ATOM      2  C   UNL     1       2.489   0.610  -0.093  0.00  0.00    +0.000 A 
ATOM      3  C   UNL     1       1.309   1.357  -0.043  0.00  0.00    +0.000 A 
ATOM      4  C   UNL     1       0.029   0.747  -0.015  0.00  0.00    +0.000 A 
ATOM      5  C   UNL     1      -0.002  -0.674  -0.036  0.00  0.00    +0.000 A 
ATOM      6  C   UNL     1       1.193  -1.411  -0.088  0.00  0.00    +0.000 A 
ATOM      7  C   UNL     1      -1.227  -1.356  -0.005  0.00  0.00    +0.000 A 
ATOM      8  C   UNL     1      -2.433  -0.665   0.047  0.00  0.00    +0.000 A 
ATOM      9  C   UNL     1      -2.427   0.724   0.063  0.00  0.00    +0.000 A 
ATOM     10  C   UNL     1      -1.218   1.441   0.027  0.00  0.00    +0.000 A 
ENDROOT
BRANCH  10  11
ATOM     11  S   UNL     1      -1.401   3.252   0.017  0.00  0.00    +0.000 S 
ATOM     12  O   UNL     1      -0.270   3.815   0.826  0.00  0.00    +0.000 OA
BRANCH  11  13
ATOM     13  C   UNL     1      -1.043   3.531  -1.739  0.00  0.00    +0.000 C 
ATOM     14 CL   UNL     1      -2.405   3.093  -2.790  0.00  0.00    +0.000 Cl
ENDBRANCH  11  13
ENDBRANCH  10  11
TORSDOF 2
