REMARK  Name = *****
REMARK  4 active torsions:
REMARK  status: ('A' for Active; 'I' for Inactive)
REMARK    1  A    between atoms: C_1  and  N_2
REMARK    2  A    between atoms: N_2  and  C_3
REMARK    3  A    between atoms: N_2  and  S_4
REMARK    4  A    between atoms: S_4  and  C_7
REMARK                            x       y       z     vdW  Elec       q    Type
REMARK                         _______ _______ _______ _____ _____    ______ ____
ROOT
ATOM      1  C   UNL     1       4.891  -1.342   0.958  0.00  0.00    +0.000 A 
ATOM      2  C   UNL     1       5.577  -1.876  -0.175  0.00  0.00    +0.000 A 
ATOM      3  C   UNL     1       5.115  -2.453  -1.391  0.00  0.00    +0.000 A 
ATOM      4  C   UNL     1       6.014  -2.905  -2.381  0.00  0.00    +0.000 A 
ATOM      5  C   UNL     1       7.404  -2.809  -2.218  0.00  0.00    +0.000 A 
ATOM      6  C   UNL     1       7.853  -2.250  -1.026  0.00  0.00    +0.000 A 
ATOM      7  C   UNL     1       6.938  -1.818  -0.077  0.00  0.00    +0.000 A 
ATOM      8  C   UNL     1       7.642  -1.320   0.998  0.00  0.00    +0.000 A 
ATOM      9  C   UNL     1       7.012  -0.821   2.119  0.00  0.00    +0.000 A 
ATOM     10  C   UNL     1       5.607  -0.844   2.083  0.00  0.00    +0.000 A 
ATOM     11  N   UNL     1       8.987  -1.444   0.706  0.00  0.00    +0.000 N 
ATOM     12  C   UNL     1       9.203  -2.020  -0.551  0.00  0.00    +0.000 C 
ATOM     13  O   UNL     1      10.303  -2.234  -1.041  0.00  0.00    +0.000 OA
ATOM     14  H   UNL     1       9.709  -1.159   1.312  0.00  0.00    +0.000 HD
ENDROOT
BRANCH   1  15
ATOM     15  S   UNL     1       3.107  -1.316   1.061  0.00  0.00    +0.000 S 
ATOM     16  O   UNL     1       2.764  -1.234   2.466  0.00  0.00    +0.000 OA
ATOM     17  O   UNL     1       2.577  -2.386   0.244  0.00  0.00    +0.000 OA
BRANCH  15  19
ATOM     18  C   UNL     1       3.066   1.395   1.072  0.00  0.00    +0.000 C 
ATOM     19  N   UNL     1       2.693   0.171   0.343  0.00  0.00    +0.000 NA
ATOM     20  C   UNL     1       2.859   0.291  -1.114  0.00  0.00    +0.000 C 
ENDBRANCH  15  19
ENDBRANCH   1  15
TORSDOF 2
