REMARK  Name = *****
REMARK  3 active torsions:
REMARK  status: ('A' for Active; 'I' for Inactive)
REMARK    1  A    between atoms: N_4  and  S_6
REMARK    2  A    between atoms: S_6  and  C_9
REMARK    3  A    between atoms: C_12  and  O_19
REMARK                            x       y       z     vdW  Elec       q    Type
REMARK                         _______ _______ _______ _____ _____    ______ ____
ROOT
ATOM      1  C   UNL     1      -3.047  -0.451   2.201  0.00  0.00    +0.000 A 
ATOM      2  C   UNL     1      -3.122  -1.841   2.061  0.00  0.00    +0.000 A 
ATOM      3  C   UNL     1      -4.364  -2.448   2.012  0.00  0.00    +0.000 A 
ATOM      4  C   UNL     1      -5.526  -1.678   2.102  0.00  0.00    +0.000 A 
ATOM      5  C   UNL     1      -5.483  -0.285   2.250  0.00  0.00    +0.000 A 
ATOM      6  C   UNL     1      -4.219   0.353   2.307  0.00  0.00    +0.000 A 
ATOM      7  C   UNL     1      -4.236   1.761   2.466  0.00  0.00    +0.000 A 
ATOM      8  C   UNL     1      -5.430   2.464   2.556  0.00  0.00    +0.000 A 
ATOM      9  C   UNL     1      -6.600   1.747   2.485  0.00  0.00    +0.000 A 
ATOM     10  N   UNL     1      -6.639   0.410   2.333  0.00  0.00    +0.000 NA
ATOM     11 CL   UNL     1      -4.456  -4.161   1.829  0.00  0.00    +0.000 Cl
ENDROOT
BRANCH   1  12
ATOM     12  S   UNL     1      -1.417   0.266   2.240  0.00  0.00    +0.000 S 
ATOM     13  O   UNL     1      -0.451  -0.780   1.974  0.00  0.00    +0.000 OA
ATOM     14  O   UNL     1      -1.319   1.077   3.434  0.00  0.00    +0.000 OA
BRANCH  12  18
ATOM     15  C   UNL     1      -0.117   2.528  -0.661  0.00  0.00    +0.000 C 
ATOM     16  C   UNL     1      -0.409   1.179  -1.284  0.00  0.00    +0.000 C 
ATOM     17  C   UNL     1      -1.574   0.658  -0.453  0.00  0.00    +0.000 C 
ATOM     18  N   UNL     1      -1.417   1.290   0.887  0.00  0.00    +0.000 NA
ATOM     19  C   UNL     1      -0.271   2.235   0.822  0.00  0.00    +0.000 C 
ENDBRANCH  12  18
ENDBRANCH   1  12
BRANCH   4  20
ATOM     20  O   UNL     1      -6.757  -2.302   2.043  0.00  0.00    +0.000 OA
ATOM     21  H   UNL     1      -6.807  -3.232   1.944  0.00  0.00    +0.000 HD
ENDBRANCH   4  20
TORSDOF 3
