REMARK  Name = *****
REMARK  4 active torsions:
REMARK  status: ('A' for Active; 'I' for Inactive)
REMARK    1  A    between atoms: C_1  and  C_2
REMARK    2  A    between atoms: C_2  and  N_3
REMARK    3  A    between atoms: N_3  and  S_4
REMARK    4  A    between atoms: S_4  and  C_7
REMARK                            x       y       z     vdW  Elec       q    Type
REMARK                         _______ _______ _______ _____ _____    ______ ____
ROOT
ATOM      1  C   UNL     1       5.285  -1.667   2.420  0.00  0.00    +0.000 A 
ATOM      2  C   UNL     1       5.056  -3.074   2.426  0.00  0.00    +0.000 A 
ATOM      3  C   UNL     1       4.467  -3.942   1.468  0.00  0.00    +0.000 A 
ATOM      4  C   UNL     1       4.358  -5.329   1.709  0.00  0.00    +0.000 A 
ATOM      5  C   UNL     1       4.821  -5.914   2.898  0.00  0.00    +0.000 A 
ATOM      6  C   UNL     1       5.392  -5.057   3.834  0.00  0.00    +0.000 A 
ATOM      7  C   UNL     1       5.481  -3.701   3.561  0.00  0.00    +0.000 A 
ATOM      8  C   UNL     1       6.074  -3.082   4.640  0.00  0.00    +0.000 A 
ATOM      9  C   UNL     1       6.298  -1.720   4.671  0.00  0.00    +0.000 A 
ATOM     10  C   UNL     1       5.887  -1.012   3.527  0.00  0.00    +0.000 A 
ATOM     11  N   UNL     1       6.350  -4.061   5.576  0.00  0.00    +0.000 N 
ATOM     12  C   UNL     1       5.949  -5.333   5.144  0.00  0.00    +0.000 C 
ATOM     13  O   UNL     1       6.084  -6.363   5.787  0.00  0.00    +0.000 OA
ATOM     14  H   UNL     1       6.778  -3.886   6.445  0.00  0.00    +0.000 HD
ENDROOT
BRANCH   1  15
ATOM     15  S   UNL     1       4.817  -0.680   1.015  0.00  0.00    +0.000 S 
ATOM     16  O   UNL     1       5.088   0.706   1.328  0.00  0.00    +0.000 OA
ATOM     17  O   UNL     1       3.511  -1.114   0.574  0.00  0.00    +0.000 OA
BRANCH  15  18
ATOM     18  N   UNL     1       5.920  -1.161  -0.158  0.00  0.00    +0.000 NA
ATOM     19  H   UNL     1       5.808  -2.167  -0.277  0.00  0.00    +0.000 HD
BRANCH  18  21
ATOM     20  C   UNL     1       8.104  -1.250  -1.215  0.00  0.00    +0.000 C 
ATOM     21  C   UNL     1       7.346  -0.912   0.056  0.00  0.00    +0.000 C 
ENDBRANCH  18  21
ENDBRANCH  15  18
ENDBRANCH   1  15
TORSDOF 3
