REMARK  Name = *****
REMARK  5 active torsions:
REMARK  status: ('A' for Active; 'I' for Inactive)
REMARK    1  A    between atoms: C_1  and  N_2
REMARK    2  A    between atoms: N_2  and  C_3
REMARK    3  A    between atoms: N_2  and  C_4
REMARK    4  A    between atoms: C_13  and  S_14
REMARK    5  A    between atoms: S_14  and  N_17
REMARK                            x       y       z     vdW  Elec       q    Type
REMARK                         _______ _______ _______ _____ _____    ______ ____
ROOT
ATOM      1  C   UNL     1       3.277  -1.082   0.068  0.00  0.00    +0.000 A 
ATOM      2  C   UNL     1       2.873  -1.998  -0.913  0.00  0.00    +0.000 A 
ATOM      3  C   UNL     1       3.539  -3.203  -1.070  0.00  0.00    +0.000 A 
ATOM      4  C   UNL     1       4.624  -3.511  -0.250  0.00  0.00    +0.000 A 
ATOM      5  C   UNL     1       5.086  -2.627   0.759  0.00  0.00    +0.000 A 
ATOM      6  C   UNL     1       4.389  -1.394   0.907  0.00  0.00    +0.000 A 
ATOM      7  C   UNL     1       4.815  -0.487   1.904  0.00  0.00    +0.000 A 
ATOM      8  C   UNL     1       5.895  -0.750   2.741  0.00  0.00    +0.000 A 
ATOM      9  C   UNL     1       6.585  -1.943   2.607  0.00  0.00    +0.000 A 
ATOM     10  C   UNL     1       6.187  -2.879   1.637  0.00  0.00    +0.000 A 
ENDROOT
BRANCH   1  12
ATOM     11  C   UNL     1       1.162   0.053   0.372  0.00  0.00    +0.000 C 
ATOM     12  N   UNL     1       2.613   0.167   0.216  0.00  0.00    +0.000 N 
ATOM     13  C   UNL     1       3.038   1.115  -0.819  0.00  0.00    +0.000 C 
ENDBRANCH   1  12
BRANCH  10  14
ATOM     14  S   UNL     1       7.153  -4.378   1.545  0.00  0.00    +0.000 S 
ATOM     15  O   UNL     1       7.445  -4.676   0.157  0.00  0.00    +0.000 OA
ATOM     16  O   UNL     1       8.200  -4.325   2.548  0.00  0.00    +0.000 OA
BRANCH  14  17
ATOM     17  N   UNL     1       6.028  -5.515   2.068  0.00  0.00    +0.000 NA
ATOM     18  O   UNL     1       5.778  -5.451   3.279  0.00  0.00    +0.000 OA
ENDBRANCH  14  17
ENDBRANCH  10  14
TORSDOF 3
