REMARK  Name = *****
REMARK  5 active torsions:
REMARK  status: ('A' for Active; 'I' for Inactive)
REMARK    1  A    between atoms: C_1  and  N_2
REMARK    2  A    between atoms: N_2  and  C_3
REMARK    3  A    between atoms: N_2  and  C_4
REMARK    4  A    between atoms: C_13  and  S_14
REMARK    5  A    between atoms: S_14  and  N_17
REMARK                            x       y       z     vdW  Elec       q    Type
REMARK                         _______ _______ _______ _____ _____    ______ ____
ROOT
ATOM      1  C   UNL     1       3.116  -0.887   0.969  0.00  0.00    +0.000 A 
ATOM      2  C   UNL     1       2.674  -2.192   0.712  0.00  0.00    +0.000 A 
ATOM      3  C   UNL     1       3.264  -3.277   1.344  0.00  0.00    +0.000 A 
ATOM      4  C   UNL     1       4.307  -3.073   2.245  0.00  0.00    +0.000 A 
ATOM      5  C   UNL     1       4.798  -1.779   2.551  0.00  0.00    +0.000 A 
ATOM      6  C   UNL     1       4.186  -0.676   1.891  0.00  0.00    +0.000 A 
ATOM      7  C   UNL     1       4.655   0.627   2.171  0.00  0.00    +0.000 A 
ATOM      8  C   UNL     1       5.699   0.871   3.060  0.00  0.00    +0.000 A 
ATOM      9  C   UNL     1       6.303  -0.193   3.708  0.00  0.00    +0.000 A 
ATOM     10  C   UNL     1       5.858  -1.501   3.467  0.00  0.00    +0.000 A 
ENDROOT
BRANCH   1  12
ATOM     11  C   UNL     1       1.075   0.263   0.341  0.00  0.00    +0.000 C 
ATOM     12  N   UNL     1       2.537   0.225   0.296  0.00  0.00    +0.000 N 
ATOM     13  C   UNL     1       3.106   0.375  -1.047  0.00  0.00    +0.000 C 
ENDBRANCH   1  12
BRANCH  10  14
ATOM     14  S   UNL     1       6.673  -2.812   4.381  0.00  0.00    +0.000 S 
ATOM     15  O   UNL     1       7.148  -3.770   3.401  0.00  0.00    +0.000 OA
ATOM     16  O   UNL     1       7.617  -2.180   5.286  0.00  0.00    +0.000 OA
BRANCH  14  17
ATOM     17  N   UNL     1       5.474  -3.460   5.260  0.00  0.00    +0.000 NA
ATOM     18  C   UNL     1       5.864  -4.343   5.923  0.00  0.00    +0.000 C 
ATOM     19  S   UNL     1       6.318  -5.558   6.849  0.00  0.00    +0.000 S 
ENDBRANCH  14  17
ENDBRANCH  10  14
TORSDOF 3
