REMARK  Name = *****
REMARK  2 active torsions:
REMARK  status: ('A' for Active; 'I' for Inactive)
REMARK    1  A    between atoms: C_10  and  S_11
REMARK    2  A    between atoms: S_11  and  C_14
REMARK                            x       y       z     vdW  Elec       q    Type
REMARK                         _______ _______ _______ _____ _____    ______ ____
ROOT
ATOM      1  C   UNL     1       2.392  -0.764  -0.226  0.00  0.00    +0.000 A 
ATOM      2  C   UNL     1       2.447   0.620  -0.187  0.00  0.00    +0.000 A 
ATOM      3  C   UNL     1       1.267   1.363  -0.082  0.00  0.00    +0.000 A 
ATOM      4  C   UNL     1      -0.011   0.745  -0.016  0.00  0.00    +0.000 A 
ATOM      5  C   UNL     1      -0.036  -0.674  -0.041  0.00  0.00    +0.000 A 
ATOM      6  C   UNL     1       1.159  -1.405  -0.150  0.00  0.00    +0.000 A 
ATOM      7  C   UNL     1      -1.254  -1.367   0.046  0.00  0.00    +0.000 A 
ATOM      8  C   UNL     1      -2.463  -0.688   0.161  0.00  0.00    +0.000 A 
ATOM      9  C   UNL     1      -2.473   0.699   0.177  0.00  0.00    +0.000 A 
ATOM     10  C   UNL     1      -1.268   1.414   0.075  0.00  0.00    +0.000 A 
ENDROOT
BRANCH  10  11
ATOM     11  S   UNL     1      -1.398   3.198   0.043  0.00  0.00    +0.000 S 
ATOM     12  O   UNL     1      -2.793   3.550   0.256  0.00  0.00    +0.000 OA
ATOM     13  O   UNL     1      -0.396   3.725   0.955  0.00  0.00    +0.000 OA
BRANCH  11  14
ATOM     14  C   UNL     1      -0.953   3.669  -1.616  0.00  0.00    +0.000 C 
ATOM     15 CL   UNL     1      -1.985   2.861  -2.807  0.00  0.00    +0.000 Cl
ENDBRANCH  11  14
ENDBRANCH  10  11
TORSDOF 2
