REMARK  Name = *****
REMARK  5 active torsions:
REMARK  status: ('A' for Active; 'I' for Inactive)
REMARK    1  A    between atoms: C_1  and  C_2
REMARK    2  A    between atoms: C_2  and  C_3
REMARK    3  A    between atoms: C_3  and  C_4
REMARK    4  A    between atoms: C_4  and  S_5
REMARK    5  A    between atoms: S_5  and  C_8
REMARK                            x       y       z     vdW  Elec       q    Type
REMARK                         _______ _______ _______ _____ _____    ______ ____
ROOT
ATOM      1  C   UNL     1       7.012   1.423  -2.427  0.00  0.00    +0.000 A 
ATOM      2  C   UNL     1       7.817   0.286  -2.587  0.00  0.00    +0.000 A 
ATOM      3  C   UNL     1       9.197   0.393  -2.494  0.00  0.00    +0.000 A 
ATOM      4  C   UNL     1       9.782   1.633  -2.241  0.00  0.00    +0.000 A 
ATOM      5  C   UNL     1       8.997   2.801  -2.062  0.00  0.00    +0.000 A 
ATOM      6  C   UNL     1       9.580   4.066  -1.800  0.00  0.00    +0.000 A 
ATOM      7  C   UNL     1       8.812   5.213  -1.613  0.00  0.00    +0.000 A 
ATOM      8  C   UNL     1       7.435   5.126  -1.677  0.00  0.00    +0.000 A 
ATOM      9  C   UNL     1       6.830   3.895  -1.937  0.00  0.00    +0.000 A 
ATOM     10  C   UNL     1       7.577   2.704  -2.145  0.00  0.00    +0.000 A 
ATOM     11 CL   UNL     1      11.516   1.655  -2.158  0.00  0.00    +0.000 Cl
ENDROOT
BRANCH   1  12
ATOM     12  S   UNL     1       5.245   1.170  -2.610  0.00  0.00    +0.000 S 
ATOM     13  O   UNL     1       4.578   1.873  -1.532  0.00  0.00    +0.000 OA
ATOM     14  O   UNL     1       5.027  -0.254  -2.791  0.00  0.00    +0.000 OA
BRANCH  12  15
ATOM     15  C   UNL     1       4.865   1.964  -4.165  0.00  0.00    +0.000 C 
BRANCH  15  16
ATOM     16  C   UNL     1       3.387   1.821  -4.514  0.00  0.00    +0.000 C 
BRANCH  16  18
ATOM     17  C   UNL     1       1.594   2.350  -6.203  0.00  0.00    +0.000 C 
ATOM     18  C   UNL     1       3.066   2.491  -5.848  0.00  0.00    +0.000 C 
ENDBRANCH  16  18
ENDBRANCH  15  16
ENDBRANCH  12  15
ENDBRANCH   1  12
TORSDOF 4
