REMARK  Name = *****
REMARK  3 active torsions:
REMARK  status: ('A' for Active; 'I' for Inactive)
REMARK    1  A    between atoms: C_1  and  C_2
REMARK    2  A    between atoms: N_11  and  S_13
REMARK    3  A    between atoms: S_13  and  C_16
REMARK                            x       y       z     vdW  Elec       q    Type
REMARK                         _______ _______ _______ _____ _____    ______ ____
ROOT
ATOM      1  C   UNL     1       1.709   0.658  -0.756  0.00  0.00    +0.000 C 
ATOM      2  C   UNL     1       2.800  -0.135  -0.087  0.00  0.00    +0.000 C 
ATOM      3  C   UNL     1       3.469   0.510   1.112  0.00  0.00    +0.000 C 
ATOM      4  C   UNL     1       4.238   0.359  -0.174  0.00  0.00    +0.000 C 
ATOM      5  C   UNL     1       5.320  -0.688  -0.251  0.00  0.00    +0.000 A 
ATOM      6  C   UNL     1       6.662  -0.379   0.014  0.00  0.00    +0.000 A 
ATOM      7  C   UNL     1       7.653  -1.361  -0.050  0.00  0.00    +0.000 A 
ATOM      8  C   UNL     1       7.317  -2.671  -0.382  0.00  0.00    +0.000 A 
ATOM      9  C   UNL     1       5.990  -3.003  -0.647  0.00  0.00    +0.000 A 
ATOM     10  C   UNL     1       4.997  -2.023  -0.569  0.00  0.00    +0.000 A 
ATOM     11  N   UNL     1       3.628  -2.361  -0.904  0.00  0.00    +0.000 N 
ATOM     12  C   UNL     1       2.603  -1.638  -0.091  0.00  0.00    +0.000 C 
ENDROOT
BRANCH  11  13
ATOM     13  S   UNL     1       3.347  -2.434  -2.614  0.00  0.00    +0.000 S 
ATOM     14  O   UNL     1       3.289  -1.068  -3.108  0.00  0.00    +0.000 OA
ATOM     15  O   UNL     1       4.338  -3.341  -3.176  0.00  0.00    +0.000 OA
BRANCH  13  16
ATOM     16  C   UNL     1       1.676  -3.229  -2.751  0.00  0.00    +0.000 C 
ATOM     17  F   UNL     1       1.528  -4.270  -1.882  0.00  0.00    +0.000 F 
ATOM     18  F   UNL     1       0.665  -2.353  -2.473  0.00  0.00    +0.000 F 
ATOM     19  F   UNL     1       1.430  -3.718  -3.999  0.00  0.00    +0.000 F 
ENDBRANCH  13  16
ENDBRANCH  11  13
TORSDOF 2
