REMARK  Name = *****
REMARK  2 active torsions:
REMARK  status: ('A' for Active; 'I' for Inactive)
REMARK    1  A    between atoms: C_10  and  S_11
REMARK    2  A    between atoms: S_11  and  N_14
REMARK                            x       y       z     vdW  Elec       q    Type
REMARK                         _______ _______ _______ _____ _____    ______ ____
ROOT
ATOM      1  C   UNL     1       2.424  -0.699   0.136  0.00  0.00    +0.000 A 
ATOM      2  C   UNL     1       2.469   0.686   0.125  0.00  0.00    +0.000 A 
ATOM      3  C   UNL     1       1.283   1.423   0.054  0.00  0.00    +0.000 A 
ATOM      4  C   UNL     1       0.010   0.796  -0.010  0.00  0.00    +0.000 A 
ATOM      5  C   UNL     1      -0.007  -0.624   0.005  0.00  0.00    +0.000 A 
ATOM      6  C   UNL     1       1.194  -1.348   0.078  0.00  0.00    +0.000 A 
ATOM      7  C   UNL     1      -1.225  -1.320  -0.055  0.00  0.00    +0.000 A 
ATOM      8  C   UNL     1      -2.440  -0.645  -0.134  0.00  0.00    +0.000 A 
ATOM      9  C   UNL     1      -2.455   0.742  -0.153  0.00  0.00    +0.000 A 
ATOM     10  C   UNL     1      -1.248   1.460  -0.088  0.00  0.00    +0.000 A 
ENDROOT
BRANCH  10  11
ATOM     11  S   UNL     1      -1.365   3.248  -0.099  0.00  0.00    +0.000 S 
ATOM     12  O   UNL     1      -0.456   3.727  -1.122  0.00  0.00    +0.000 OA
ATOM     13  O   UNL     1      -2.777   3.580  -0.184  0.00  0.00    +0.000 OA
BRANCH  11  14
ATOM     14  N   UNL     1      -0.818   3.665   1.369  0.00  0.00    +0.000 NA
ATOM     15  C   UNL     1      -0.942   4.814   1.558  0.00  0.00    +0.000 C 
ATOM     16  S   UNL     1      -1.082   6.367   1.888  0.00  0.00    +0.000 S 
ENDBRANCH  11  14
ENDBRANCH  10  11
TORSDOF 2
