REMARK  Name = *****
REMARK  9 active torsions:
REMARK  status: ('A' for Active; 'I' for Inactive)
REMARK    1  A    between atoms: C_1  and  C_2
REMARK    2  A    between atoms: C_2  and  N_3
REMARK    3  A    between atoms: N_3  and  C_4
REMARK    4  A    between atoms: N_3  and  S_6
REMARK    5  A    between atoms: C_4  and  C_5
REMARK    6  A    between atoms: S_6  and  C_9
REMARK    7  A    between atoms: C_10  and  C_22
REMARK    8  A    between atoms: C_12  and  C_21
REMARK    9  A    between atoms: C_19  and  C_20
REMARK                            x       y       z     vdW  Elec       q    Type
REMARK                         _______ _______ _______ _____ _____    ______ ____
ROOT
ATOM      1  C   UNL     1       5.370  -2.552  -1.446  0.00  0.00    +0.000 A 
ATOM      2  C   UNL     1       5.001  -3.663  -0.671  0.00  0.00    +0.000 A 
ATOM      3  C   UNL     1       5.392  -4.935  -1.113  0.00  0.00    +0.000 A 
ATOM      4  C   UNL     1       6.141  -5.142  -2.292  0.00  0.00    +0.000 A 
ATOM      5  C   UNL     1       6.512  -4.034  -3.088  0.00  0.00    +0.000 A 
ATOM      6  C   UNL     1       6.133  -2.752  -2.616  0.00  0.00    +0.000 A 
ATOM      7  O   UNL     1       6.584  -1.595  -3.296  0.00  0.00    +0.000 OA
ATOM      8  C   UNL     1       7.399  -1.621  -4.404  0.00  0.00    +0.000 A 
ATOM      9  O   UNL     1       7.875  -0.617  -4.917  0.00  0.00    +0.000 OA
ATOM     10  C   UNL     1       7.656  -2.948  -4.957  0.00  0.00    +0.000 A 
ATOM     11  C   UNL     1       7.252  -4.090  -4.379  0.00  0.00    +0.000 A 
ATOM     12  C   UNL     1       7.534  -5.370  -5.112  0.00  0.00    +0.000 C 
ATOM     13  C   UNL     1       6.501  -6.576  -2.583  0.00  0.00    +0.000 C 
ATOM     14  C   UNL     1       4.190  -3.584   0.595  0.00  0.00    +0.000 C 
ENDROOT
BRANCH   1  15
ATOM     15  S   UNL     1       4.818  -0.912  -0.972  0.00  0.00    +0.000 S 
ATOM     16  O   UNL     1       3.453  -1.036  -0.499  0.00  0.00    +0.000 OA
ATOM     17  O   UNL     1       5.129   0.057  -1.999  0.00  0.00    +0.000 OA
BRANCH  15  18
ATOM     18  N   UNL     1       5.814  -0.565   0.371  0.00  0.00    +0.000 NA
BRANCH  18  20
ATOM     19  C   UNL     1       8.041  -1.357   1.007  0.00  0.00    +0.000 C 
ATOM     20  C   UNL     1       7.267  -0.409   0.106  0.00  0.00    +0.000 C 
ENDBRANCH  18  20
BRANCH  18  21
ATOM     21  C   UNL     1       5.269   0.413   1.351  0.00  0.00    +0.000 C 
ATOM     22  C   UNL     1       5.001   1.786   0.756  0.00  0.00    +0.000 C 
ENDBRANCH  18  21
ENDBRANCH  15  18
ENDBRANCH   1  15
TORSDOF 4
