REMARK  Name = *****
REMARK  4 active torsions:
REMARK  status: ('A' for Active; 'I' for Inactive)
REMARK    1  A    between atoms: C_3  and  C_4
REMARK    2  A    between atoms: C_4  and  O_6
REMARK    3  A    between atoms: O_6  and  C_7
REMARK    4  A    between atoms: C_10  and  O_17
REMARK                            x       y       z     vdW  Elec       q    Type
REMARK                         _______ _______ _______ _____ _____    ______ ____
ROOT
ATOM      1  C   UNL     1      -3.599   0.474  -1.241  0.00  0.00    +0.000 A 
ATOM      2  C   UNL     1      -3.101   1.716  -0.838  0.00  0.00    +0.000 A 
ATOM      3  C   UNL     1      -3.924   2.584  -0.130  0.00  0.00    +0.000 A 
ATOM      4  C   UNL     1      -5.240   2.209   0.150  0.00  0.00    +0.000 A 
ATOM      5  C   UNL     1      -5.767   0.969  -0.274  0.00  0.00    +0.000 A 
ATOM      6  C   UNL     1      -7.099   0.586  -0.010  0.00  0.00    +0.000 A 
ATOM      7  C   UNL     1      -7.602  -0.641  -0.444  0.00  0.00    +0.000 A 
ATOM      8  C   UNL     1      -6.783  -1.512  -1.151  0.00  0.00    +0.000 A 
ATOM      9  C   UNL     1      -5.461  -1.156  -1.422  0.00  0.00    +0.000 A 
ATOM     10  C   UNL     1      -4.932   0.080  -0.991  0.00  0.00    +0.000 A 
ENDROOT
BRANCH   4  11
ATOM     11  O   UNL     1      -6.046   3.073   0.849  0.00  0.00    +0.000 OA
ATOM     12  H   UNL     1      -5.710   3.899   1.136  0.00  0.00    +0.000 HD
ENDBRANCH   4  11
BRANCH   1  13
ATOM     13  O   UNL     1      -2.765  -0.369  -1.994  0.00  0.00    +0.000 OA
BRANCH  13  14
ATOM     14  C   UNL     1      -1.758  -0.974  -1.259  0.00  0.00    +0.000 C 
ATOM     15  O   UNL     1      -1.518  -0.824  -0.068  0.00  0.00    +0.000 OA
BRANCH  14  18
ATOM     16  C   UNL     1      -0.317  -3.121  -1.563  0.00  0.00    +0.000 C 
ATOM     17  C   UNL     1       0.553  -1.956  -1.940  0.00  0.00    +0.000 C 
ATOM     18  C   UNL     1      -0.944  -1.867  -2.127  0.00  0.00    +0.000 C 
ENDBRANCH  14  18
ENDBRANCH  13  14
ENDBRANCH   1  13
TORSDOF 4
