REMARK  Name = *****
REMARK  7 active torsions:
REMARK  status: ('A' for Active; 'I' for Inactive)
REMARK    1  A    between atoms: C_1  and  C_2
REMARK    2  A    between atoms: C_2  and  O_3
REMARK    3  A    between atoms: O_3  and  C_4
REMARK    4  A    between atoms: C_7  and  S_14
REMARK    5  A    between atoms: S_14  and  N_17
REMARK    6  A    between atoms: N_17  and  C_18
REMARK    7  A    between atoms: N_17  and  C_19
REMARK                            x       y       z     vdW  Elec       q    Type
REMARK                         _______ _______ _______ _____ _____    ______ ____
ROOT
ATOM      1  C   UNL     1       4.513   1.118   0.969  0.00  0.00    +0.000 A 
ATOM      2  C   UNL     1       5.384   1.096  -0.118  0.00  0.00    +0.000 A 
ATOM      3  C   UNL     1       6.752   1.227   0.086  0.00  0.00    +0.000 A 
ATOM      4  C   UNL     1       7.275   1.376   1.381  0.00  0.00    +0.000 A 
ATOM      5  C   UNL     1       6.415   1.431   2.517  0.00  0.00    +0.000 A 
ATOM      6  C   UNL     1       6.827   1.613   3.866  0.00  0.00    +0.000 A 
ATOM      7  C   UNL     1       5.928   1.639   4.935  0.00  0.00    +0.000 A 
ATOM      8  C   UNL     1       4.576   1.486   4.698  0.00  0.00    +0.000 A 
ATOM      9  C   UNL     1       4.130   1.313   3.391  0.00  0.00    +0.000 A 
ATOM     10  C   UNL     1       5.014   1.285   2.288  0.00  0.00    +0.000 A 
ENDROOT
BRANCH   4  11
ATOM     11  S   UNL     1       9.064   1.526   1.471  0.00  0.00    +0.000 S 
ATOM     12  O   UNL     1       9.528   1.899   0.149  0.00  0.00    +0.000 OA
ATOM     13  O   UNL     1       9.425   2.342   2.610  0.00  0.00    +0.000 OA
BRANCH  11  14
ATOM     14  N   UNL     1       9.584  -0.072   1.754  0.00  0.00    +0.000 NA
ATOM     15  C   UNL     1       9.341  -0.643   3.087  0.00  0.00    +0.000 C 
ATOM     16  C   UNL     1       9.381  -1.041   0.664  0.00  0.00    +0.000 C 
ENDBRANCH  11  14
ENDBRANCH   4  11
BRANCH   1  17
ATOM     17  O   UNL     1       3.149   0.981   0.849  0.00  0.00    +0.000 OA
BRANCH  17  19
ATOM     18  C   UNL     1       1.081   0.818  -0.319  0.00  0.00    +0.000 C 
ATOM     19  C   UNL     1       2.590   0.906  -0.461  0.00  0.00    +0.000 C 
ENDBRANCH  17  19
ENDBRANCH   1  17
TORSDOF 4
