REMARK  Name = *****
REMARK  2 active torsions:
REMARK  status: ('A' for Active; 'I' for Inactive)
REMARK    1  A    between atoms: C_1  and  S_2
REMARK    2  A    between atoms: S_2  and  N_5
REMARK                            x       y       z     vdW  Elec       q    Type
REMARK                         _______ _______ _______ _____ _____    ______ ____
ROOT
ATOM      1  N   UNL     1       3.175   0.944   1.352  0.00  0.00    +0.000 N 
ATOM      2  C   UNL     1       3.075   2.392   1.027  0.00  0.00    +0.000 C 
ATOM      3  C   UNL     1       3.335   3.280   2.200  0.00  0.00    +0.000 C 
ATOM      4  C   UNL     1       3.884   2.872   3.346  0.00  0.00    +0.000 C 
ATOM      5  C   UNL     1       4.284   1.475   3.492  0.00  0.00    +0.000 A 
ATOM      6  C   UNL     1       4.984   1.106   4.652  0.00  0.00    +0.000 A 
ATOM      7  C   UNL     1       5.373  -0.216   4.852  0.00  0.00    +0.000 A 
ATOM      8  C   UNL     1       5.049  -1.176   3.895  0.00  0.00    +0.000 A 
ATOM      9  C   UNL     1       4.343  -0.809   2.738  0.00  0.00    +0.000 A 
ATOM     10  C   UNL     1       3.972   0.521   2.498  0.00  0.00    +0.000 A 
ATOM     11 CL   UNL     1       5.489  -2.839   4.074  0.00  0.00    +0.000 Cl
ATOM     12 CL   UNL     1       6.240  -0.594   6.296  0.00  0.00    +0.000 Cl
ENDROOT
BRANCH   1  14
ATOM     13  C   UNL     1       4.492  -0.122  -0.758  0.00  0.00    +0.000 C 
ATOM     14  S   UNL     1       2.883  -0.061   0.008  0.00  0.00    +0.000 S 
ATOM     15  O   UNL     1       2.010   0.650  -0.905  0.00  0.00    +0.000 OA
ATOM     16  O   UNL     1       2.539  -1.397   0.443  0.00  0.00    +0.000 OA
ENDBRANCH   1  14
TORSDOF 1
