REMARK  Name = *****
REMARK  4 active torsions:
REMARK  status: ('A' for Active; 'I' for Inactive)
REMARK    1  A    between atoms: C_1  and  C_2
REMARK    2  A    between atoms: C_2  and  N_3
REMARK    3  A    between atoms: N_3  and  S_4
REMARK    4  A    between atoms: S_4  and  C_7
REMARK                            x       y       z     vdW  Elec       q    Type
REMARK                         _______ _______ _______ _____ _____    ______ ____
ROOT
ATOM      1  C   UNL     1       5.450  -2.968   0.698  0.00  0.00    +0.000 A 
ATOM      2  C   UNL     1       6.710  -3.284   1.230  0.00  0.00    +0.000 A 
ATOM      3  C   UNL     1       7.028  -4.613   1.534  0.00  0.00    +0.000 A 
ATOM      4  C   UNL     1       6.115  -5.643   1.306  0.00  0.00    +0.000 A 
ATOM      5  C   UNL     1       4.888  -5.311   0.755  0.00  0.00    +0.000 A 
ATOM      6  C   UNL     1       4.550  -3.991   0.435  0.00  0.00    +0.000 A 
ATOM      7  N   UNL     1       3.206  -3.889  -0.004  0.00  0.00    +0.000 N 
ATOM      8  C   UNL     1       2.875  -5.263  -0.410  0.00  0.00    +0.000 C 
ATOM      9  C   UNL     1       3.734  -6.208   0.448  0.00  0.00    +0.000 C 
ATOM     10 CL   UNL     1       8.569  -4.982   2.207  0.00  0.00    +0.000 Cl
ATOM     11  H   UNL     1       2.632  -3.089  -0.031  0.00  0.00    +0.000 HD
ENDROOT
BRANCH   1  12
ATOM     12  S   UNL     1       5.095  -1.289   0.275  0.00  0.00    +0.000 S 
ATOM     13  O   UNL     1       4.115  -1.281  -0.791  0.00  0.00    +0.000 OA
ATOM     14  O   UNL     1       6.359  -0.597   0.132  0.00  0.00    +0.000 OA
BRANCH  12  15
ATOM     15  N   UNL     1       4.389  -0.674   1.668  0.00  0.00    +0.000 NA
ATOM     16  H   UNL     1       5.081  -0.760   2.413  0.00  0.00    +0.000 HD
BRANCH  15  18
ATOM     17  C   UNL     1       2.488  -0.286   3.123  0.00  0.00    +0.000 C 
ATOM     18  C   UNL     1       3.149  -1.265   2.169  0.00  0.00    +0.000 C 
ENDBRANCH  15  18
ENDBRANCH  12  15
ENDBRANCH   1  12
TORSDOF 3
