REMARK  Name = *****
REMARK  6 active torsions:
REMARK  status: ('A' for Active; 'I' for Inactive)
REMARK    1  A    between atoms: C_1  and  C_2
REMARK    2  A    between atoms: C_2  and  N_3
REMARK    3  A    between atoms: N_3  and  C_4
REMARK    4  A    between atoms: N_3  and  S_6
REMARK    5  A    between atoms: C_4  and  C_5
REMARK    6  A    between atoms: S_6  and  C_9
REMARK                            x       y       z     vdW  Elec       q    Type
REMARK                         _______ _______ _______ _____ _____    ______ ____
ROOT
ATOM      1  C   UNL     1       5.194   2.904   0.228  0.00  0.00    +0.000 A 
ATOM      2  C   UNL     1       4.581   3.436   1.377  0.00  0.00    +0.000 A 
ATOM      3  C   UNL     1       4.745   4.774   1.704  0.00  0.00    +0.000 A 
ATOM      4  C   UNL     1       5.527   5.586   0.890  0.00  0.00    +0.000 A 
ATOM      5  C   UNL     1       6.174   5.072  -0.246  0.00  0.00    +0.000 A 
ATOM      6  C   UNL     1       6.971   5.931  -1.022  0.00  0.00    +0.000 A 
ATOM      7  C   UNL     1       7.654   5.465  -2.141  0.00  0.00    +0.000 A 
ATOM      8  C   UNL     1       7.557   4.129  -2.493  0.00  0.00    +0.000 A 
ATOM      9  C   UNL     1       6.765   3.262  -1.734  0.00  0.00    +0.000 A 
ATOM     10  C   UNL     1       6.033   3.703  -0.600  0.00  0.00    +0.000 A 
ENDROOT
BRANCH   1  11
ATOM     11  S   UNL     1       4.832   1.187  -0.111  0.00  0.00    +0.000 S 
ATOM     12  O   UNL     1       5.540   0.413   0.886  0.00  0.00    +0.000 OA
ATOM     13  O   UNL     1       4.970   0.910  -1.525  0.00  0.00    +0.000 OA
BRANCH  11  14
ATOM     14  N   UNL     1       3.150   1.072   0.220  0.00  0.00    +0.000 NA
BRANCH  14  16
ATOM     15  C   UNL     1       1.142   2.492   0.037  0.00  0.00    +0.000 C 
ATOM     16  C   UNL     1       2.259   1.799  -0.727  0.00  0.00    +0.000 C 
ENDBRANCH  14  16
BRANCH  14  17
ATOM     17  C   UNL     1       2.665  -0.284   0.601  0.00  0.00    +0.000 C 
ATOM     18  C   UNL     1       2.912  -1.348  -0.456  0.00  0.00    +0.000 C 
ENDBRANCH  14  17
ENDBRANCH  11  14
ENDBRANCH   1  11
TORSDOF 4
