REMARK  Name = *****
REMARK  2 active torsions:
REMARK  status: ('A' for Active; 'I' for Inactive)
REMARK    1  A    between atoms: C_3  and  S_4
REMARK    2  A    between atoms: S_4  and  C_7
REMARK                            x       y       z     vdW  Elec       q    Type
REMARK                         _______ _______ _______ _____ _____    ______ ____
ROOT
ATOM      1  C   UNL     1      -3.357  -0.825  -1.330  0.00  0.00    +0.000 A 
ATOM      2  C   UNL     1      -4.012   0.396  -1.103  0.00  0.00    +0.000 A 
ATOM      3  C   UNL     1      -5.367   0.414  -0.803  0.00  0.00    +0.000 A 
ATOM      4  C   UNL     1      -6.071  -0.784  -0.727  0.00  0.00    +0.000 A 
ATOM      5  C   UNL     1      -5.439  -2.016  -0.960  0.00  0.00    +0.000 A 
ATOM      6  C   UNL     1      -6.193  -3.199  -0.876  0.00  0.00    +0.000 A 
ATOM      7  C   UNL     1      -5.612  -4.442  -1.110  0.00  0.00    +0.000 A 
ATOM      8  C   UNL     1      -4.267  -4.518  -1.437  0.00  0.00    +0.000 A 
ATOM      9  C   UNL     1      -3.503  -3.351  -1.523  0.00  0.00    +0.000 A 
ATOM     10  C   UNL     1      -4.057  -2.065  -1.280  0.00  0.00    +0.000 A 
ENDROOT
BRANCH   1  11
ATOM     11  S   UNL     1      -1.606  -0.743  -1.656  0.00  0.00    +0.000 S 
ATOM     12  O   UNL     1      -1.210   0.653  -1.663  0.00  0.00    +0.000 OA
ATOM     13  O   UNL     1      -1.304  -1.595  -2.789  0.00  0.00    +0.000 OA
BRANCH  11  16
ATOM     14  C   UNL     1      -0.444  -0.564   0.898  0.00  0.00    +0.000 C 
ATOM     15  C   UNL     1       0.578  -1.117  -0.050  0.00  0.00    +0.000 C 
ATOM     16  C   UNL     1      -0.854  -1.509  -0.201  0.00  0.00    +0.000 C 
ATOM     17  F   UNL     1       1.443  -2.069   0.460  0.00  0.00    +0.000 F 
ENDBRANCH  11  16
ENDBRANCH   1  11
TORSDOF 2
