REMARK  Name = *****
REMARK  2 active torsions:
REMARK  status: ('A' for Active; 'I' for Inactive)
REMARK    1  A    between atoms: C_7  and  N_13
REMARK    2  A    between atoms: C_10  and  N_11
REMARK                            x       y       z     vdW  Elec       q    Type
REMARK                         _______ _______ _______ _____ _____    ______ ____
ROOT
ATOM      1  C   UNL     1      -2.488  -0.742  -0.011  0.00  0.00    +0.000 A 
ATOM      2  C   UNL     1      -2.498   0.642  -0.052  0.00  0.00    +0.000 A 
ATOM      3  C   UNL     1      -1.292   1.343  -0.054  0.00  0.00    +0.000 A 
ATOM      4  C   UNL     1      -0.037   0.689  -0.009  0.00  0.00    +0.000 A 
ATOM      5  C   UNL     1      -0.028  -0.733   0.014  0.00  0.00    +0.000 A 
ATOM      6  C   UNL     1      -1.271  -1.421   0.016  0.00  0.00    +0.000 A 
ATOM      7  C   UNL     1       1.235  -1.378   0.006  0.00  0.00    +0.000 A 
ATOM      8  C   UNL     1       2.447  -0.687  -0.052  0.00  0.00    +0.000 A 
ATOM      9  C   UNL     1       2.418   0.698  -0.067  0.00  0.00    +0.000 A 
ATOM     10  C   UNL     1       1.199   1.408   0.008  0.00  0.00    +0.000 A 
ATOM     11 CL   UNL     1       3.930   1.540  -0.126  0.00  0.00    +0.000 Cl
ENDROOT
BRANCH  10  12
ATOM     12  N   UNL     1       1.216   2.824  -0.092  0.00  0.00    +0.000 N 
ATOM     13  H   UNL     1       0.374   3.331  -0.041  0.00  0.00    +0.000 HD
ATOM     14  H   UNL     1       2.070   3.299  -0.212  0.00  0.00    +0.000 HD
ENDBRANCH  10  12
BRANCH   7  15
ATOM     15  N   UNL     1       1.325  -2.826   0.039  0.00  0.00    +0.000 N 
ATOM     16  O   UNL     1       0.915  -3.397   1.058  0.00  0.00    +0.000 OA
ATOM     17  O   UNL     1       1.839  -3.379  -0.942  0.00  0.00    +0.000 OA
ENDBRANCH   7  15
TORSDOF 2
