REMARK  Name = *****
REMARK  6 active torsions:
REMARK  status: ('A' for Active; 'I' for Inactive)
REMARK    1  A    between atoms: C_1  and  C_2
REMARK    2  A    between atoms: C_2  and  O_3
REMARK    3  A    between atoms: O_3  and  C_4
REMARK    4  A    between atoms: C_4  and  C_6
REMARK    5  A    between atoms: C_9  and  N_16
REMARK    6  A    between atoms: N_16  and  C_17
REMARK                            x       y       z     vdW  Elec       q    Type
REMARK                         _______ _______ _______ _____ _____    ______ ____
ROOT
ATOM      1  C   UNL     1       5.043  -2.769   1.688  0.00  0.00    +0.000 A 
ATOM      2  C   UNL     1       6.015  -2.783   2.678  0.00  0.00    +0.000 A 
ATOM      3  N   UNL     1       6.408  -3.891   3.339  0.00  0.00    +0.000 NA
ATOM      4  C   UNL     1       5.806  -5.056   3.016  0.00  0.00    +0.000 A 
ATOM      5  C   UNL     1       4.829  -5.169   1.993  0.00  0.00    +0.000 A 
ATOM      6  C   UNL     1       4.260  -6.401   1.588  0.00  0.00    +0.000 A 
ATOM      7  C   UNL     1       3.297  -6.476   0.583  0.00  0.00    +0.000 A 
ATOM      8  C   UNL     1       2.883  -5.320  -0.056  0.00  0.00    +0.000 A 
ATOM      9  C   UNL     1       3.443  -4.093   0.302  0.00  0.00    +0.000 A 
ATOM     10  C   UNL     1       4.424  -3.985   1.321  0.00  0.00    +0.000 A 
ENDROOT
BRANCH   1  11
ATOM     11  C   UNL     1       4.692  -1.468   1.080  0.00  0.00    +0.000 C 
ATOM     12  O   UNL     1       3.558  -1.107   0.817  0.00  0.00    +0.000 OA
BRANCH  11  13
ATOM     13  O   UNL     1       5.832  -0.771   0.841  0.00  0.00    +0.000 OA
BRANCH  13  15
ATOM     14  C   UNL     1       5.624   0.348  -1.296  0.00  0.00    +0.000 C 
ATOM     15  C   UNL     1       5.662   0.509   0.212  0.00  0.00    +0.000 C 
ENDBRANCH  13  15
ENDBRANCH  11  13
ENDBRANCH   1  11
BRANCH   4  16
ATOM     16  N   UNL     1       6.246  -6.146   3.799  0.00  0.00    +0.000 N 
ATOM     17  H   UNL     1       7.186  -6.435   3.784  0.00  0.00    +0.000 HD
BRANCH  16  18
ATOM     18  C   UNL     1       5.251  -6.838   4.642  0.00  0.00    +0.000 C 
ATOM     19  C   UNL     1       5.726  -7.734   5.756  0.00  0.00    +0.000 C 
ATOM     20  C   UNL     1       5.068  -8.328   4.550  0.00  0.00    +0.000 C 
ENDBRANCH  16  18
ENDBRANCH   4  16
TORSDOF 5
