REMARK  Name = *****
REMARK  4 active torsions:
REMARK  status: ('A' for Active; 'I' for Inactive)
REMARK    1  A    between atoms: C_1  and  C_2
REMARK    2  A    between atoms: C_2  and  N_3
REMARK    3  A    between atoms: N_3  and  S_4
REMARK    4  A    between atoms: S_4  and  C_7
REMARK                            x       y       z     vdW  Elec       q    Type
REMARK                         _______ _______ _______ _____ _____    ______ ____
ROOT
ATOM      1  C   UNL     1       5.548   0.614   2.988  0.00  0.00    +0.000 A 
ATOM      2  C   UNL     1       5.893   1.832   3.599  0.00  0.00    +0.000 A 
ATOM      3  C   UNL     1       6.307   1.860   4.921  0.00  0.00    +0.000 A 
ATOM      4  C   UNL     1       6.387   0.673   5.647  0.00  0.00    +0.000 A 
ATOM      5  C   UNL     1       6.055  -0.579   5.064  0.00  0.00    +0.000 A 
ATOM      6  C   UNL     1       6.134  -1.793   5.794  0.00  0.00    +0.000 A 
ATOM      7  C   UNL     1       5.809  -3.024   5.231  0.00  0.00    +0.000 A 
ATOM      8  C   UNL     1       5.394  -3.078   3.916  0.00  0.00    +0.000 A 
ATOM      9  C   UNL     1       5.305  -1.901   3.170  0.00  0.00    +0.000 A 
ATOM     10  C   UNL     1       5.628  -0.622   3.701  0.00  0.00    +0.000 A 
ATOM     11 BR   UNL     1       6.965   0.857   7.458  0.00  0.00    +0.000 Br
ENDROOT
BRANCH   1  12
ATOM     12  S   UNL     1       5.049   0.754   1.269  0.00  0.00    +0.000 S 
ATOM     13  O   UNL     1       5.284  -0.487   0.570  0.00  0.00    +0.000 OA
ATOM     14  O   UNL     1       5.587   1.998   0.758  0.00  0.00    +0.000 OA
BRANCH  12  15
ATOM     15  N   UNL     1       3.394   1.004   1.383  0.00  0.00    +0.000 NA
ATOM     16  H   UNL     1       3.266   1.860   1.923  0.00  0.00    +0.000 HD
BRANCH  15  18
ATOM     17  C   UNL     1       1.092   0.266   1.563  0.00  0.00    +0.000 C 
ATOM     18  C   UNL     1       2.526  -0.001   1.986  0.00  0.00    +0.000 C 
ENDBRANCH  15  18
ENDBRANCH  12  15
ENDBRANCH   1  12
TORSDOF 3
