REMARK  Name = *****
REMARK  3 active torsions:
REMARK  status: ('A' for Active; 'I' for Inactive)
REMARK    1  A    between atoms: C_4  and  S_6
REMARK    2  A    between atoms: S_6  and  C_9
REMARK    3  A    between atoms: C_16  and  O_20
REMARK                            x       y       z     vdW  Elec       q    Type
REMARK                         _______ _______ _______ _____ _____    ______ ____
ROOT
ATOM      1  C   UNL     1      -3.009   0.884   2.389  0.00  0.00    +0.000 A 
ATOM      2  C   UNL     1      -3.845   2.042   2.425  0.00  0.00    +0.000 A 
ATOM      3  C   UNL     1      -3.444   3.387   2.229  0.00  0.00    +0.000 A 
ATOM      4  C   UNL     1      -4.363   4.431   2.288  0.00  0.00    +0.000 A 
ATOM      5  C   UNL     1      -5.680   4.120   2.539  0.00  0.00    +0.000 A 
ATOM      6  N   UNL     1      -6.121   2.861   2.732  0.00  0.00    +0.000 NA
ATOM      7  C   UNL     1      -5.224   1.854   2.684  0.00  0.00    +0.000 A 
ATOM      8  C   UNL     1      -5.709   0.571   2.903  0.00  0.00    +0.000 A 
ATOM      9  C   UNL     1      -4.880  -0.541   2.884  0.00  0.00    +0.000 A 
ATOM     10  C   UNL     1      -3.528  -0.395   2.633  0.00  0.00    +0.000 A 
ATOM     11  F   UNL     1      -5.374  -1.767   3.099  0.00  0.00    +0.000 F 
ENDROOT
BRANCH   1  12
ATOM     12  S   UNL     1      -1.253   0.987   2.058  0.00  0.00    +0.000 S 
ATOM     13  O   UNL     1      -0.695  -0.333   2.281  0.00  0.00    +0.000 OA
ATOM     14  O   UNL     1      -0.746   2.119   2.809  0.00  0.00    +0.000 OA
BRANCH  12  18
ATOM     15  C   UNL     1       0.749   0.194  -0.606  0.00  0.00    +0.000 C 
ATOM     16  C   UNL     1      -0.474  -0.363  -1.314  0.00  0.00    +0.000 C 
ATOM     17  C   UNL     1      -1.681   0.221  -0.580  0.00  0.00    +0.000 C 
ATOM     18  C   UNL     1      -1.153   1.360   0.300  0.00  0.00    +0.000 C 
ATOM     19  C   UNL     1       0.296   1.568  -0.143  0.00  0.00    +0.000 C 
ENDBRANCH  12  18
ENDBRANCH   1  12
BRANCH   8  20
ATOM     20  O   UNL     1      -7.054   0.403   3.148  0.00  0.00    +0.000 OA
ATOM     21  H   UNL     1      -7.624   1.146   3.163  0.00  0.00    +0.000 HD
ENDBRANCH   8  20
TORSDOF 3
