REMARK  Name = *****
REMARK  2 active torsions:
REMARK  status: ('A' for Active; 'I' for Inactive)
REMARK    1  A    between atoms: N_14  and  S_15
REMARK    2  A    between atoms: S_15  and  C_18
REMARK                            x       y       z     vdW  Elec       q    Type
REMARK                         _______ _______ _______ _____ _____    ______ ____
ROOT
ATOM      1  C   UNL     1      -0.487   2.218   0.797  0.00  0.00    +0.000 C 
ATOM      2  C   UNL     1      -1.348   1.072   0.322  0.00  0.00    +0.000 A 
ATOM      3  C   UNL     1      -2.747   1.198   0.328  0.00  0.00    +0.000 A 
ATOM      4  C   UNL     1      -3.547   0.146  -0.105  0.00  0.00    +0.000 A 
ATOM      5  C   UNL     1      -2.957  -1.035  -0.541  0.00  0.00    +0.000 A 
ATOM      6  C   UNL     1      -1.565  -1.171  -0.533  0.00  0.00    +0.000 A 
ATOM      7  C   UNL     1      -0.732  -0.130  -0.088  0.00  0.00    +0.000 A 
ATOM      8  C   UNL     1       0.747  -0.225  -0.047  0.00  0.00    +0.000 A 
ATOM      9  C   UNL     1       1.438  -1.448  -0.124  0.00  0.00    +0.000 A 
ATOM     10  C   UNL     1       2.835  -1.500  -0.065  0.00  0.00    +0.000 A 
ATOM     11  C   UNL     1       3.572  -0.331   0.082  0.00  0.00    +0.000 A 
ATOM     12  C   UNL     1       2.914   0.893   0.172  0.00  0.00    +0.000 A 
ATOM     13  C   UNL     1       1.518   0.950   0.107  0.00  0.00    +0.000 A 
ATOM     14  N   UNL     1       0.861   2.235   0.180  0.00  0.00    +0.000 N 
ENDROOT
BRANCH  14  15
ATOM     15  S   UNL     1       1.071   3.299  -1.152  0.00  0.00    +0.000 S 
ATOM     16  O   UNL     1       0.508   4.575  -0.731  0.00  0.00    +0.000 OA
ATOM     17  O   UNL     1       2.472   3.266  -1.543  0.00  0.00    +0.000 OA
BRANCH  15  18
ATOM     18  C   UNL     1       0.020   2.589  -2.517  0.00  0.00    +0.000 C 
ATOM     19  F   UNL     1       0.317   1.288  -2.790  0.00  0.00    +0.000 F 
ATOM     20  F   UNL     1      -1.310   2.642  -2.219  0.00  0.00    +0.000 F 
ATOM     21  F   UNL     1       0.178   3.277  -3.685  0.00  0.00    +0.000 F 
ENDBRANCH  15  18
ENDBRANCH  14  15
TORSDOF 2
