REMARK  Name = *****
REMARK  6 active torsions:
REMARK  status: ('A' for Active; 'I' for Inactive)
REMARK    1  A    between atoms: C_1  and  N_2
REMARK    2  A    between atoms: N_2  and  C_3
REMARK    3  A    between atoms: N_2  and  S_4
REMARK    4  A    between atoms: S_4  and  C_7
REMARK    5  A    between atoms: C_10  and  O_17
REMARK    6  A    between atoms: O_17  and  C_18
REMARK                            x       y       z     vdW  Elec       q    Type
REMARK                         _______ _______ _______ _____ _____    ______ ____
ROOT
ATOM      1  C   UNL     1       4.731  -0.893   1.438  0.00  0.00    +0.000 A 
ATOM      2  C   UNL     1       5.404   0.214   1.981  0.00  0.00    +0.000 A 
ATOM      3  C   UNL     1       6.790   0.294   1.942  0.00  0.00    +0.000 A 
ATOM      4  C   UNL     1       7.529  -0.733   1.361  0.00  0.00    +0.000 A 
ATOM      5  C   UNL     1       6.874  -1.863   0.801  0.00  0.00    +0.000 A 
ATOM      6  C   UNL     1       7.625  -2.902   0.203  0.00  0.00    +0.000 A 
ATOM      7  C   UNL     1       7.025  -4.023  -0.363  0.00  0.00    +0.000 A 
ATOM      8  C   UNL     1       5.648  -4.133  -0.346  0.00  0.00    +0.000 A 
ATOM      9  C   UNL     1       4.878  -3.124   0.237  0.00  0.00    +0.000 A 
ATOM     10  C   UNL     1       5.451  -1.965   0.832  0.00  0.00    +0.000 A 
ENDROOT
BRANCH   1  11
ATOM     11  S   UNL     1       2.949  -0.843   1.620  0.00  0.00    +0.000 S 
ATOM     12  O   UNL     1       2.664  -0.082   2.820  0.00  0.00    +0.000 OA
ATOM     13  O   UNL     1       2.370  -2.158   1.456  0.00  0.00    +0.000 OA
BRANCH  11  15
ATOM     14  C   UNL     1       2.731  -0.469  -1.049  0.00  0.00    +0.000 C 
ATOM     15  N   UNL     1       2.458   0.115   0.283  0.00  0.00    +0.000 NA
ATOM     16  C   UNL     1       1.052   0.569   0.395  0.00  0.00    +0.000 C 
ENDBRANCH  11  15
ENDBRANCH   1  11
BRANCH   4  17
ATOM     17  O   UNL     1       8.904  -0.724   1.282  0.00  0.00    +0.000 OA
ATOM     18  C   UNL     1       9.601   0.340   1.916  0.00  0.00    +0.000 C 
ENDBRANCH   4  17
TORSDOF 3
