REMARK  Name = *****
REMARK  7 active torsions:
REMARK  status: ('A' for Active; 'I' for Inactive)
REMARK    1  A    between atoms: C_1  and  C_2
REMARK    2  A    between atoms: C_2  and  C_3
REMARK    3  A    between atoms: C_3  and  N_4
REMARK    4  A    between atoms: N_4  and  S_5
REMARK    5  A    between atoms: S_5  and  C_8
REMARK    6  A    between atoms: C_11  and  O_18
REMARK    7  A    between atoms: O_18  and  C_19
REMARK                            x       y       z     vdW  Elec       q    Type
REMARK                         _______ _______ _______ _____ _____    ______ ____
ROOT
ATOM      1  C   UNL     1       6.784   0.060  -3.170  0.00  0.00    +0.000 A 
ATOM      2  C   UNL     1       7.421  -1.186  -3.247  0.00  0.00    +0.000 A 
ATOM      3  C   UNL     1       8.799  -1.283  -3.091  0.00  0.00    +0.000 A 
ATOM      4  C   UNL     1       9.558  -0.137  -2.855  0.00  0.00    +0.000 A 
ATOM      5  C   UNL     1       8.931   1.137  -2.778  0.00  0.00    +0.000 A 
ATOM      6  C   UNL     1       9.691   2.305  -2.537  0.00  0.00    +0.000 A 
ATOM      7  C   UNL     1       9.107   3.568  -2.467  0.00  0.00    +0.000 A 
ATOM      8  C   UNL     1       7.742   3.697  -2.644  0.00  0.00    +0.000 A 
ATOM      9  C   UNL     1       6.964   2.562  -2.881  0.00  0.00    +0.000 A 
ATOM     10  C   UNL     1       7.523   1.256  -2.949  0.00  0.00    +0.000 A 
ENDROOT
BRANCH   1  11
ATOM     11  S   UNL     1       5.004   0.056  -3.334  0.00  0.00    +0.000 S 
ATOM     12  O   UNL     1       4.569  -1.312  -3.521  0.00  0.00    +0.000 OA
ATOM     13  O   UNL     1       4.622   1.094  -4.264  0.00  0.00    +0.000 OA
BRANCH  11  14
ATOM     14  N   UNL     1       4.480   0.532  -1.811  0.00  0.00    +0.000 NA
ATOM     15  H   UNL     1       4.816   1.484  -1.666  0.00  0.00    +0.000 HD
BRANCH  14  16
ATOM     16  C   UNL     1       4.876  -0.243  -0.635  0.00  0.00    +0.000 C 
BRANCH  16  18
ATOM     17  C   UNL     1       4.230  -0.765   1.741  0.00  0.00    +0.000 C 
ATOM     18  C   UNL     1       3.874   0.014   0.486  0.00  0.00    +0.000 C 
ENDBRANCH  16  18
ENDBRANCH  14  16
ENDBRANCH  11  14
ENDBRANCH   1  11
BRANCH   4  19
ATOM     19  O   UNL     1      10.922  -0.155  -2.676  0.00  0.00    +0.000 OA
ATOM     20  C   UNL     1      11.601  -1.391  -2.854  0.00  0.00    +0.000 C 
ENDBRANCH   4  19
TORSDOF 5
