REMARK  Name = *****
REMARK  3 active torsions:
REMARK  status: ('A' for Active; 'I' for Inactive)
REMARK    1  A    between atoms: C_4  and  S_6
REMARK    2  A    between atoms: S_6  and  C_9
REMARK    3  A    between atoms: C_12  and  O_19
REMARK                            x       y       z     vdW  Elec       q    Type
REMARK                         _______ _______ _______ _____ _____    ______ ____
ROOT
ATOM      1  C   UNL     1      -3.004   1.094   2.322  0.00  0.00    +0.000 A 
ATOM      2  C   UNL     1      -3.458  -0.229   2.398  0.00  0.00    +0.000 A 
ATOM      3  C   UNL     1      -4.806  -0.474   2.591  0.00  0.00    +0.000 A 
ATOM      4  C   UNL     1      -5.701   0.590   2.711  0.00  0.00    +0.000 A 
ATOM      5  C   UNL     1      -5.277   1.924   2.657  0.00  0.00    +0.000 A 
ATOM      6  C   UNL     1      -3.897   2.196   2.473  0.00  0.00    +0.000 A 
ATOM      7  C   UNL     1      -3.532   3.567   2.460  0.00  0.00    +0.000 A 
ATOM      8  C   UNL     1      -4.481   4.573   2.602  0.00  0.00    +0.000 A 
ATOM      9  C   UNL     1      -5.792   4.196   2.757  0.00  0.00    +0.000 A 
ATOM     10  N   UNL     1      -6.191   2.911   2.783  0.00  0.00    +0.000 NA
ATOM     11 CL   UNL     1      -5.363  -2.105   2.667  0.00  0.00    +0.000 Cl
ENDROOT
BRANCH   1  12
ATOM     12  S   UNL     1      -1.253   1.319   2.023  0.00  0.00    +0.000 S 
ATOM     13  O   UNL     1      -0.642   0.002   2.016  0.00  0.00    +0.000 OA
ATOM     14  O   UNL     1      -0.785   2.324   2.958  0.00  0.00    +0.000 OA
BRANCH  12  18
ATOM     15  C   UNL     1       0.523   1.109  -1.166  0.00  0.00    +0.000 C 
ATOM     16  C   UNL     1      -0.831   1.021  -1.848  0.00  0.00    +0.000 C 
ATOM     17  C   UNL     1      -1.810   1.062  -0.684  0.00  0.00    +0.000 C 
ATOM     18  C   UNL     1      -1.157   1.978   0.360  0.00  0.00    +0.000 C 
ATOM     19  C   UNL     1       0.300   2.161  -0.089  0.00  0.00    +0.000 C 
ENDBRANCH  12  18
ENDBRANCH   1  12
BRANCH   4  20
ATOM     20  O   UNL     1      -7.045   0.327   2.889  0.00  0.00    +0.000 OA
ATOM     21  H   UNL     1      -7.348  -0.559   2.927  0.00  0.00    +0.000 HD
ENDBRANCH   4  20
TORSDOF 3
