REMARK  Name = *****
REMARK  4 active torsions:
REMARK  status: ('A' for Active; 'I' for Inactive)
REMARK    1  A    between atoms: C_1  and  N_2
REMARK    2  A    between atoms: N_2  and  C_3
REMARK    3  A    between atoms: N_2  and  S_4
REMARK    4  A    between atoms: S_4  and  C_7
REMARK                            x       y       z     vdW  Elec       q    Type
REMARK                         _______ _______ _______ _____ _____    ______ ____
ROOT
ATOM      1  C   UNL     1       4.751  -0.909   1.371  0.00  0.00    +0.000 A 
ATOM      2  C   UNL     1       5.443  -0.948   2.595  0.00  0.00    +0.000 A 
ATOM      3  C   UNL     1       6.829  -0.953   2.618  0.00  0.00    +0.000 A 
ATOM      4  C   UNL     1       7.540  -0.928   1.422  0.00  0.00    +0.000 A 
ATOM      5  C   UNL     1       6.881  -0.908   0.166  0.00  0.00    +0.000 A 
ATOM      6  C   UNL     1       7.603  -0.890  -1.054  0.00  0.00    +0.000 A 
ATOM      7  C   UNL     1       6.969  -0.879  -2.293  0.00  0.00    +0.000 A 
ATOM      8  C   UNL     1       5.589  -0.888  -2.347  0.00  0.00    +0.000 A 
ATOM      9  C   UNL     1       4.850  -0.903  -1.163  0.00  0.00    +0.000 A 
ATOM     10  C   UNL     1       5.453  -0.909   0.125  0.00  0.00    +0.000 A 
ATOM     11 CL   UNL     1       9.271  -0.925   1.566  0.00  0.00    +0.000 Cl
ENDROOT
BRANCH   1  12
ATOM     12  S   UNL     1       2.956  -0.911   1.512  0.00  0.00    +0.000 S 
ATOM     13  O   UNL     1       2.634  -1.398   2.839  0.00  0.00    +0.000 OA
ATOM     14  O   UNL     1       2.383  -1.562   0.354  0.00  0.00    +0.000 OA
BRANCH  12  16
ATOM     15  C   UNL     1       2.974   1.563   2.618  0.00  0.00    +0.000 C 
ATOM     16  N   UNL     1       2.553   0.742   1.469  0.00  0.00    +0.000 NA
ATOM     17  C   UNL     1       2.671   1.444   0.182  0.00  0.00    +0.000 C 
ENDBRANCH  12  16
ENDBRANCH   1  12
TORSDOF 2
