REMARK  Name = *****
REMARK  8 active torsions:
REMARK  status: ('A' for Active; 'I' for Inactive)
REMARK    1  A    between atoms: C_1  and  C_2
REMARK    2  A    between atoms: C_2  and  O_3
REMARK    3  A    between atoms: O_3  and  C_4
REMARK    4  A    between atoms: N_6  and  S_13
REMARK    5  A    between atoms: S_13  and  C_16
REMARK    6  A    between atoms: C_16  and  C_17
REMARK    7  A    between atoms: C_16  and  C_18
REMARK    8  A    between atoms: C_16  and  C_19
REMARK                            x       y       z     vdW  Elec       q    Type
REMARK                         _______ _______ _______ _____ _____    ______ ____
ROOT
ATOM      1  C   UNL     1       4.509  -1.038   1.467  0.00  0.00    +0.000 A 
ATOM      2  N   UNL     1       5.081  -2.228   1.609  0.00  0.00    +0.000 NA
ATOM      3  N   UNL     1       6.400  -1.927   1.797  0.00  0.00    +0.000 N 
ATOM      4  C   UNL     1       6.675  -0.571   1.672  0.00  0.00    +0.000 A 
ATOM      5  C   UNL     1       7.851   0.201   1.724  0.00  0.00    +0.000 A 
ATOM      6  C   UNL     1       7.740   1.587   1.562  0.00  0.00    +0.000 A 
ATOM      7  C   UNL     1       6.504   2.193   1.359  0.00  0.00    +0.000 A 
ATOM      8  C   UNL     1       5.339   1.425   1.312  0.00  0.00    +0.000 A 
ATOM      9  C   UNL     1       5.429   0.029   1.468  0.00  0.00    +0.000 A 
ENDROOT
BRANCH   3  10
ATOM     10  S   UNL     1       7.628  -3.161   1.869  0.00  0.00    +0.000 S 
ATOM     11  O   UNL     1       8.793  -2.536   2.473  0.00  0.00    +0.000 OA
ATOM     12  O   UNL     1       6.986  -4.280   2.537  0.00  0.00    +0.000 OA
BRANCH  10  13
ATOM     13  C   UNL     1       8.033  -3.655   0.164  0.00  0.00    +0.000 C 
ATOM     14  C   UNL     1       8.607  -2.470  -0.622  0.00  0.00    +0.000 C 
ATOM     15  C   UNL     1       9.090  -4.771   0.233  0.00  0.00    +0.000 C 
ATOM     16  C   UNL     1       6.785  -4.191  -0.551  0.00  0.00    +0.000 C 
ENDBRANCH  10  13
ENDBRANCH   3  10
BRANCH   1  17
ATOM     17  O   UNL     1       3.175  -0.921   1.284  0.00  0.00    +0.000 OA
BRANCH  17  19
ATOM     18  C   UNL     1       0.967  -1.817   1.298  0.00  0.00    +0.000 C 
ATOM     19  C   UNL     1       2.443  -2.135   1.457  0.00  0.00    +0.000 C 
ENDBRANCH  17  19
ENDBRANCH   1  17
TORSDOF 4
