REMARK  Name = *****
REMARK  9 active torsions:
REMARK  status: ('A' for Active; 'I' for Inactive)
REMARK    1  A    between atoms: C_1  and  C_2
REMARK    2  A    between atoms: C_2  and  N_3
REMARK    3  A    between atoms: N_3  and  C_4
REMARK    4  A    between atoms: N_3  and  S_6
REMARK    5  A    between atoms: C_4  and  C_5
REMARK    6  A    between atoms: S_6  and  C_9
REMARK    7  A    between atoms: C_12  and  O_19
REMARK    8  A    between atoms: O_19  and  C_20
REMARK    9  A    between atoms: C_20  and  C_21
REMARK                            x       y       z     vdW  Elec       q    Type
REMARK                         _______ _______ _______ _____ _____    ______ ____
ROOT
ATOM      1  C   UNL     1       5.528  -2.848  -0.538  0.00  0.00    +0.000 A 
ATOM      2  C   UNL     1       4.626  -3.847  -0.129  0.00  0.00    +0.000 A 
ATOM      3  C   UNL     1       4.981  -5.188  -0.173  0.00  0.00    +0.000 A 
ATOM      4  C   UNL     1       6.244  -5.556  -0.631  0.00  0.00    +0.000 A 
ATOM      5  C   UNL     1       7.176  -4.566  -1.044  0.00  0.00    +0.000 A 
ATOM      6  C   UNL     1       8.461  -4.945  -1.499  0.00  0.00    +0.000 A 
ATOM      7  C   UNL     1       9.405  -4.014  -1.920  0.00  0.00    +0.000 A 
ATOM      8  C   UNL     1       9.084  -2.671  -1.898  0.00  0.00    +0.000 A 
ATOM      9  C   UNL     1       7.823  -2.265  -1.454  0.00  0.00    +0.000 A 
ATOM     10  C   UNL     1       6.829  -3.182  -1.012  0.00  0.00    +0.000 A 
ENDROOT
BRANCH   1  11
ATOM     11  S   UNL     1       4.866  -1.186  -0.415  0.00  0.00    +0.000 S 
ATOM     12  O   UNL     1       3.518  -1.238  -0.947  0.00  0.00    +0.000 OA
ATOM     13  O   UNL     1       5.804  -0.198  -0.896  0.00  0.00    +0.000 OA
BRANCH  11  14
ATOM     14  N   UNL     1       4.750  -0.982   1.278  0.00  0.00    +0.000 NA
BRANCH  14  16
ATOM     15  C   UNL     1       5.957  -1.871   3.221  0.00  0.00    +0.000 C 
ATOM     16  C   UNL     1       6.031  -0.931   2.029  0.00  0.00    +0.000 C 
ENDBRANCH  14  16
BRANCH  14  17
ATOM     17  C   UNL     1       3.728  -0.007   1.748  0.00  0.00    +0.000 C 
ATOM     18  C   UNL     1       3.948   1.405   1.230  0.00  0.00    +0.000 C 
ENDBRANCH  14  17
ENDBRANCH  11  14
ENDBRANCH   1  11
BRANCH   4  19
ATOM     19  O   UNL     1       6.670  -6.863  -0.699  0.00  0.00    +0.000 OA
BRANCH  19  20
ATOM     20  C   UNL     1       5.702  -7.894  -0.516  0.00  0.00    +0.000 C 
ATOM     21  C   UNL     1       6.376  -9.223  -0.805  0.00  0.00    +0.000 C 
ENDBRANCH  19  20
ENDBRANCH   4  19
TORSDOF 6
