REMARK  Name = *****
REMARK  3 active torsions:
REMARK  status: ('A' for Active; 'I' for Inactive)
REMARK    1  A    between atoms: C_3  and  N_4
REMARK    2  A    between atoms: N_4  and  S_5
REMARK    3  A    between atoms: S_5  and  C_8
REMARK                            x       y       z     vdW  Elec       q    Type
REMARK                         _______ _______ _______ _____ _____    ______ ____
ROOT
ATOM      1  C   UNL     1      -3.885  -1.987  -2.691  0.00  0.00    +0.000 A 
ATOM      2  C   UNL     1      -4.239  -3.283  -3.137  0.00  0.00    +0.000 A 
ATOM      3  C   UNL     1      -5.135  -3.475  -4.198  0.00  0.00    +0.000 A 
ATOM      4  C   UNL     1      -5.649  -2.328  -4.780  0.00  0.00    +0.000 A 
ATOM      5  C   UNL     1      -6.613  -2.225  -5.913  0.00  0.00    +0.000 C 
ATOM      6  C   UNL     1      -6.809  -0.690  -6.106  0.00  0.00    +0.000 C 
ATOM      7  C   UNL     1      -5.940  -0.080  -5.061  0.00  0.00    +0.000 A 
ATOM      8  C   UNL     1      -5.301  -1.067  -4.333  0.00  0.00    +0.000 A 
ATOM      9  C   UNL     1      -4.433  -0.824  -3.296  0.00  0.00    +0.000 A 
ATOM     10  C   UNL     1      -4.224   0.547  -2.997  0.00  0.00    +0.000 A 
ATOM     11  C   UNL     1      -4.869   1.562  -3.732  0.00  0.00    +0.000 A 
ATOM     12  C   UNL     1      -5.744   1.265  -4.786  0.00  0.00    +0.000 A 
ENDROOT
BRANCH   1  13
ATOM     13  S   UNL     1      -2.730  -1.856  -1.350  0.00  0.00    +0.000 S 
ATOM     14  O   UNL     1      -2.248  -3.185  -1.032  0.00  0.00    +0.000 OA
ATOM     15  O   UNL     1      -3.300  -0.997  -0.337  0.00  0.00    +0.000 OA
BRANCH  13  16
ATOM     16  N   UNL     1      -1.410  -1.071  -2.096  0.00  0.00    +0.000 NA
ATOM     17  H   UNL     1      -0.880  -1.762  -2.627  0.00  0.00    +0.000 HD
BRANCH  16  20
ATOM     18  C   UNL     1      -0.625   1.035  -0.800  0.00  0.00    +0.000 C 
ATOM     19  C   UNL     1       0.532   0.554  -1.626  0.00  0.00    +0.000 C 
ATOM     20  C   UNL     1      -0.500  -0.422  -1.134  0.00  0.00    +0.000 C 
ENDBRANCH  16  20
ENDBRANCH  13  16
ENDBRANCH   1  13
TORSDOF 3
