REMARK  Name = *****
REMARK  5 active torsions:
REMARK  status: ('A' for Active; 'I' for Inactive)
REMARK    1  A    between atoms: C_1  and  C_2
REMARK    2  A    between atoms: C_2  and  C_4
REMARK    3  A    between atoms: C_7  and  O_10
REMARK    4  A    between atoms: C_14  and  C_15
REMARK    5  A    between atoms: C_15  and  C_17
REMARK                            x       y       z     vdW  Elec       q    Type
REMARK                         _______ _______ _______ _____ _____    ______ ____
ROOT
ATOM      1  C   UNL     1       3.393   0.595  -1.271  0.00  0.00    +0.000 A 
ATOM      2  C   UNL     1       4.432  -0.370  -1.523  0.00  0.00    +0.000 A 
ATOM      3  C   UNL     1       5.094  -0.262  -2.786  0.00  0.00    +0.000 A 
ATOM      4  C   UNL     1       4.685   0.727  -3.710  0.00  0.00    +0.000 A 
ATOM      5  C   UNL     1       3.634   1.596  -3.457  0.00  0.00    +0.000 A 
ATOM      6  C   UNL     1       2.999   1.544  -2.231  0.00  0.00    +0.000 A 
ATOM      7  C   UNL     1       6.145  -1.150  -3.115  0.00  0.00    +0.000 A 
ATOM      8  C   UNL     1       6.595  -2.123  -2.232  0.00  0.00    +0.000 A 
ATOM      9  C   UNL     1       5.969  -2.261  -1.009  0.00  0.00    +0.000 A 
ATOM     10  C   UNL     1       4.889  -1.429  -0.662  0.00  0.00    +0.000 A 
ENDROOT
BRANCH   1  12
ATOM     11  C   UNL     1       1.232   0.842   0.091  0.00  0.00    +0.000 C 
ATOM     12  C   UNL     1       2.736   0.752   0.050  0.00  0.00    +0.000 C 
ATOM     13  O   UNL     1       3.423   0.862   1.058  0.00  0.00    +0.000 OA
ENDBRANCH   1  12
BRANCH  10  14
ATOM     14  C   UNL     1       4.249  -1.843   0.614  0.00  0.00    +0.000 C 
ATOM     15  O   UNL     1       4.940  -1.971   1.622  0.00  0.00    +0.000 OA
ATOM     16  C   UNL     1       2.818  -2.311   0.571  0.00  0.00    +0.000 C 
ENDBRANCH  10  14
BRANCH   4  17
ATOM     17  O   UNL     1       5.307   0.917  -4.918  0.00  0.00    +0.000 OA
ATOM     18  H   UNL     1       6.027   0.371  -5.165  0.00  0.00    +0.000 HD
ENDBRANCH   4  17
TORSDOF 3
