REMARK  Name = *****
REMARK  4 active torsions:
REMARK  status: ('A' for Active; 'I' for Inactive)
REMARK    1  A    between atoms: C_1  and  C_2
REMARK    2  A    between atoms: C_4  and  S_13
REMARK    3  A    between atoms: C_11  and  O_12
REMARK    4  A    between atoms: S_13  and  N_16
REMARK                            x       y       z     vdW  Elec       q    Type
REMARK                         _______ _______ _______ _____ _____    ______ ____
ROOT
ATOM      1  C   UNL     1       1.058   0.307   0.511  0.00  0.00    +0.000 C 
ATOM      2  C   UNL     1       2.544   0.181   0.347  0.00  0.00    +0.000 A 
ATOM      3  C   UNL     1       3.166  -1.065   0.374  0.00  0.00    +0.000 A 
ATOM      4  C   UNL     1       4.559  -1.164   0.218  0.00  0.00    +0.000 A 
ATOM      5  C   UNL     1       5.372  -0.008   0.041  0.00  0.00    +0.000 A 
ATOM      6  C   UNL     1       6.779   0.016  -0.117  0.00  0.00    +0.000 A 
ATOM      7  C   UNL     1       7.463   1.216  -0.284  0.00  0.00    +0.000 A 
ATOM      8  C   UNL     1       6.728   2.381  -0.294  0.00  0.00    +0.000 A 
ATOM      9  N   UNL     1       5.388   2.418  -0.152  0.00  0.00    +0.000 NA
ATOM     10  C   UNL     1       4.733   1.248   0.015  0.00  0.00    +0.000 A 
ATOM     11  C   UNL     1       3.348   1.308   0.166  0.00  0.00    +0.000 A 
ENDROOT
BRANCH   4  12
ATOM     12  S   UNL     1       5.268  -2.797   0.247  0.00  0.00    +0.000 S 
ATOM     13  O   UNL     1       6.341  -2.800   1.218  0.00  0.00    +0.000 OA
ATOM     14  O   UNL     1       4.196  -3.768   0.327  0.00  0.00    +0.000 OA
BRANCH  12  15
ATOM     15  N   UNL     1       5.947  -2.942  -1.303  0.00  0.00    +0.000 NA
ATOM     16  C   UNL     1       5.015  -2.893  -2.464  0.00  0.00    +0.000 C 
ATOM     17  C   UNL     1       5.320  -4.140  -3.282  0.00  0.00    +0.000 C 
ATOM     18  C   UNL     1       6.777  -4.410  -2.969  0.00  0.00    +0.000 C 
ATOM     19  C   UNL     1       6.844  -4.114  -1.480  0.00  0.00    +0.000 C 
ENDBRANCH  12  15
ENDBRANCH   4  12
BRANCH  11  20
ATOM     20  O   UNL     1       2.746   2.548   0.134  0.00  0.00    +0.000 OA
ATOM     21  H   UNL     1       1.817   2.621   0.233  0.00  0.00    +0.000 HD
ENDBRANCH  11  20
TORSDOF 3
