REMARK  Name = *****
REMARK  3 active torsions:
REMARK  status: ('A' for Active; 'I' for Inactive)
REMARK    1  A    between atoms: C_1  and  N_2
REMARK    2  A    between atoms: N_2  and  S_3
REMARK    3  A    between atoms: S_3  and  C_6
REMARK                            x       y       z     vdW  Elec       q    Type
REMARK                         _______ _______ _______ _____ _____    ______ ____
ROOT
ATOM      1  C   UNL     1       4.842  -0.382  -1.578  0.00  0.00    +0.000 A 
ATOM      2  C   UNL     1       5.507   0.854  -1.571  0.00  0.00    +0.000 A 
ATOM      3  C   UNL     1       6.893   0.896  -1.539  0.00  0.00    +0.000 A 
ATOM      4  C   UNL     1       7.623  -0.291  -1.513  0.00  0.00    +0.000 A 
ATOM      5  C   UNL     1       6.983  -1.558  -1.510  0.00  0.00    +0.000 A 
ATOM      6  C   UNL     1       7.713  -2.773  -1.483  0.00  0.00    +0.000 A 
ATOM      7  C   UNL     1       7.084  -4.016  -1.473  0.00  0.00    +0.000 A 
ATOM      8  C   UNL     1       5.704  -4.080  -1.484  0.00  0.00    +0.000 A 
ATOM      9  C   UNL     1       4.956  -2.902  -1.513  0.00  0.00    +0.000 A 
ATOM     10  C   UNL     1       5.559  -1.615  -1.533  0.00  0.00    +0.000 A 
ATOM     11 CL   UNL     1       9.351  -0.124  -1.488  0.00  0.00    +0.000 Cl
ENDROOT
BRANCH   1  12
ATOM     12  S   UNL     1       3.056  -0.320  -1.664  0.00  0.00    +0.000 S 
ATOM     13  O   UNL     1       2.653   1.069  -1.725  0.00  0.00    +0.000 OA
ATOM     14  O   UNL     1       2.516  -1.210  -0.662  0.00  0.00    +0.000 OA
BRANCH  12  16
ATOM     15  C   UNL     1       3.264  -0.394  -4.371  0.00  0.00    +0.000 C 
ATOM     16  N   UNL     1       2.727  -0.993  -3.161  0.00  0.00    +0.000 NA
ATOM     17  H   UNL     1       3.072  -1.953  -3.132  0.00  0.00    +0.000 HD
ENDBRANCH  12  16
ENDBRANCH   1  12
TORSDOF 2
