REMARK  Name = *****
REMARK  2 active torsions:
REMARK  status: ('A' for Active; 'I' for Inactive)
REMARK    1  A    between atoms: N_4  and  S_6
REMARK    2  A    between atoms: S_6  and  C_9
REMARK                            x       y       z     vdW  Elec       q    Type
REMARK                         _______ _______ _______ _____ _____    ______ ____
ROOT
ATOM      1  C   UNL     1      -3.143  -0.510   2.198  0.00  0.00    +0.000 A 
ATOM      2  C   UNL     1      -3.313  -1.893   2.042  0.00  0.00    +0.000 A 
ATOM      3  C   UNL     1      -4.583  -2.446   2.121  0.00  0.00    +0.000 A 
ATOM      4  C   UNL     1      -5.686  -1.626   2.358  0.00  0.00    +0.000 A 
ATOM      5  C   UNL     1      -5.546  -0.223   2.527  0.00  0.00    +0.000 A 
ATOM      6  C   UNL     1      -6.655   0.625   2.772  0.00  0.00    +0.000 A 
ATOM      7  C   UNL     1      -6.513   2.000   2.941  0.00  0.00    +0.000 A 
ATOM      8  C   UNL     1      -5.254   2.569   2.872  0.00  0.00    +0.000 A 
ATOM      9  C   UNL     1      -4.143   1.760   2.632  0.00  0.00    +0.000 A 
ATOM     10  C   UNL     1      -4.247   0.356   2.451  0.00  0.00    +0.000 A 
ATOM     11 CL   UNL     1      -7.228  -2.420   2.430  0.00  0.00    +0.000 Cl
ENDROOT
BRANCH   1  12
ATOM     12  S   UNL     1      -1.470   0.107   2.064  0.00  0.00    +0.000 S 
ATOM     13  O   UNL     1      -0.607  -0.986   1.663  0.00  0.00    +0.000 OA
ATOM     14  O   UNL     1      -1.179   0.876   3.254  0.00  0.00    +0.000 OA
BRANCH  12  18
ATOM     15  C   UNL     1      -0.362   2.358  -0.925  0.00  0.00    +0.000 C 
ATOM     16  C   UNL     1      -0.824   1.051  -1.536  0.00  0.00    +0.000 C 
ATOM     17  C   UNL     1      -1.916   0.589  -0.581  0.00  0.00    +0.000 C 
ATOM     18  N   UNL     1      -1.555   1.169   0.742  0.00  0.00    +0.000 NA
ATOM     19  C   UNL     1      -0.361   2.034   0.560  0.00  0.00    +0.000 C 
ENDBRANCH  12  18
ENDBRANCH   1  12
TORSDOF 2
