REMARK  Name = *****
REMARK  7 active torsions:
REMARK  status: ('A' for Active; 'I' for Inactive)
REMARK    1  A    between atoms: C_1  and  C_2
REMARK    2  A    between atoms: C_2  and  O_3
REMARK    3  A    between atoms: O_3  and  C_4
REMARK    4  A    between atoms: C_7  and  S_10
REMARK    5  A    between atoms: S_10  and  N_13
REMARK    6  A    between atoms: N_13  and  C_14
REMARK    7  A    between atoms: C_14  and  C_15
REMARK                            x       y       z     vdW  Elec       q    Type
REMARK                         _______ _______ _______ _____ _____    ______ ____
ROOT
ATOM      1  C   UNL     1       4.495   0.915  -1.214  0.00  0.00    +0.000 A 
ATOM      2  C   UNL     1       5.069   2.181  -0.976  0.00  0.00    +0.000 A 
ATOM      3  C   UNL     1       6.448   2.378  -1.238  0.00  0.00    +0.000 A 
ATOM      4  C   UNL     1       7.209   1.273  -1.714  0.00  0.00    +0.000 A 
ATOM      5  C   UNL     1       6.613   0.030  -1.953  0.00  0.00    +0.000 A 
ATOM      6  C   UNL     1       5.259  -0.147  -1.705  0.00  0.00    +0.000 A 
ATOM      7  C   UNL     1       6.954   3.681  -0.995  0.00  0.00    +0.000 A 
ATOM      8  C   UNL     1       6.138   4.698  -0.516  0.00  0.00    +0.000 A 
ATOM      9  C   UNL     1       4.819   4.399  -0.283  0.00  0.00    +0.000 A 
ATOM     10  N   UNL     1       4.291   3.180  -0.500  0.00  0.00    +0.000 NA
ENDROOT
BRANCH   4  11
ATOM     11  S   UNL     1       8.967   1.388  -2.006  0.00  0.00    +0.000 S 
ATOM     12  O   UNL     1       9.431   0.097  -2.465  0.00  0.00    +0.000 OA
ATOM     13  O   UNL     1       9.224   2.589  -2.767  0.00  0.00    +0.000 OA
BRANCH  11  14
ATOM     14  N   UNL     1       9.595   1.620  -0.472  0.00  0.00    +0.000 NA
ATOM     15  H   UNL     1       9.222   2.504  -0.127  0.00  0.00    +0.000 HD
BRANCH  14  16
ATOM     16  C   UNL     1       9.339   0.622   0.553  0.00  0.00    +0.000 C 
BRANCH  16  17
ATOM     17  C   UNL     1      10.295   0.905   1.668  0.00  0.00    +0.000 C 
ATOM     18  C   UNL     1       9.943   1.350   2.882  0.00  0.00    +0.000 C 
ENDBRANCH  16  17
ENDBRANCH  14  16
ENDBRANCH  11  14
ENDBRANCH   4  11
BRANCH   1  19
ATOM     19  O   UNL     1       3.150   0.809  -0.929  0.00  0.00    +0.000 OA
BRANCH  19  21
ATOM     20  C   UNL     1       1.033  -0.272  -0.811  0.00  0.00    +0.000 C 
ATOM     21  C   UNL     1       2.495  -0.429  -1.186  0.00  0.00    +0.000 C 
ENDBRANCH  19  21
ENDBRANCH   1  19
TORSDOF 6
