REMARK  Name = *****
REMARK  2 active torsions:
REMARK  status: ('A' for Active; 'I' for Inactive)
REMARK    1  A    between atoms: N_6  and  S_13
REMARK    2  A    between atoms: S_13  and  C_16
REMARK                            x       y       z     vdW  Elec       q    Type
REMARK                         _______ _______ _______ _____ _____    ______ ____
ROOT
ATOM      1  C   UNL     1      -2.461   0.917   1.032  0.00  0.00    +0.000 C 
ATOM      2  C   UNL     1      -1.762   1.732  -0.048  0.00  0.00    +0.000 C 
ATOM      3  C   UNL     1      -0.961   0.704  -0.850  0.00  0.00    +0.000 C 
ATOM      4  C   UNL     1      -1.666  -0.669  -0.612  0.00  0.00    +0.000 C 
ATOM      5  C   UNL     1      -2.852  -0.356   0.298  0.00  0.00    +0.000 C 
ATOM      6  N   UNL     1      -0.628  -1.538   0.001  0.00  0.00    +0.000 N 
ATOM      7  C   UNL     1       0.586  -0.825   0.162  0.00  0.00    +0.000 A 
ATOM      8  C   UNL     1       1.802  -1.253   0.664  0.00  0.00    +0.000 A 
ATOM      9  C   UNL     1       2.864  -0.345   0.701  0.00  0.00    +0.000 A 
ATOM     10  C   UNL     1       2.702   0.965   0.228  0.00  0.00    +0.000 A 
ATOM     11  C   UNL     1       1.477   1.381  -0.292  0.00  0.00    +0.000 A 
ATOM     12  C   UNL     1       0.427   0.474  -0.318  0.00  0.00    +0.000 A 
ENDROOT
BRANCH   6  13
ATOM     13  S   UNL     1      -0.927  -3.080   0.582  0.00  0.00    +0.000 S 
ATOM     14  O   UNL     1      -2.227  -3.473   0.057  0.00  0.00    +0.000 OA
ATOM     15  O   UNL     1       0.227  -3.906   0.262  0.00  0.00    +0.000 OA
BRANCH  13  16
ATOM     16  C   UNL     1      -1.038  -2.869   2.430  0.00  0.00    +0.000 C 
ATOM     17  F   UNL     1       0.170  -2.564   2.987  0.00  0.00    +0.000 F 
ATOM     18  F   UNL     1      -1.893  -1.872   2.797  0.00  0.00    +0.000 F 
ATOM     19  F   UNL     1      -1.475  -4.004   3.049  0.00  0.00    +0.000 F 
ENDBRANCH  13  16
ENDBRANCH   6  13
TORSDOF 2
