@<TRIPOS>MOLECULE
PubChem_ 
34 37 0 0 0
SMALL
USER_CHARGES
#CGenFF output mol2 file
@<TRIPOS>ATOM
1	C1    88.2050    70.2700    87.4330	C.3	1	UNL1     0.1080
2	C2    87.5440    70.8500    88.6700	C.ar	1	UNL1    -0.0060
3	C3    88.1420    70.6270    89.9320	C.ar	1	UNL1    -0.1200
4	C4    87.5730    71.1270    91.0980	C.ar	1	UNL1    -0.1150
5	C5    86.4000    71.8590    91.0190	C.ar	1	UNL1    -0.1150
6	C6    85.7980    72.0870    89.7770	C.ar	1	UNL1    -0.1200
7	C7    86.3420    71.5860    88.5750	C.ar	1	UNL1    -0.0000
8	C8    85.7130    71.8300    87.2530	C.ar	1	UNL1     0.0130
9	C9    84.4320    72.4040    87.1110	C.ar	1	UNL1    -0.1210
10	C10    83.8660    72.6600    85.8550	C.ar	1	UNL1    -0.1150
11	C11    84.5640    72.3470    84.6980	C.ar	1	UNL1    -0.1160
12	C12    85.8220    71.7630    84.7980	C.ar	1	UNL1    -0.1150
13	C13    86.3810    71.4990    86.0610	C.ar	1	UNL1    -0.0110
14	C14    87.7100    70.8490    86.1060	C.2	1	UNL1     0.4360
15	C15    87.5220    66.4660    87.5560	C.2	1	UNL1    -0.1810
16	C16    88.8800    66.4750    86.8730	C.2	1	UNL1    -0.2150
17	C17    89.2150    67.9360    86.8120	C.2	1	UNL1     0.5290
18	C18    88.1410    68.7740    87.3740	C.2	1	UNL1     0.5530
19	C19    87.2060    67.9060    87.7910	C.2	1	UNL1    -0.2950
20	O1    88.4010    70.7760    85.0830	O.2	1	UNL1    -0.4830
21	O2    90.2560    68.3860    86.3590	O.2	1	UNL1    -0.5410
22	O3    89.6020    70.6500    87.4840	O.3	1	UNL1    -0.6350
23	H1    89.0171    70.0830    89.9886	H	1	UNL1     0.1150
24	H2    88.0198    70.9546    92.0121	H	1	UNL1     0.1150
25	H3    85.9695    72.2367    91.8775	H	1	UNL1     0.1150
26	H4    84.9274    72.6398    89.7384	H	1	UNL1     0.1150
27	H5    83.8948    72.6429    87.9591	H	1	UNL1     0.1150
28	H6    82.9268    73.0828    85.7906	H	1	UNL1     0.1150
29	H7    84.1538    72.5456    83.7721	H	1	UNL1     0.1150
30	H8    86.3470    71.5226    83.9427	H	1	UNL1     0.1150
31	H9    86.9460    65.6460    87.8026	H	1	UNL1     0.1250
32	H10    89.4349    65.6734    86.5346	H	1	UNL1     0.1250
33	H11    86.3301    68.2126    88.2424	H	1	UNL1     0.1020
34	H12    90.0618    70.2965    86.7065	H	1	UNL1     0.3930
@<TRIPOS>BOND
1	1	14	1
2	1	18	1
3	1	22	1
4	1	2	1
5	2	7	2
6	2	3	1
7	3	4	2
8	3	23	1
9	4	5	1
10	4	24	1
11	5	6	2
12	5	25	1
13	6	7	1
14	6	26	1
15	7	8	1
16	8	13	2
17	8	9	1
18	9	10	2
19	9	27	1
20	10	11	1
21	10	28	1
22	11	12	2
23	11	29	1
24	12	13	1
25	12	30	1
26	13	14	1
27	14	20	2
28	15	16	2
29	15	19	1
30	15	31	1
31	16	17	1
32	16	32	1
33	17	21	2
34	17	18	1
35	18	19	2
36	19	33	1
37	22	34	1
