@<TRIPOS>MOLECULE
TOP6 
41 46 0 0 0
SMALL
USER_CHARGES
#CGenFF output mol2 file
@<TRIPOS>ATOM
1	N1    89.5780    64.7030    87.0780	N.am	1	TOP6    -0.5730
2	N2    89.0380    67.9860    86.7410	N.ar	1	TOP6    -0.9870
3	N3    89.0870    66.3520    85.0150	N.ar	1	TOP6    -0.2020
4	N4    85.0540    65.5360    87.5720	N.am	1	TOP6    -0.3120
5	C1    89.7750    64.1920    85.7940	C.2	1	TOP6     0.5820
6	C2    88.4400    65.6220    87.2240	C.3	1	TOP6     0.1530
7	C3    88.8650    66.7780    86.3200	C.ar	1	TOP6     0.4700
8	C4    89.4460    68.9380    85.7890	C.ar	1	TOP6     0.4480
9	C5    89.6040    70.2640    86.1970	C.ar	1	TOP6    -0.1420
10	C6    90.0120    71.2450    85.2880	C.ar	1	TOP6    -0.1430
11	C7    90.2660    70.9070    83.9590	C.ar	1	TOP6    -0.1190
12	C8    90.1140    69.5870    83.5370	C.ar	1	TOP6    -0.1440
13	C9    89.7050    68.6120    84.4530	C.ar	1	TOP6     0.1940
14	C10    89.5300    67.2060    84.0300	C.ar	1	TOP6     0.3710
15	C11    88.8720    64.9200    84.7750	C.3	1	TOP6     0.0350
16	C12    87.4230    64.5600    85.1500	C.3	1	TOP6    -0.1440
17	C13    87.1610    64.9910    86.6200	C.3	1	TOP6     0.0210
18	C14    86.0070    66.0240    86.6940	C.2	1	TOP6     0.1050
19	C15    85.3850    64.2730    88.0290	C.ar	1	TOP6     0.3210
20	C16    84.6430    63.4730    88.8710	C.ar	1	TOP6    -0.3350
21	C17    85.1610    62.2140    89.1790	C.ar	1	TOP6    -0.2100
22	C18    86.3890    61.7920    88.6390	C.ar	1	TOP6    -0.1550
23	C19    87.1230    62.6230    87.7860	C.ar	1	TOP6    -0.3070
24	C20    86.6090    63.8760    87.4890	C.ar	1	TOP6     0.3950
25	O1    90.4160    63.1730    85.5870	O.2	1	TOP6    -0.5100
26	O2    89.7700    66.8590    82.8790	O.2	1	TOP6    -0.5000
27	O3    85.9270    67.0770    86.0830	O.2	1	TOP6    -0.3860
28	H1    90.1614    64.4642    87.8342	H	1	TOP6     0.3340
29	H2    84.2427    66.0263    87.8377	H	1	TOP6     0.3530
30	H3    88.2271    65.8813    88.2400	H	1	TOP6     0.0900
31	H4    89.4179    70.5224    87.1786	H	1	TOP6     0.1150
32	H5    90.1255    72.2217    85.6014	H	1	TOP6     0.1150
33	H6    90.5659    71.6326    83.2892	H	1	TOP6     0.1150
34	H7    90.3020    69.3308    82.5551	H	1	TOP6     0.1150
35	H8    89.0724    64.6620    83.7561	H	1	TOP6     0.0900
36	H9    87.2791    63.5040    85.0543	H	1	TOP6     0.0900
37	H10    86.7432    65.0667    84.4972	H	1	TOP6     0.0900
38	H11    83.7410    63.7919    89.2580	H	1	TOP6     0.1960
39	H12    84.6376    61.5865    89.8093	H	1	TOP6     0.1270
40	H13    86.7538    60.8560    88.8753	H	1	TOP6     0.1270
41	H14    88.0230    62.3117    87.3884	H	1	TOP6     0.1170
@<TRIPOS>BOND
1	1	5	1
2	1	6	1
3	1	28	1
4	2	8	1
5	2	7	2
6	3	14	1
7	3	15	1
8	3	7	1
9	4	18	1
10	4	19	1
11	4	29	1
12	5	15	1
13	5	25	2
14	6	7	1
15	6	17	1
16	6	30	1
17	8	13	2
18	8	9	1
19	9	10	2
20	9	31	1
21	10	11	1
22	10	32	1
23	11	12	2
24	11	33	1
25	12	13	1
26	12	34	1
27	13	14	1
28	14	26	2
29	15	16	1
30	15	35	1
31	16	17	1
32	16	36	1
33	16	37	1
34	17	18	1
35	17	24	1
36	18	27	2
37	19	24	2
38	19	20	1
39	20	21	2
40	20	38	1
41	21	22	1
42	21	39	1
43	22	23	2
44	22	40	1
45	23	24	1
46	23	41	1
