@<TRIPOS>MOLECULE
UNPD_ind 
29 34 0 0 0
SMALL
USER_CHARGES
#CGenFF output mol2 file
@<TRIPOS>ATOM
1	N1    89.5780    64.7030    87.0780	N.am	1	UNL1     0.0000
2	N2    89.0380    67.9860    86.7410	N.ar	1	UNL1     0.0000
3	N3    89.0870    66.3520    85.0150	N.ar	1	UNL1     0.0000
4	N4    85.0540    65.5360    87.5720	N.am	1	UNL1     0.0000
5	C1    89.7750    64.1920    85.7940	C.2	1	UNL1     0.0000
6	C2    88.4400    65.6220    87.2240	C.3	1	UNL1     0.0000
7	C3    88.8650    66.7780    86.3200	C.ar	1	UNL1     0.0000
8	C4    89.4460    68.9380    85.7890	C.ar	1	UNL1     0.0000
9	C5    89.6040    70.2640    86.1970	C.ar	1	UNL1     0.0000
10	C6    90.0120    71.2450    85.2880	C.ar	1	UNL1     0.0000
11	C7    90.2660    70.9070    83.9590	C.ar	1	UNL1     0.0000
12	C8    90.1140    69.5870    83.5370	C.ar	1	UNL1     0.0000
13	C9    89.7050    68.6120    84.4530	C.ar	1	UNL1     0.0000
14	C10    89.5300    67.2060    84.0300	C.ar	1	UNL1     0.0000
15	C11    88.8720    64.9200    84.7750	C.3	1	UNL1     0.0000
16	C12    87.4230    64.5600    85.1500	C.3	1	UNL1     0.0000
17	C13    87.1610    64.9910    86.6200	C.3	1	UNL1     0.0000
18	C14    86.0070    66.0240    86.6940	C.2	1	UNL1     0.0000
19	C15    85.3850    64.2730    88.0290	C.ar	1	UNL1     0.0000
20	C16    84.6430    63.4730    88.8710	C.ar	1	UNL1     0.0000
21	C17    85.1610    62.2140    89.1790	C.ar	1	UNL1     0.0000
22	C18    86.3890    61.7920    88.6390	C.ar	1	UNL1     0.0000
23	C19    87.1230    62.6230    87.7860	C.ar	1	UNL1     0.0000
24	C20    86.6090    63.8760    87.4890	C.ar	1	UNL1     0.0000
25	O1    90.4160    63.1730    85.5870	O.2	1	UNL1     0.0000
26	O2    89.7700    66.8590    82.8790	O.2	1	UNL1     0.0000
27	O3    85.9270    67.0770    86.0830	O.2	1	UNL1     0.0000
28	H1    90.1620    64.4640    87.8330	H	1	UNL1     0.0000
29	H2    84.2430    66.0250    87.8380	H	1	UNL1     0.0000
@<TRIPOS>BOND
1	1	5	5
2	1	6	1
3	1	28	1
4	2	8	5
5	2	7	5
6	3	14	5
7	3	15	1
8	3	7	5
9	4	18	5
10	4	29	1
11	4	19	1
12	5	15	1
13	5	25	2
14	6	7	1
15	6	17	1
16	8	13	5
17	8	9	5
18	9	10	5
19	10	11	5
20	11	12	5
21	12	13	5
22	13	14	5
23	14	26	2
24	15	16	1
25	16	17	1
26	17	18	1
27	17	24	1
28	18	27	2
29	19	24	5
30	19	20	5
31	20	21	5
32	21	22	5
33	22	23	5
34	23	24	5
