@<TRIPOS>MOLECULE
UNPD_indolinone_42
 29 34 0 0 0
SMALL
GASTEIGER

@<TRIPOS>ATOM
      1 N          89.5780   64.7030   87.0780 N.am    1  UNL1       -0.2974
      2 N          89.0380   67.9860   86.7410 N.ar    1  UNL1       -0.2305
      3 N          89.0870   66.3520   85.0150 N.ar    1  UNL1       -0.2760
      4 N          85.0540   65.5360   87.5720 N.am    1  UNL1       -0.2839
      5 C          89.7750   64.1920   85.7940 C.2     1  UNL1        0.2436
      6 C          88.4400   65.6220   87.2240 C.3     1  UNL1        0.1409
      7 C          88.8650   66.7780   86.3200 C.ar    1  UNL1        0.1416
      8 C          89.4460   68.9380   85.7890 C.ar    1  UNL1        0.0872
      9 C          89.6040   70.2640   86.1970 C.ar    1  UNL1        0.0193
     10 C          90.0120   71.2450   85.2880 C.ar    1  UNL1        0.0015
     11 C          90.2660   70.9070   83.9590 C.ar    1  UNL1        0.0003
     12 C          90.1140   69.5870   83.5370 C.ar    1  UNL1        0.0063
     13 C          89.7050   68.6120   84.4530 C.ar    1  UNL1        0.0739
     14 C          89.5300   67.2060   84.0300 C.ar    1  UNL1        0.2635
     15 C          88.8720   64.9200   84.7750 C.3     1  UNL1        0.1664
     16 C          87.4230   64.5600   85.1500 C.3     1  UNL1        0.0469
     17 C          87.1610   64.9910   86.6200 C.3     1  UNL1        0.1145
     18 C          86.0070   66.0240   86.6940 C.2     1  UNL1        0.2311
     19 C          85.3850   64.2730   88.0290 C.ar    1  UNL1        0.0467
     20 C          84.6430   63.4730   88.8710 C.ar    1  UNL1        0.0144
     21 C          85.1610   62.2140   89.1790 C.ar    1  UNL1        0.0013
     22 C          86.3890   61.7920   88.6390 C.ar    1  UNL1       -0.0002
     23 C          87.1230   62.6230   87.7860 C.ar    1  UNL1       -0.0025
     24 C          86.6090   63.8760   87.4890 C.ar    1  UNL1        0.0009
     25 O          90.4160   63.1730   85.5870 O.2     1  UNL1       -0.2731
     26 O          89.7700   66.8590   82.8790 O.2     1  UNL1       -0.2669
     27 O          85.9270   67.0770   86.0830 O.2     1  UNL1       -0.2744
     28 H          90.1620   64.4640   87.8330 H       1  UNL1        0.1499
     29 H          84.2430   66.0250   87.8380 H       1  UNL1        0.1549
@<TRIPOS>BOND
     1     1     5   am
     2     1     6    1
     3     1    28    1
     4     2     8   ar
     5     2     7   ar
     6     3    14   ar
     7     3    15    1
     8     3     7   ar
     9     4    18   am
    10     4    29    1
    11     4    19    1
    12     5    15    1
    13     5    25    2
    14     6     7    1
    15     6    17    1
    16     8    13   ar
    17     8     9   ar
    18     9    10   ar
    19    10    11   ar
    20    11    12   ar
    21    12    13   ar
    22    13    14   ar
    23    14    26    2
    24    15    16    1
    25    16    17    1
    26    17    18    1
    27    17    24    1
    28    18    27    2
    29    19    24   ar
    30    19    20   ar
    31    20    21   ar
    32    21    22   ar
    33    22    23   ar
    34    23    24   ar
