REMARK  Name = *****
REMARK  9 active torsions:
REMARK  status: ('A' for Active; 'I' for Inactive)
REMARK    1  A    between atoms: C_1  and  C_2
REMARK    2  A    between atoms: C_2  and  C_3
REMARK    3  A    between atoms: C_2  and  N_4
REMARK    4  A    between atoms: N_4  and  C_5
REMARK    5  A    between atoms: C_5  and  C_6
REMARK    6  A    between atoms: C_6  and  C_7
REMARK    7  A    between atoms: C_6  and  O_15
REMARK    8  A    between atoms: C_9  and  O_14
REMARK    9  A    between atoms: C_11  and  O_13
REMARK                            x       y       z     vdW  Elec       q    Type
REMARK                         _______ _______ _______ _____ _____    ______ ____
ROOT
ATOM      1  C   UNL     1       5.299  -2.219  -1.492  0.00  0.00    +0.000 C 
ENDROOT
BRANCH   1   2
ATOM      2  C   UNL     1       4.703  -2.417  -2.871  0.00  0.00    +0.000 A 
ATOM      3  C   UNL     1       4.836  -1.435  -3.867  0.00  0.00    +0.000 A 
ATOM      4  C   UNL     1       4.270  -1.636  -5.125  0.00  0.00    +0.000 A 
ATOM      5  C   UNL     1       3.567  -2.798  -5.417  0.00  0.00    +0.000 A 
ATOM      6  C   UNL     1       3.433  -3.768  -4.431  0.00  0.00    +0.000 A 
ATOM      7  C   UNL     1       3.991  -3.589  -3.169  0.00  0.00    +0.000 A 
BRANCH   6   8
ATOM      8  O   UNL     1       2.751  -4.927  -4.663  0.00  0.00    +0.000 OA
ATOM      9  H   UNL     1       2.362  -5.082  -5.502  0.00  0.00    +0.000 HD
ENDBRANCH   6   8
BRANCH   4  10
ATOM     10  O   UNL     1       4.386  -0.700  -6.111  0.00  0.00    +0.000 OA
ATOM     11  H   UNL     1       4.853   0.096  -5.949  0.00  0.00    +0.000 HD
ENDBRANCH   4  10
ENDBRANCH   1   2
BRANCH   1  12
ATOM     12  O   UNL     1       6.671  -1.836  -1.641  0.00  0.00    +0.000 OA
ATOM     13  H   UNL     1       6.723  -0.995  -2.120  0.00  0.00    +0.000 HD
ENDBRANCH   1  12
BRANCH   1  14
ATOM     14  C   UNL     1       4.562  -1.147  -0.649  0.00  0.00    +0.000 C 
BRANCH  14  15
ATOM     15  N   UNL     1       3.170  -1.512  -0.337  0.00  0.00    +0.000 N 
ATOM     16  H   UNL     1       2.683  -1.715  -1.210  0.00  0.00    +0.000 HD
ATOM     17  H   UNL     1       3.196  -2.324   0.280  0.00  0.00    +0.000 HD
BRANCH  15  19
ATOM     18  C   UNL     1       0.953  -0.791   0.358  0.00  0.00    +0.000 C 
ATOM     19  C   UNL     1       2.444  -0.446   0.367  0.00  0.00    +0.000 C 
ATOM     20  C   UNL     1       2.923  -0.284   1.811  0.00  0.00    +0.000 C 
ENDBRANCH  15  19
ENDBRANCH  14  15
ENDBRANCH   1  14
TORSDOF 7
