REMARK  Name = *****
REMARK  4 active torsions:
REMARK  status: ('A' for Active; 'I' for Inactive)
REMARK    1  A    between atoms: C_2  and  C_10
REMARK    2  A    between atoms: C_4  and  O_9
REMARK    3  A    between atoms: C_5  and  O_8
REMARK    4  A    between atoms: C_6  and  O_7
REMARK                            x       y       z     vdW  Elec       q    Type
REMARK                         _______ _______ _______ _____ _____    ______ ____
ROOT
ATOM      1  C   UNL     1       1.264  -1.422   0.048  0.00  0.00    +0.000 A 
ATOM      2  C   UNL     1       0.048  -2.120   0.014  0.00  0.00    +0.000 A 
ATOM      3  C   UNL     1      -1.175  -1.427  -0.006  0.00  0.00    +0.000 A 
ATOM      4  C   UNL     1      -1.169  -0.037  -0.023  0.00  0.00    +0.000 A 
ATOM      5  C   UNL     1       0.037   0.655  -0.016  0.00  0.00    +0.000 A 
ATOM      6  C   UNL     1       1.242  -0.034   0.022  0.00  0.00    +0.000 A 
ENDROOT
BRANCH   2   7
ATOM      7  C   UNL     1       0.003  -3.600   0.035  0.00  0.00    +0.000 C 
ATOM      8  O   UNL     1      -0.888  -4.220   0.588  0.00  0.00    +0.000 OA
ATOM      9  O   UNL     1       0.995  -4.186  -0.666  0.00  0.00    +0.000 OA
ENDBRANCH   2   7
BRANCH   6  10
ATOM     10  O   UNL     1       2.422   0.650   0.042  0.00  0.00    +0.000 OA
ATOM     11  H   UNL     1       3.234   0.183   0.068  0.00  0.00    +0.000 HD
ENDBRANCH   6  10
BRANCH   5  12
ATOM     12  O   UNL     1       0.055   2.023  -0.037  0.00  0.00    +0.000 OA
ATOM     13  H   UNL     1      -0.750   2.502  -0.064  0.00  0.00    +0.000 HD
ENDBRANCH   5  12
BRANCH   4  14
ATOM     14  O   UNL     1      -2.323   0.694  -0.046  0.00  0.00    +0.000 OA
ATOM     15  H   UNL     1      -3.153   0.259  -0.052  0.00  0.00    +0.000 HD
ENDBRANCH   4  14
TORSDOF 4
