REMARK  Name = *****
REMARK  11 active torsions:
REMARK  status: ('A' for Active; 'I' for Inactive)
REMARK    1  A    between atoms: C_1  and  C_2
REMARK    2  A    between atoms: C_2  and  C_3
REMARK    3  A    between atoms: C_2  and  C_4
REMARK    4  A    between atoms: C_2  and  N_5
REMARK    5  A    between atoms: N_5  and  C_6
REMARK    6  A    between atoms: C_6  and  C_7
REMARK    7  A    between atoms: C_7  and  C_8
REMARK    8  A    between atoms: C_7  and  O_17
REMARK    9  A    between atoms: C_10  and  C_15
REMARK   10  A    between atoms: C_11  and  O_14
REMARK   11  A    between atoms: C_15  and  O_16
REMARK                            x       y       z     vdW  Elec       q    Type
REMARK                         _______ _______ _______ _____ _____    ______ ____
ROOT
ATOM      1  C   UNL     1       5.253   0.843   2.644  0.00  0.00    +0.000 C 
ENDROOT
BRANCH   1   2
ATOM      2  C   UNL     1       4.894  -0.105   3.774  0.00  0.00    +0.000 A 
ATOM      3  C   UNL     1       4.160   0.358   4.880  0.00  0.00    +0.000 A 
ATOM      4  C   UNL     1       3.808  -0.497   5.943  0.00  0.00    +0.000 A 
ATOM      5  C   UNL     1       4.211  -1.835   5.865  0.00  0.00    +0.000 A 
ATOM      6  C   UNL     1       4.938  -2.311   4.778  0.00  0.00    +0.000 A 
ATOM      7  C   UNL     1       5.280  -1.451   3.736  0.00  0.00    +0.000 A 
BRANCH   5   8
ATOM      8  O   UNL     1       3.920  -2.744   6.843  0.00  0.00    +0.000 OA
ATOM      9  H   UNL     1       3.433  -2.479   7.599  0.00  0.00    +0.000 HD
ENDBRANCH   5   8
BRANCH   4  10
ATOM     10  C   UNL     1       3.016   0.089   7.086  0.00  0.00    +0.000 C 
BRANCH  10  11
ATOM     11  O   UNL     1       2.757  -0.869   8.112  0.00  0.00    +0.000 OA
ATOM     12  H   UNL     1       2.232  -1.598   7.748  0.00  0.00    +0.000 HD
ENDBRANCH  10  11
ENDBRANCH   4  10
ENDBRANCH   1   2
BRANCH   1  13
ATOM     13  O   UNL     1       6.674   0.850   2.473  0.00  0.00    +0.000 OA
ATOM     14  H   UNL     1       6.974  -0.037   2.220  0.00  0.00    +0.000 HD
ENDBRANCH   1  13
BRANCH   1  15
ATOM     15  C   UNL     1       4.580   0.490   1.292  0.00  0.00    +0.000 C 
BRANCH  15  16
ATOM     16  N   UNL     1       3.110   0.533   1.355  0.00  0.00    +0.000 N 
ATOM     17  H   UNL     1       2.809  -0.117   2.081  0.00  0.00    +0.000 HD
ATOM     18  H   UNL     1       2.869   1.506   1.542  0.00  0.00    +0.000 HD
BRANCH  16  20
ATOM     19  C   UNL     1       2.625  -1.294  -0.275  0.00  0.00    +0.000 C 
ATOM     20  C   UNL     1       2.403   0.178   0.109  0.00  0.00    +0.000 C 
ATOM     21  C   UNL     1       2.797   1.092  -1.062  0.00  0.00    +0.000 C 
ATOM     22  C   UNL     1       0.903   0.383   0.401  0.00  0.00    +0.000 C 
ENDBRANCH  16  20
ENDBRANCH  15  16
ENDBRANCH   1  15
TORSDOF 8
