MODEL 1
REMARK VINA RESULT:      -5.0      0.000      0.000
REMARK  Name = *****
REMARK  7 active torsions:
REMARK  status: ('A' for Active; 'I' for Inactive)
REMARK    1  A    between atoms: C_1  and  O_2
REMARK    2  A    between atoms: O_2  and  C_3
REMARK    3  A    between atoms: C_11  and  O_12
REMARK    4  A    between atoms: O_12  and  C_13
REMARK    5  A    between atoms: C_14  and  O_15
REMARK    6  A    between atoms: O_15  and  C_16
REMARK    7  A    between atoms: C_24  and  O_25
REMARK                            x       y       z     vdW  Elec       q    Type
REMARK                         _______ _______ _______ _____ _____    ______ ____
ROOT
ATOM      1  C   UNL     1      88.576  65.610  87.294  0.00  0.00    +0.000 A 
ATOM      2  C   UNL     1      87.841  66.749  87.604  0.00  0.00    +0.000 A 
ATOM      3  C   UNL     1      88.145  67.984  86.991  0.00  0.00    +0.000 A 
ATOM      4  C   UNL     1      87.254  69.168  87.289  0.00  0.00    +0.000 C 
ATOM      5  C   UNL     1      87.938  70.498  87.005  0.00  0.00    +0.000 C 
ATOM      6  N   UNL     1      88.593  70.463  85.702  0.00  0.00    +0.000 N 
ATOM      7  C   UNL     1      88.501  71.688  84.895  0.00  0.00    +0.000 C 
ATOM      8  C   UNL     1      89.700  71.910  84.011  0.00  0.00    +0.000 A 
ATOM      9  C   UNL     1      89.860  73.124  83.318  0.00  0.00    +0.000 A 
ATOM     10  C   UNL     1      91.020  73.376  82.569  0.00  0.00    +0.000 A 
ATOM     11  C   UNL     1      91.972  72.365  82.429  0.00  0.00    +0.000 A 
ATOM     12  C   UNL     1      91.783  71.128  83.052  0.00  0.00    +0.000 A 
ATOM     13  C   UNL     1      90.652  70.896  83.844  0.00  0.00    +0.000 A 
ATOM     14  C   UNL     1      90.444  69.589  84.478  0.00  0.00    +0.000 C 
ATOM     15  C   UNL     1      89.450  69.410  85.368  0.00  0.00    +0.000 C 
ATOM     16  C   UNL     1      89.198  68.096  86.049  0.00  0.00    +0.000 A 
ATOM     17  C   UNL     1      89.933  66.935  85.761  0.00  0.00    +0.000 A 
ATOM     18  C   UNL     1      89.620  65.725  86.376  0.00  0.00    +0.000 A 
ENDROOT
BRANCH   1  20
ATOM     19  C   UNL     1      88.525  64.202  89.206  0.00  0.00    +0.000 C 
ATOM     20  O   UNL     1      88.376  64.351  87.799  0.00  0.00    +0.000 OA
ENDBRANCH   1  20
BRANCH   9  21
ATOM     21  O   UNL     1      88.862  74.061  83.460  0.00  0.00    +0.000 OA
ATOM     22  C   UNL     1      87.946  74.014  82.364  0.00  0.00    +0.000 C 
ENDBRANCH   9  21
BRANCH  10  23
ATOM     23  O   UNL     1      91.137  74.607  81.978  0.00  0.00    +0.000 OA
ATOM     24  C   UNL     1      92.451  74.956  81.555  0.00  0.00    +0.000 C 
ENDBRANCH  10  23
BRANCH  18  25
ATOM     25  O   UNL     1      90.358  64.620  86.037  0.00  0.00    +0.000 OA
ATOM     26  H   UNL     1      90.085  64.074  85.326  0.00  0.00    +0.000 HD
ENDBRANCH  18  25
TORSDOF 4
ENDMDL
