REMARK  Name = *****
REMARK  13 active torsions:
REMARK  status: ('A' for Active; 'I' for Inactive)
REMARK    1  A    between atoms: C_1  and  O_2
REMARK    2  A    between atoms: O_2  and  C_3
REMARK    3  A    between atoms: C_5  and  C_6
REMARK    4  A    between atoms: C_7  and  C_8
REMARK    5  A    between atoms: C_10  and  C_11
REMARK    6  A    between atoms: C_13  and  O_14
REMARK    7  A    between atoms: O_14  and  C_15
REMARK    8  A    between atoms: C_16  and  O_17
REMARK    9  A    between atoms: O_17  and  C_18
REMARK   10  A    between atoms: C_18  and  C_20
REMARK   11  A    between atoms: C_23  and  O_24
REMARK   12  A    between atoms: O_24  and  C_25
REMARK   13  A    between atoms: C_25  and  C_27
REMARK                            x       y       z     vdW  Elec       q    Type
REMARK                         _______ _______ _______ _____ _____    ______ ____
ROOT
ATOM      1  C   UNL     1       3.090   3.735   2.620  0.00  0.00    +0.000 C 
ATOM      2  C   UNL     1       2.081   3.475   3.465  0.00  0.00    +0.000 C 
ENDROOT
BRANCH   2   3
ATOM      3  C   UNL     1       1.843   4.283   4.667  0.00  0.00    +0.000 A 
ATOM      4  C   UNL     1       1.909   3.662   5.918  0.00  0.00    +0.000 A 
ATOM      5  C   UNL     1       1.680   4.392   7.094  0.00  0.00    +0.000 A 
ATOM      6  C   UNL     1       1.790   3.723   8.434  0.00  0.00    +0.000 C 
ATOM      7  C   UNL     1       1.403   5.767   7.015  0.00  0.00    +0.000 A 
ATOM      8  C   UNL     1       1.320   6.409   5.777  0.00  0.00    +0.000 A 
ATOM      9  C   UNL     1       1.523   5.650   4.615  0.00  0.00    +0.000 A 
BRANCH   8  10
ATOM     10  O   UNL     1       1.057   7.740   5.588  0.00  0.00    +0.000 OA
ATOM     11  C   UNL     1       0.813   8.525   6.748  0.00  0.00    +0.000 C 
ENDBRANCH   8  10
BRANCH   9  12
ATOM     12  O   UNL     1       1.453   6.302   3.375  0.00  0.00    +0.000 OA
BRANCH  12  13
ATOM     13  C   UNL     1       0.200   6.190   2.792  0.00  0.00    +0.000 C 
ATOM     14  O   UNL     1      -0.776   5.594   3.229  0.00  0.00    +0.000 OA
ATOM     15  C   UNL     1       0.217   6.921   1.482  0.00  0.00    +0.000 C 
ENDBRANCH  12  13
ENDBRANCH   9  12
ENDBRANCH   2   3
BRANCH   1  18
ATOM     16  C   UNL     1       4.938   1.931  -0.122  0.00  0.00    +0.000 A 
ATOM     17  C   UNL     1       4.658   2.626   1.058  0.00  0.00    +0.000 A 
ATOM     18  C   UNL     1       3.336   2.966   1.394  0.00  0.00    +0.000 A 
ATOM     19  C   UNL     1       2.292   2.629   0.522  0.00  0.00    +0.000 A 
ATOM     20  C   UNL     1       2.557   1.945  -0.663  0.00  0.00    +0.000 A 
ATOM     21  C   UNL     1       3.871   1.591  -0.964  0.00  0.00    +0.000 A 
BRANCH  16  23
ATOM     22  C   UNL     1       7.238   1.644   0.404  0.00  0.00    +0.000 C 
ATOM     23  O   UNL     1       6.188   1.569  -0.552  0.00  0.00    +0.000 OA
ENDBRANCH  16  23
BRANCH  21  24
ATOM     24  O   UNL     1       4.111   0.947  -2.181  0.00  0.00    +0.000 OA
BRANCH  24  25
ATOM     25  C   UNL     1       4.290  -0.422  -2.033  0.00  0.00    +0.000 C 
ATOM     26  O   UNL     1       4.124  -1.087  -1.019  0.00  0.00    +0.000 OA
ATOM     27  C   UNL     1       4.657  -1.005  -3.366  0.00  0.00    +0.000 C 
ENDBRANCH  24  25
ENDBRANCH  21  24
ENDBRANCH   1  18
TORSDOF 8
