MODEL 1
REMARK VINA RESULT:      -4.8      0.000      0.000
REMARK  Name = *****
REMARK  17 active torsions:
REMARK  status: ('A' for Active; 'I' for Inactive)
REMARK    1  A    between atoms: C_1  and  C_2
REMARK    2  A    between atoms: C_2  and  O_4
REMARK    3  A    between atoms: O_4  and  C_5
REMARK    4  A    between atoms: C_7  and  O_8
REMARK    5  A    between atoms: O_8  and  C_9
REMARK    6  A    between atoms: C_9  and  C_11
REMARK    7  A    between atoms: C_13  and  C_14
REMARK    8  A    between atoms: C_15  and  C_16
REMARK    9  A    between atoms: C_18  and  O_19
REMARK   10  A    between atoms: O_19  and  C_20
REMARK   11  A    between atoms: C_20  and  C_22
REMARK   12  A    between atoms: C_23  and  O_24
REMARK   13  A    between atoms: O_24  and  C_25
REMARK   14  A    between atoms: C_25  and  C_27
REMARK   15  A    between atoms: C_28  and  O_29
REMARK   16  A    between atoms: O_29  and  C_30
REMARK   17  A    between atoms: C_30  and  C_32
REMARK                            x       y       z     vdW  Elec       q    Type
REMARK                         _______ _______ _______ _____ _____    ______ ____
ROOT
ATOM      1  C   UNL     1     103.793 124.512  82.116  0.00  0.00    +0.000 A 
ATOM      2  C   UNL     1     104.274 124.728  80.817  0.00  0.00    +0.000 A 
ATOM      3  C   UNL     1     105.220 123.859  80.262  0.00  0.00    +0.000 A 
ATOM      4  C   UNL     1     105.755 122.812  81.014  0.00  0.00    +0.000 A 
ATOM      5  C   UNL     1     105.272 122.596  82.305  0.00  0.00    +0.000 A 
ATOM      6  C   UNL     1     104.297 123.433  82.856  0.00  0.00    +0.000 A 
ENDROOT
BRANCH   1   8
ATOM      7  C   UNL     1     101.880 126.087  81.926  0.00  0.00    +0.000 C 
ATOM      8  C   UNL     1     102.802 125.449  82.664  0.00  0.00    +0.000 C 
BRANCH   7  13
ATOM      9  C   UNL     1     100.463 129.095  83.679  0.00  0.00    +0.000 A 
ATOM     10  C   UNL     1      99.091 128.856  83.638  0.00  0.00    +0.000 A 
ATOM     11  C   UNL     1      98.640 127.672  83.062  0.00  0.00    +0.000 A 
ATOM     12  C   UNL     1      99.529 126.766  82.482  0.00  0.00    +0.000 A 
ATOM     13  C   UNL     1     100.906 127.030  82.492  0.00  0.00    +0.000 A 
ATOM     14  C   UNL     1     101.370 128.203  83.101  0.00  0.00    +0.000 A 
BRANCH   9  15
ATOM     15  O   UNL     1     100.875 130.314  84.241  0.00  0.00    +0.000 OA
BRANCH  15  17
ATOM     16  C   UNL     1     101.982 129.695  86.220  0.00  0.00    +0.000 C 
ATOM     17  C   UNL     1     102.114 130.348  84.876  0.00  0.00    +0.000 C 
ATOM     18  O   UNL     1     103.153 130.825  84.441  0.00  0.00    +0.000 OA
ENDBRANCH  15  17
ENDBRANCH   9  15
BRANCH  11  19
ATOM     19  O   UNL     1      97.272 127.375  82.951  0.00  0.00    +0.000 OA
BRANCH  19  20
ATOM     20  C   UNL     1      96.831 126.170  83.494  0.00  0.00    +0.000 C 
ATOM     21  O   UNL     1      96.458 125.179  82.882  0.00  0.00    +0.000 OA
ATOM     22  C   UNL     1      96.872 126.275  84.989  0.00  0.00    +0.000 C 
ENDBRANCH  19  20
ENDBRANCH  11  19
ENDBRANCH   7  13
ENDBRANCH   1   8
BRANCH   3  23
ATOM     23  O   UNL     1     105.636 124.119  78.954  0.00  0.00    +0.000 OA
BRANCH  23  24
ATOM     24  C   UNL     1     106.742 124.953  78.875  0.00  0.00    +0.000 C 
ATOM     25  O   UNL     1     106.888 126.037  79.425  0.00  0.00    +0.000 OA
ATOM     26  C   UNL     1     107.761 124.318  77.978  0.00  0.00    +0.000 C 
ENDBRANCH  23  24
ENDBRANCH   3  23
BRANCH   4  27
ATOM     27  O   UNL     1     106.695 121.917  80.494  0.00  0.00    +0.000 OA
BRANCH  27  28
ATOM     28  C   UNL     1     107.997 122.094  80.949  0.00  0.00    +0.000 C 
ATOM     29  O   UNL     1     108.533 123.143  81.279  0.00  0.00    +0.000 OA
ATOM     30  C   UNL     1     108.692 120.765  80.930  0.00  0.00    +0.000 C 
ENDBRANCH  27  28
ENDBRANCH   4  27
BRANCH   5  31
ATOM     31  O   UNL     1     105.641 121.473  83.060  0.00  0.00    +0.000 OA
BRANCH  31  32
ATOM     32  C   UNL     1     104.741 120.415  83.053  0.00  0.00    +0.000 C 
ATOM     33  O   UNL     1     103.623 120.397  83.548  0.00  0.00    +0.000 OA
ATOM     34  C   UNL     1     105.366 119.255  82.338  0.00  0.00    +0.000 C 
ENDBRANCH  31  32
ENDBRANCH   5  31
TORSDOF 12
ENDMDL
