MODEL 1
REMARK VINA RESULT:      -5.5      0.000      0.000
REMARK  Name = *****
REMARK  6 active torsions:
REMARK  status: ('A' for Active; 'I' for Inactive)
REMARK    1  A    between atoms: C_1  and  O_2
REMARK    2  A    between atoms: O_2  and  C_3
REMARK    3  A    between atoms: C_5  and  O_6
REMARK    4  A    between atoms: C_9  and  C_10
REMARK    5  A    between atoms: C_17  and  C_18
REMARK    6  A    between atoms: C_17  and  C_19
REMARK                            x       y       z     vdW  Elec       q    Type
REMARK                         _______ _______ _______ _____ _____    ______ ____
ROOT
ATOM      1  C   UNL     1     101.922 126.882  83.243  0.00  0.00    +0.000 C 
ATOM      2  C   UNL     1     102.541 126.720  82.065  0.00  0.00    +0.000 C 
ATOM      3  C   UNL     1     103.290 125.487  81.858  0.00  0.00    +0.000 A 
ATOM      4  C   UNL     1     103.805 125.185  80.594  0.00  0.00    +0.000 A 
ATOM      5  C   UNL     1     104.544 124.018  80.402  0.00  0.00    +0.000 A 
ATOM      6  C   UNL     1     104.780 123.151  81.470  0.00  0.00    +0.000 A 
ATOM      7  O   UNL     1     105.524 122.044  81.170  0.00  0.00    +0.000 OA
ATOM      8  C   UNL     1     105.756 121.056  82.194  0.00  0.00    +0.000 C 
ATOM      9  C   UNL     1     105.074 119.767  81.722  0.00  0.00    +0.000 C 
ATOM     10  C   UNL     1     107.275 120.846  82.246  0.00  0.00    +0.000 C 
ATOM     11  C   UNL     1     105.256 121.410  83.573  0.00  0.00    +0.000 C 
ATOM     12  C   UNL     1     104.568 122.523  83.839  0.00  0.00    +0.000 C 
ATOM     13  C   UNL     1     104.282 123.443  82.743  0.00  0.00    +0.000 A 
ATOM     14  C   UNL     1     103.523 124.615  82.931  0.00  0.00    +0.000 A 
ATOM     15  O   UNL     1     103.071 124.886  84.198  0.00  0.00    +0.000 OA
ATOM     16  C   UNL     1     102.008 125.846  84.329  0.00  0.00    +0.000 C 
ENDROOT
BRANCH   1  22
ATOM     17  C   UNL     1      99.766 128.200  83.137  0.00  0.00    +0.000 A 
ATOM     18  C   UNL     1      99.065 129.382  83.407  0.00  0.00    +0.000 A 
ATOM     19  C   UNL     1      99.712 130.442  84.041  0.00  0.00    +0.000 A 
ATOM     20  C   UNL     1     101.046 130.349  84.414  0.00  0.00    +0.000 A 
ATOM     21  C   UNL     1     101.752 129.178  84.147  0.00  0.00    +0.000 A 
ATOM     22  C   UNL     1     101.125 128.096  83.505  0.00  0.00    +0.000 A 
BRANCH  17  24
ATOM     23  C   UNL     1      97.956 126.640  83.000  0.00  0.00    +0.000 C 
ATOM     24  O   UNL     1      99.216 127.098  82.531  0.00  0.00    +0.000 OA
ENDBRANCH  17  24
BRANCH  19  25
ATOM     25  O   UNL     1      99.062 131.609  84.321  0.00  0.00    +0.000 OA
ATOM     26  H   UNL     1      98.626 132.077  83.636  0.00  0.00    +0.000 HD
ENDBRANCH  19  25
ENDBRANCH   1  22
TORSDOF 3
ENDMDL
