REMARK  Name = *****
REMARK  9 active torsions:
REMARK  status: ('A' for Active; 'I' for Inactive)
REMARK    1  A    between atoms: C_1  and  O_2
REMARK    2  A    between atoms: O_2  and  C_3
REMARK    3  A    between atoms: C_4  and  C_5
REMARK    4  A    between atoms: C_5  and  C_6
REMARK    5  A    between atoms: C_7  and  C_8
REMARK    6  A    between atoms: C_7  and  C_9
REMARK    7  A    between atoms: C_10  and  O_11
REMARK    8  A    between atoms: C_14  and  C_15
REMARK    9  A    between atoms: C_20  and  O_21
REMARK                            x       y       z     vdW  Elec       q    Type
REMARK                         _______ _______ _______ _____ _____    ______ ____
ROOT
ATOM      1  C   UNL     1       2.512   0.659  -0.418  0.00  0.00    +0.000 A 
ATOM      2  C   UNL     1       2.241   2.044  -0.385  0.00  0.00    +0.000 A 
ATOM      3  C   UNL     1       3.272   2.918  -0.760  0.00  0.00    +0.000 A 
ATOM      4  C   UNL     1       4.527   2.446  -1.131  0.00  0.00    +0.000 A 
ATOM      5  C   UNL     1       4.768   1.074  -1.183  0.00  0.00    +0.000 A 
ATOM      6  C   UNL     1       3.760   0.159  -0.847  0.00  0.00    +0.000 A 
ENDROOT
BRANCH   6   7
ATOM      7  C   UNL     1       4.046  -1.283  -0.990  0.00  0.00    +0.000 C 
ATOM      8  C   UNL     1       5.019  -1.854  -0.266  0.00  0.00    +0.000 C 
ATOM      9  C   UNL     1       5.269  -3.274  -0.463  0.00  0.00    +0.000 A 
ATOM     10  C   UNL     1       6.353  -3.904   0.161  0.00  0.00    +0.000 A 
ATOM     11  C   UNL     1       6.570  -5.273  -0.014  0.00  0.00    +0.000 A 
ATOM     12  C   UNL     1       5.694  -6.008  -0.806  0.00  0.00    +0.000 A 
ATOM     13  C   UNL     1       4.611  -5.396  -1.427  0.00  0.00    +0.000 A 
ATOM     14  C   UNL     1       4.403  -4.027  -1.263  0.00  0.00    +0.000 A 
ATOM     15  O   UNL     1       3.306  -3.502  -1.885  0.00  0.00    +0.000 OA
ATOM     16  C   UNL     1       3.220  -2.069  -1.978  0.00  0.00    +0.000 C 
BRANCH  12  17
ATOM     17  O   UNL     1       5.865  -7.347  -0.998  0.00  0.00    +0.000 OA
ATOM     18  H   UNL     1       6.585  -7.790  -0.594  0.00  0.00    +0.000 HD
ENDBRANCH  12  17
ENDBRANCH   6   7
BRANCH   1  20
ATOM     19  C   UNL     1       1.663  -0.683   1.259  0.00  0.00    +0.000 C 
ATOM     20  O   UNL     1       1.497  -0.208  -0.079  0.00  0.00    +0.000 OA
ENDBRANCH   1  20
BRANCH   3  21
ATOM     21  O   UNL     1       3.113   4.276  -0.796  0.00  0.00    +0.000 OA
ATOM     22  H   UNL     1       2.291   4.658  -0.557  0.00  0.00    +0.000 HD
ENDBRANCH   3  21
BRANCH   2  23
ATOM     23  C   UNL     1       0.882   2.563   0.039  0.00  0.00    +0.000 C 
BRANCH  23  24
ATOM     24  C   UNL     1       0.028   2.951  -1.140  0.00  0.00    +0.000 C 
ATOM     25  C   UNL     1      -0.574   4.131  -1.390  0.00  0.00    +0.000 C 
ATOM     26  C   UNL     1      -0.531   5.345  -0.502  0.00  0.00    +0.000 C 
ATOM     27  C   UNL     1      -1.391   4.317  -2.644  0.00  0.00    +0.000 C 
ENDBRANCH  23  24
ENDBRANCH   2  23
TORSDOF 6
