MODEL 1
REMARK VINA RESULT:      -4.8      0.000      0.000
REMARK  Name = *****
REMARK  13 active torsions:
REMARK  status: ('A' for Active; 'I' for Inactive)
REMARK    1  A    between atoms: C_1  and  O_2
REMARK    2  A    between atoms: O_2  and  C_3
REMARK    3  A    between atoms: C_5  and  C_6
REMARK    4  A    between atoms: C_7  and  C_8
REMARK    5  A    between atoms: C_10  and  C_11
REMARK    6  A    between atoms: C_13  and  O_14
REMARK    7  A    between atoms: O_14  and  C_15
REMARK    8  A    between atoms: C_16  and  O_17
REMARK    9  A    between atoms: O_17  and  C_18
REMARK   10  A    between atoms: C_18  and  C_20
REMARK   11  A    between atoms: C_23  and  O_24
REMARK   12  A    between atoms: O_24  and  C_25
REMARK   13  A    between atoms: C_25  and  C_27
REMARK                            x       y       z     vdW  Elec       q    Type
REMARK                         _______ _______ _______ _____ _____    ______ ____
ROOT
ATOM      1  C   UNL     1     102.091 125.813  81.811  0.00  0.00    +0.000 C 
ATOM      2  C   UNL     1     103.277 125.435  82.313  0.00  0.00    +0.000 C 
ENDROOT
BRANCH   2   3
ATOM      3  C   UNL     1     104.141 124.468  81.626  0.00  0.00    +0.000 A 
ATOM      4  C   UNL     1     104.335 123.210  82.205  0.00  0.00    +0.000 A 
ATOM      5  C   UNL     1     105.160 122.256  81.589  0.00  0.00    +0.000 A 
ATOM      6  C   UNL     1     105.332 120.896  82.201  0.00  0.00    +0.000 C 
ATOM      7  C   UNL     1     105.781 122.561  80.366  0.00  0.00    +0.000 A 
ATOM      8  C   UNL     1     105.613 123.815  79.773  0.00  0.00    +0.000 A 
ATOM      9  C   UNL     1     104.807 124.760  80.424  0.00  0.00    +0.000 A 
BRANCH   8  10
ATOM     10  O   UNL     1     106.170 124.213  78.586  0.00  0.00    +0.000 OA
ATOM     11  C   UNL     1     107.588 124.199  78.498  0.00  0.00    +0.000 C 
ENDBRANCH   8  10
BRANCH   9  12
ATOM     12  O   UNL     1     104.630 126.012  79.817  0.00  0.00    +0.000 OA
BRANCH  12  13
ATOM     13  C   UNL     1     105.429 126.991  80.387  0.00  0.00    +0.000 C 
ATOM     14  O   UNL     1     106.573 126.870  80.808  0.00  0.00    +0.000 OA
ATOM     15  C   UNL     1     104.652 128.274  80.433  0.00  0.00    +0.000 C 
ENDBRANCH  12  13
ENDBRANCH   9  12
ENDBRANCH   2   3
BRANCH   1  18
ATOM     16  C   UNL     1      98.960 127.603  82.897  0.00  0.00    +0.000 A 
ATOM     17  C   UNL     1      99.825 126.661  82.332  0.00  0.00    +0.000 A 
ATOM     18  C   UNL     1     101.218 126.800  82.457  0.00  0.00    +0.000 A 
ATOM     19  C   UNL     1     101.745 127.910  83.131  0.00  0.00    +0.000 A 
ATOM     20  C   UNL     1     100.896 128.863  83.690  0.00  0.00    +0.000 A 
ATOM     21  C   UNL     1      99.517 128.692  83.581  0.00  0.00    +0.000 A 
BRANCH  16  23
ATOM     22  C   UNL     1      96.918 126.730  83.743  0.00  0.00    +0.000 C 
ATOM     23  O   UNL     1      97.592 127.572  82.817  0.00  0.00    +0.000 OA
ENDBRANCH  16  23
BRANCH  21  24
ATOM     24  O   UNL     1      98.691 129.687  84.112  0.00  0.00    +0.000 OA
BRANCH  24  25
ATOM     25  C   UNL     1      98.680 129.686  85.500  0.00  0.00    +0.000 C 
ATOM     26  O   UNL     1      98.528 128.723  86.240  0.00  0.00    +0.000 OA
ATOM     27  C   UNL     1      98.970 131.077  85.984  0.00  0.00    +0.000 C 
ENDBRANCH  24  25
ENDBRANCH  21  24
ENDBRANCH   1  18
TORSDOF 8
ENDMDL
