MODEL 1
REMARK VINA RESULT:      -4.8      0.000      0.000
REMARK  Name = *****
REMARK  7 active torsions:
REMARK  status: ('A' for Active; 'I' for Inactive)
REMARK    1  A    between atoms: C_1  and  O_2
REMARK    2  A    between atoms: O_2  and  C_3
REMARK    3  A    between atoms: C_5  and  C_6
REMARK    4  A    between atoms: C_7  and  C_8
REMARK    5  A    between atoms: C_14  and  O_15
REMARK    6  A    between atoms: O_15  and  C_16
REMARK    7  A    between atoms: C_18  and  O_19
REMARK                            x       y       z     vdW  Elec       q    Type
REMARK                         _______ _______ _______ _____ _____    ______ ____
ROOT
ATOM      1  C   UNL     1     104.988 123.390  80.383  0.00  0.00    +0.000 A 
ATOM      2  C   UNL     1     104.022 124.248  80.922  0.00  0.00    +0.000 A 
ATOM      3  C   UNL     1     104.200 125.642  80.899  0.00  0.00    +0.000 A 
ATOM      4  C   UNL     1     105.366 126.163  80.315  0.00  0.00    +0.000 A 
ATOM      5  C   UNL     1     106.324 125.324  79.747  0.00  0.00    +0.000 A 
ATOM      6  C   UNL     1     106.134 123.944  79.794  0.00  0.00    +0.000 A 
ENDROOT
BRANCH   1   8
ATOM      7  C   UNL     1     104.699 121.361  81.605  0.00  0.00    +0.000 C 
ATOM      8  O   UNL     1     104.903 122.022  80.366  0.00  0.00    +0.000 OA
ENDBRANCH   1   8
BRANCH   3   9
ATOM      9  C   UNL     1     103.158 126.545  81.420  0.00  0.00    +0.000 C 
ATOM     10  C   UNL     1     102.037 126.117  82.024  0.00  0.00    +0.000 C 
BRANCH  10  11
ATOM     11  C   UNL     1     101.002 127.012  82.562  0.00  0.00    +0.000 A 
ATOM     12  C   UNL     1     101.398 128.166  83.252  0.00  0.00    +0.000 A 
ATOM     13  C   UNL     1     100.447 129.059  83.753  0.00  0.00    +0.000 A 
ATOM     14  C   UNL     1      99.090 128.814  83.559  0.00  0.00    +0.000 A 
ATOM     15  C   UNL     1      98.684 127.679  82.860  0.00  0.00    +0.000 A 
ATOM     16  C   UNL     1      99.635 126.785  82.360  0.00  0.00    +0.000 A 
ENDBRANCH  10  11
ENDBRANCH   3   9
BRANCH   4  17
ATOM     17  O   UNL     1     105.566 127.520  80.226  0.00  0.00    +0.000 OA
ATOM     18  C   UNL     1     106.814 127.868  80.829  0.00  0.00    +0.000 C 
ENDBRANCH   4  17
BRANCH   6  19
ATOM     19  O   UNL     1     107.077 123.111  79.251  0.00  0.00    +0.000 OA
ATOM     20  H   UNL     1     107.827 123.471  78.821  0.00  0.00    +0.000 HD
ENDBRANCH   6  19
TORSDOF 5
ENDMDL
