MODEL 1
REMARK VINA RESULT:      -4.9      0.000      0.000
REMARK  Name = *****
REMARK  6 active torsions:
REMARK  status: ('A' for Active; 'I' for Inactive)
REMARK    1  A    between atoms: C_1  and  O_2
REMARK    2  A    between atoms: O_2  and  C_3
REMARK    3  A    between atoms: C_5  and  O_6
REMARK    4  A    between atoms: O_6  and  C_7
REMARK    5  A    between atoms: C_9  and  C_10
REMARK    6  A    between atoms: C_11  and  C_12
REMARK                            x       y       z     vdW  Elec       q    Type
REMARK                         _______ _______ _______ _____ _____    ______ ____
ROOT
ATOM      1  C   UNL     1     100.633 129.017  83.662  0.00  0.00    +0.000 A 
ATOM      2  C   UNL     1      99.262 128.807  83.489  0.00  0.00    +0.000 A 
ATOM      3  C   UNL     1      98.805 127.646  82.862  0.00  0.00    +0.000 A 
ATOM      4  C   UNL     1      99.726 126.698  82.403  0.00  0.00    +0.000 A 
ATOM      5  C   UNL     1     101.103 126.900  82.551  0.00  0.00    +0.000 A 
ATOM      6  C   UNL     1     101.542 128.062  83.197  0.00  0.00    +0.000 A 
ENDROOT
BRANCH   1   8
ATOM      7  C   UNL     1     100.348 131.001  84.948  0.00  0.00    +0.000 C 
ATOM      8  O   UNL     1     101.212 130.101  84.265  0.00  0.00    +0.000 OA
ENDBRANCH   1   8
BRANCH   3   9
ATOM      9  O   UNL     1      97.496 127.314  82.638  0.00  0.00    +0.000 OA
ATOM     10  C   UNL     1      96.775 126.744  83.723  0.00  0.00    +0.000 C 
ENDBRANCH   3   9
BRANCH   5  11
ATOM     11  C   UNL     1     102.100 125.912  82.110  0.00  0.00    +0.000 C 
ATOM     12  C   UNL     1     102.989 126.130  81.126  0.00  0.00    +0.000 C 
BRANCH  12  13
ATOM     13  C   UNL     1     103.995 125.146  80.701  0.00  0.00    +0.000 A 
ATOM     14  C   UNL     1     104.898 125.401  79.659  0.00  0.00    +0.000 A 
ATOM     15  C   UNL     1     105.861 124.452  79.305  0.00  0.00    +0.000 A 
ATOM     16  C   UNL     1     105.938 123.244  79.995  0.00  0.00    +0.000 A 
ATOM     17  C   UNL     1     105.058 122.987  81.043  0.00  0.00    +0.000 A 
ATOM     18  C   UNL     1     104.095 123.935  81.398  0.00  0.00    +0.000 A 
ENDBRANCH  12  13
ENDBRANCH   5  11
TORSDOF 4
ENDMDL
