MODEL 1
REMARK VINA RESULT:      -4.7      0.000      0.000
REMARK  Name = *****
REMARK  12 active torsions:
REMARK  status: ('A' for Active; 'I' for Inactive)
REMARK    1  A    between atoms: C_1  and  O_2
REMARK    2  A    between atoms: O_2  and  C_3
REMARK    3  A    between atoms: C_5  and  C_6
REMARK    4  A    between atoms: C_7  and  C_8
REMARK    5  A    between atoms: C_12  and  O_13
REMARK    6  A    between atoms: O_13  and  C_14
REMARK    7  A    between atoms: C_15  and  O_16
REMARK    8  A    between atoms: O_16  and  C_17
REMARK    9  A    between atoms: C_17  and  C_19
REMARK   10  A    between atoms: C_22  and  O_23
REMARK   11  A    between atoms: O_23  and  C_24
REMARK   12  A    between atoms: C_24  and  C_26
REMARK                            x       y       z     vdW  Elec       q    Type
REMARK                         _______ _______ _______ _____ _____    ______ ____
ROOT
ATOM      1  C   UNL     1     102.104 125.822  81.818  0.00  0.00    +0.000 C 
ATOM      2  C   UNL     1     103.264 125.410  82.350  0.00  0.00    +0.000 C 
ENDROOT
BRANCH   1   5
ATOM      3  C   UNL     1      98.965 127.603  82.900  0.00  0.00    +0.000 A 
ATOM      4  C   UNL     1      99.833 126.663  82.337  0.00  0.00    +0.000 A 
ATOM      5  C   UNL     1     101.226 126.809  82.460  0.00  0.00    +0.000 A 
ATOM      6  C   UNL     1     101.749 127.924  83.130  0.00  0.00    +0.000 A 
ATOM      7  C   UNL     1     100.896 128.874  83.687  0.00  0.00    +0.000 A 
ATOM      8  C   UNL     1      99.518 128.695  83.580  0.00  0.00    +0.000 A 
BRANCH   3  10
ATOM      9  C   UNL     1      96.933 126.664  83.708  0.00  0.00    +0.000 C 
ATOM     10  O   UNL     1      97.597 127.565  82.831  0.00  0.00    +0.000 OA
ENDBRANCH   3  10
BRANCH   8  11
ATOM     11  O   UNL     1      98.680 129.683  84.107  0.00  0.00    +0.000 OA
BRANCH  11  12
ATOM     12  C   UNL     1      98.655 129.672  85.494  0.00  0.00    +0.000 C 
ATOM     13  O   UNL     1      98.494 128.705  86.227  0.00  0.00    +0.000 OA
ATOM     14  C   UNL     1      98.852 131.074  85.991  0.00  0.00    +0.000 C 
ENDBRANCH  11  12
ENDBRANCH   8  11
ENDBRANCH   1   5
BRANCH   2  15
ATOM     15  C   UNL     1     104.137 124.446  81.670  0.00  0.00    +0.000 A 
ATOM     16  C   UNL     1     104.361 123.204  82.269  0.00  0.00    +0.000 A 
ATOM     17  C   UNL     1     105.189 122.262  81.654  0.00  0.00    +0.000 A 
ATOM     18  C   UNL     1     105.806 122.549  80.431  0.00  0.00    +0.000 A 
ATOM     19  C   UNL     1     105.609 123.786  79.816  0.00  0.00    +0.000 A 
ATOM     20  C   UNL     1     104.786 124.728  80.456  0.00  0.00    +0.000 A 
BRANCH  19  21
ATOM     21  O   UNL     1     106.153 124.175  78.620  0.00  0.00    +0.000 OA
ATOM     22  C   UNL     1     107.572 124.238  78.545  0.00  0.00    +0.000 C 
ENDBRANCH  19  21
BRANCH  20  23
ATOM     23  O   UNL     1     104.582 125.965  79.828  0.00  0.00    +0.000 OA
BRANCH  23  24
ATOM     24  C   UNL     1     105.377 126.966  80.367  0.00  0.00    +0.000 C 
ATOM     25  O   UNL     1     106.526 126.865  80.778  0.00  0.00    +0.000 OA
ATOM     26  C   UNL     1     104.588 128.242  80.389  0.00  0.00    +0.000 C 
ENDBRANCH  23  24
ENDBRANCH  20  23
ENDBRANCH   2  15
TORSDOF 8
ENDMDL
