MODEL 1
REMARK VINA RESULT:      -5.0      0.000      0.000
REMARK  Name = *****
REMARK  10 active torsions:
REMARK  status: ('A' for Active; 'I' for Inactive)
REMARK    1  A    between atoms: C_1  and  O_2
REMARK    2  A    between atoms: O_2  and  C_3
REMARK    3  A    between atoms: C_5  and  O_6
REMARK    4  A    between atoms: O_6  and  C_7
REMARK    5  A    between atoms: C_9  and  C_10
REMARK    6  A    between atoms: C_11  and  C_12
REMARK    7  A    between atoms: C_14  and  O_15
REMARK    8  A    between atoms: O_15  and  C_16
REMARK    9  A    between atoms: C_18  and  O_19
REMARK   10  A    between atoms: O_19  and  C_20
REMARK                            x       y       z     vdW  Elec       q    Type
REMARK                         _______ _______ _______ _____ _____    ______ ____
ROOT
ATOM      1  C   UNL     1     102.969 126.026  81.108  0.00  0.00    +0.000 C 
ATOM      2  C   UNL     1     102.328 125.964  82.286  0.00  0.00    +0.000 C 
ENDROOT
BRANCH   1   7
ATOM      3  C   UNL     1     105.925 124.642  79.223  0.00  0.00    +0.000 A 
ATOM      4  C   UNL     1     106.085 123.386  79.813  0.00  0.00    +0.000 A 
ATOM      5  C   UNL     1     105.225 122.981  80.836  0.00  0.00    +0.000 A 
ATOM      6  C   UNL     1     104.206 123.838  81.267  0.00  0.00    +0.000 A 
ATOM      7  C   UNL     1     104.045 125.108  80.702  0.00  0.00    +0.000 A 
ATOM      8  C   UNL     1     104.907 125.491  79.668  0.00  0.00    +0.000 A 
BRANCH   3  10
ATOM      9  C   UNL     1     106.535 124.579  76.922  0.00  0.00    +0.000 C 
ATOM     10  O   UNL     1     106.689 125.159  78.211  0.00  0.00    +0.000 OA
ENDBRANCH   3  10
BRANCH   5  11
ATOM     11  O   UNL     1     105.264 121.778  81.490  0.00  0.00    +0.000 OA
ATOM     12  C   UNL     1     106.420 120.973  81.301  0.00  0.00    +0.000 C 
ENDBRANCH   5  11
ENDBRANCH   1   7
BRANCH   2  13
ATOM     13  C   UNL     1     101.264 126.897  82.692  0.00  0.00    +0.000 A 
ATOM     14  C   UNL     1     101.541 128.146  83.266  0.00  0.00    +0.000 A 
ATOM     15  C   UNL     1     100.502 129.014  83.610  0.00  0.00    +0.000 A 
ATOM     16  C   UNL     1      99.177 128.641  83.363  0.00  0.00    +0.000 A 
ATOM     17  C   UNL     1      98.884 127.411  82.775  0.00  0.00    +0.000 A 
ATOM     18  C   UNL     1      99.931 126.549  82.439  0.00  0.00    +0.000 A 
BRANCH  15  19
ATOM     19  O   UNL     1     100.646 130.250  84.182  0.00  0.00    +0.000 OA
ATOM     20  C   UNL     1      99.572 131.167  84.014  0.00  0.00    +0.000 C 
ENDBRANCH  15  19
BRANCH  17  21
ATOM     21  O   UNL     1      97.636 126.937  82.477  0.00  0.00    +0.000 OA
ATOM     22  C   UNL     1      97.024 126.091  83.442  0.00  0.00    +0.000 C 
ENDBRANCH  17  21
ENDBRANCH   2  13
TORSDOF 6
ENDMDL
