REMARK  Name = *****
REMARK  3 active torsions:
REMARK  status: ('A' for Active; 'I' for Inactive)
REMARK    1  A    between atoms: C_2  and  C_3
REMARK    2  A    between atoms: C_3  and  C_11
REMARK    3  A    between atoms: C_4  and  C_5
REMARK                            x       y       z     vdW  Elec       q    Type
REMARK                         _______ _______ _______ _____ _____    ______ ____
ROOT
ATOM      1  C   UNL     1       3.057   0.811   1.000  0.00  0.00    +0.000 C 
ATOM      2  C   UNL     1       2.361   1.428   1.974  0.00  0.00    +0.000 C 
ENDROOT
BRANCH   2   3
ATOM      3  C   UNL     1       0.903   1.456   2.097  0.00  0.00    +0.000 A 
ATOM      4  C   UNL     1       0.238   0.446   2.802  0.00  0.00    +0.000 A 
ATOM      5  C   UNL     1      -1.154   0.464   2.903  0.00  0.00    +0.000 A 
ATOM      6  C   UNL     1      -1.884   1.489   2.303  0.00  0.00    +0.000 A 
ATOM      7  C   UNL     1      -1.225   2.498   1.601  0.00  0.00    +0.000 A 
ATOM      8  C   UNL     1       0.167   2.483   1.498  0.00  0.00    +0.000 A 
ENDBRANCH   2   3
BRANCH   1   9
ATOM      9  C   UNL     1       4.526   0.886   1.046  0.00  0.00    +0.000 A 
ATOM     10  C   UNL     1       5.261  -0.095   1.723  0.00  0.00    +0.000 A 
ATOM     11  C   UNL     1       6.653  -0.012   1.787  0.00  0.00    +0.000 A 
ATOM     12  C   UNL     1       7.318   1.052   1.178  0.00  0.00    +0.000 A 
ATOM     13  C   UNL     1       6.592   2.032   0.502  0.00  0.00    +0.000 A 
ATOM     14  C   UNL     1       5.200   1.951   0.436  0.00  0.00    +0.000 A 
ENDBRANCH   1   9
BRANCH   1  16
ATOM     15  O   UNL     1       2.995  -0.510  -0.997  0.00  0.00    +0.000 OA
ATOM     16  C   UNL     1       2.382   0.065  -0.103  0.00  0.00    +0.000 C 
ENDBRANCH   1  16
TORSDOF 3
