MODEL 1
REMARK VINA RESULT:      -5.2      0.000      0.000
REMARK  Name = *****
REMARK  6 active torsions:
REMARK  status: ('A' for Active; 'I' for Inactive)
REMARK    1  A    between atoms: C_1  and  O_2
REMARK    2  A    between atoms: O_2  and  C_3
REMARK    3  A    between atoms: C_6  and  C_7
REMARK    4  A    between atoms: C_23  and  O_24
REMARK    5  A    between atoms: C_25  and  O_26
REMARK    6  A    between atoms: O_26  and  C_27
REMARK                            x       y       z     vdW  Elec       q    Type
REMARK                         _______ _______ _______ _____ _____    ______ ____
ROOT
ATOM      1  C   UNL     1     103.407 125.269  81.258  0.00  0.00    +0.000 C 
ATOM      2  C   UNL     1     103.345 126.401  81.996  0.00  0.00    +0.000 C 
ATOM      3  N   UNL     1     104.482 127.142  82.344  0.00  0.00    +0.000 N 
ATOM      4  C   UNL     1     104.319 128.581  82.508  0.00  0.00    +0.000 C 
ATOM      5  C   UNL     1     103.265 128.876  83.563  0.00  0.00    +0.000 C 
ATOM      6  C   UNL     1     101.979 128.171  83.209  0.00  0.00    +0.000 A 
ATOM      7  C   UNL     1     100.768 128.710  83.682  0.00  0.00    +0.000 A 
ATOM      8  C   UNL     1      99.602 128.061  83.360  0.00  0.00    +0.000 A 
ATOM      9  O   UNL     1      98.349 128.442  83.722  0.00  0.00    +0.000 OA
ATOM     10  C   UNL     1      97.562 127.401  83.108  0.00  0.00    +0.000 C 
ATOM     11  O   UNL     1      98.355 126.427  82.398  0.00  0.00    +0.000 OA
ATOM     12  C   UNL     1      99.608 126.916  82.608  0.00  0.00    +0.000 A 
ATOM     13  C   UNL     1     100.779 126.351  82.140  0.00  0.00    +0.000 A 
ATOM     14  C   UNL     1     102.011 126.966  82.439  0.00  0.00    +0.000 A 
ATOM     15  C   UNL     1     105.675 126.570  82.779  0.00  0.00    +0.000 C 
ATOM     16  O   UNL     1     105.894 125.409  83.103  0.00  0.00    +0.000 OA
ENDROOT
BRANCH   1  20
ATOM     17  C   UNL     1     106.895 123.752  79.230  0.00  0.00    +0.000 A 
ATOM     18  C   UNL     1     106.313 124.975  78.876  0.00  0.00    +0.000 A 
ATOM     19  C   UNL     1     105.169 125.443  79.534  0.00  0.00    +0.000 A 
ATOM     20  C   UNL     1     104.573 124.701  80.558  0.00  0.00    +0.000 A 
ATOM     21  C   UNL     1     105.160 123.483  80.916  0.00  0.00    +0.000 A 
ATOM     22  C   UNL     1     106.290 122.988  80.241  0.00  0.00    +0.000 A 
BRANCH  17  24
ATOM     23  C   UNL     1     109.239 124.007  78.844  0.00  0.00    +0.000 C 
ATOM     24  O   UNL     1     108.042 123.260  78.665  0.00  0.00    +0.000 OA
ENDBRANCH  17  24
BRANCH  21  25
ATOM     25  O   UNL     1     104.642 122.744  81.955  0.00  0.00    +0.000 OA
ATOM     26  H   UNL     1     103.815 122.316  81.858  0.00  0.00    +0.000 HD
ENDBRANCH  21  25
BRANCH  22  27
ATOM     27  O   UNL     1     106.742 121.774  80.715  0.00  0.00    +0.000 OA
ATOM     28  C   UNL     1     107.812 121.864  81.653  0.00  0.00    +0.000 C 
ENDBRANCH  22  27
ENDBRANCH   1  20
TORSDOF 4
ENDMDL
