REMARK  Name = *****
REMARK  7 active torsions:
REMARK  status: ('A' for Active; 'I' for Inactive)
REMARK    1  A    between atoms: C_1  and  O_2
REMARK    2  A    between atoms: O_2  and  C_3
REMARK    3  A    between atoms: C_6  and  C_9
REMARK    4  A    between atoms: C_10  and  C_18
REMARK    5  A    between atoms: C_21  and  O_22
REMARK    6  A    between atoms: C_23  and  O_24
REMARK    7  A    between atoms: O_24  and  C_25
REMARK                            x       y       z     vdW  Elec       q    Type
REMARK                         _______ _______ _______ _____ _____    ______ ____
ROOT
ATOM      1  C   UNL     1       5.719   2.209   4.108  0.00  0.00    +0.000 C 
ATOM      2  C   UNL     1       6.165   1.434   5.122  0.00  0.00    +0.000 C 
ATOM      3  C   UNL     1       7.104   2.024   6.152  0.00  0.00    +0.000 C 
ATOM      4  N   UNL     1       6.799   3.408   6.531  0.00  0.00    +0.000 N 
ATOM      5  C   UNL     1       5.751   3.486   7.556  0.00  0.00    +0.000 C 
ATOM      6  C   UNL     1       5.177   4.875   7.375  0.00  0.00    +0.000 C 
ATOM      7  C   UNL     1       5.128   4.994   5.866  0.00  0.00    +0.000 C 
ATOM      8  C   UNL     1       6.408   4.284   5.403  0.00  0.00    +0.000 C 
ATOM      9  C   UNL     1       6.233   3.627   4.018  0.00  0.00    +0.000 C 
ATOM     10  H   UNL     1       7.685   3.751   6.900  0.00  0.00    +0.000 HD
ENDROOT
BRANCH   1  14
ATOM     11  C   UNL     1       3.032   0.923   1.021  0.00  0.00    +0.000 A 
ATOM     12  C   UNL     1       2.621   0.925   2.353  0.00  0.00    +0.000 A 
ATOM     13  C   UNL     1       3.498   1.347   3.359  0.00  0.00    +0.000 A 
ATOM     14  C   UNL     1       4.798   1.766   3.048  0.00  0.00    +0.000 A 
ATOM     15  C   UNL     1       5.202   1.771   1.709  0.00  0.00    +0.000 A 
ATOM     16  C   UNL     1       4.324   1.349   0.706  0.00  0.00    +0.000 A 
BRANCH  11  18
ATOM     17  C   UNL     1       0.956   0.091   0.219  0.00  0.00    +0.000 C 
ATOM     18  O   UNL     1       2.279   0.535  -0.053  0.00  0.00    +0.000 OA
ENDBRANCH  11  18
ENDBRANCH   1  14
BRANCH   2  19
ATOM     19  C   UNL     1       5.818   0.012   5.285  0.00  0.00    +0.000 A 
ATOM     20  C   UNL     1       6.332  -0.944   4.404  0.00  0.00    +0.000 A 
ATOM     21  C   UNL     1       5.992  -2.289   4.550  0.00  0.00    +0.000 A 
ATOM     22  C   UNL     1       5.127  -2.690   5.574  0.00  0.00    +0.000 A 
ATOM     23  C   UNL     1       4.592  -1.746   6.457  0.00  0.00    +0.000 A 
ATOM     24  C   UNL     1       4.958  -0.400   6.310  0.00  0.00    +0.000 A 
BRANCH  22  25
ATOM     25  O   UNL     1       4.836  -4.021   5.688  0.00  0.00    +0.000 OA
ATOM     26  H   UNL     1       5.206  -4.635   5.085  0.00  0.00    +0.000 HD
ENDBRANCH  22  25
BRANCH  23  27
ATOM     27  O   UNL     1       3.731  -1.953   7.502  0.00  0.00    +0.000 OA
ATOM     28  C   UNL     1       3.082  -3.213   7.586  0.00  0.00    +0.000 C 
ENDBRANCH  23  27
ENDBRANCH   2  19
TORSDOF 5
