MODEL 1
REMARK VINA RESULT:      -4.7      0.000      0.000
REMARK  Name = *****
REMARK  9 active torsions:
REMARK  status: ('A' for Active; 'I' for Inactive)
REMARK    1  A    between atoms: C_1  and  O_2
REMARK    2  A    between atoms: O_2  and  C_3
REMARK    3  A    between atoms: C_7  and  C_8
REMARK    4  A    between atoms: C_9  and  C_10
REMARK    5  A    between atoms: C_11  and  O_12
REMARK    6  A    between atoms: O_12  and  C_13
REMARK    7  A    between atoms: C_17  and  O_18
REMARK    8  A    between atoms: O_18  and  C_19
REMARK    9  A    between atoms: C_20  and  O_21
REMARK                            x       y       z     vdW  Elec       q    Type
REMARK                         _______ _______ _______ _____ _____    ______ ____
ROOT
ATOM      1  C   UNL     1     101.999 125.880  82.013  0.00  0.00    +0.000 C 
ATOM      2  C   UNL     1     103.249 125.740  82.475  0.00  0.00    +0.000 C 
ENDROOT
BRANCH   1   7
ATOM      3  C   UNL     1      98.840 127.758  82.944  0.00  0.00    +0.000 A 
ATOM      4  C   UNL     1      99.392 128.847  83.625  0.00  0.00    +0.000 A 
ATOM      5  C   UNL     1     100.779 128.967  83.764  0.00  0.00    +0.000 A 
ATOM      6  C   UNL     1     101.627 127.998  83.230  0.00  0.00    +0.000 A 
ATOM      7  C   UNL     1     101.095 126.898  82.551  0.00  0.00    +0.000 A 
ATOM      8  C   UNL     1      99.702 126.789  82.403  0.00  0.00    +0.000 A 
BRANCH   3  10
ATOM      9  C   UNL     1      96.757 126.996  83.824  0.00  0.00    +0.000 C 
ATOM     10  O   UNL     1      97.498 127.554  82.750  0.00  0.00    +0.000 OA
ENDBRANCH   3  10
BRANCH   8  11
ATOM     11  O   UNL     1      99.145 125.731  81.720  0.00  0.00    +0.000 OA
ATOM     12  H   UNL     1      98.907 124.950  82.179  0.00  0.00    +0.000 HD
ENDBRANCH   8  11
ENDBRANCH   1   7
BRANCH   2  13
ATOM     13  C   UNL     1     104.209 124.810  81.857  0.00  0.00    +0.000 A 
ATOM     14  C   UNL     1     104.467 123.536  82.415  0.00  0.00    +0.000 A 
ATOM     15  C   UNL     1     105.368 122.674  81.775  0.00  0.00    +0.000 A 
ATOM     16  C   UNL     1     105.994 123.053  80.584  0.00  0.00    +0.000 A 
ATOM     17  C   UNL     1     105.731 124.298  80.023  0.00  0.00    +0.000 A 
ATOM     18  C   UNL     1     104.858 125.176  80.665  0.00  0.00    +0.000 A 
BRANCH  14  19
ATOM     19  O   UNL     1     103.786 123.223  83.568  0.00  0.00    +0.000 OA
ATOM     20  C   UNL     1     104.553 122.905  84.722  0.00  0.00    +0.000 C 
ENDBRANCH  14  19
BRANCH  18  21
ATOM     21  O   UNL     1     104.593 126.383  80.064  0.00  0.00    +0.000 OA
ATOM     22  C   UNL     1     105.700 127.268  80.237  0.00  0.00    +0.000 C 
ENDBRANCH  18  21
ENDBRANCH   2  13
TORSDOF 6
ENDMDL
