MODEL 1
REMARK VINA RESULT:      -4.8      0.000      0.000
REMARK  Name = *****
REMARK  14 active torsions:
REMARK  status: ('A' for Active; 'I' for Inactive)
REMARK    1  A    between atoms: C_1  and  O_2
REMARK    2  A    between atoms: O_2  and  C_3
REMARK    3  A    between atoms: C_5  and  C_6
REMARK    4  A    between atoms: C_7  and  C_8
REMARK    5  A    between atoms: C_10  and  C_20
REMARK    6  A    between atoms: C_12  and  O_13
REMARK    7  A    between atoms: O_13  and  C_14
REMARK    8  A    between atoms: C_15  and  O_16
REMARK    9  A    between atoms: O_16  and  C_17
REMARK   10  A    between atoms: C_17  and  C_19
REMARK   11  A    between atoms: C_20  and  C_22
REMARK   12  A    between atoms: C_25  and  O_26
REMARK   13  A    between atoms: O_26  and  C_27
REMARK   14  A    between atoms: C_27  and  C_29
REMARK                            x       y       z     vdW  Elec       q    Type
REMARK                         _______ _______ _______ _____ _____    ______ ____
ROOT
ATOM      1  C   UNL     1     104.150 124.510  81.599  0.00  0.00    +0.000 A 
ATOM      2  C   UNL     1     104.292 123.249  82.192  0.00  0.00    +0.000 A 
ATOM      3  C   UNL     1     105.089 122.267  81.586  0.00  0.00    +0.000 A 
ATOM      4  C   UNL     1     105.749 122.545  80.377  0.00  0.00    +0.000 A 
ATOM      5  C   UNL     1     105.634 123.800  79.777  0.00  0.00    +0.000 A 
ATOM      6  C   UNL     1     104.845 124.774  80.408  0.00  0.00    +0.000 A 
ENDROOT
BRANCH   3   7
ATOM      7  C   UNL     1     105.254 120.907  82.182  0.00  0.00    +0.000 C 
ATOM      8  O   UNL     1     106.209 120.207  81.847  0.00  0.00    +0.000 OA
ATOM      9  C   UNL     1     104.239 120.414  83.180  0.00  0.00    +0.000 C 
ENDBRANCH   3   7
BRANCH   1  11
ATOM     10  C   UNL     1     102.090 125.844  81.804  0.00  0.00    +0.000 C 
ATOM     11  C   UNL     1     103.303 125.503  82.271  0.00  0.00    +0.000 C 
BRANCH  10  14
ATOM     12  C   UNL     1      98.957 127.601  82.935  0.00  0.00    +0.000 A 
ATOM     13  C   UNL     1      99.825 126.674  82.352  0.00  0.00    +0.000 A 
ATOM     14  C   UNL     1     101.219 126.829  82.457  0.00  0.00    +0.000 A 
ATOM     15  C   UNL     1     101.741 127.946  83.124  0.00  0.00    +0.000 A 
ATOM     16  C   UNL     1     100.886 128.886  83.700  0.00  0.00    +0.000 A 
ATOM     17  C   UNL     1      99.509 128.695  83.614  0.00  0.00    +0.000 A 
BRANCH  12  19
ATOM     18  C   UNL     1      96.952 126.597  83.716  0.00  0.00    +0.000 C 
ATOM     19  O   UNL     1      97.590 127.551  82.875  0.00  0.00    +0.000 OA
ENDBRANCH  12  19
BRANCH  17  20
ATOM     20  O   UNL     1      98.676 129.671  84.170  0.00  0.00    +0.000 OA
BRANCH  20  21
ATOM     21  C   UNL     1      98.640 129.611  85.556  0.00  0.00    +0.000 C 
ATOM     22  O   UNL     1      98.507 128.613  86.253  0.00  0.00    +0.000 OA
ATOM     23  C   UNL     1      98.842 130.994  86.100  0.00  0.00    +0.000 C 
ENDBRANCH  20  21
ENDBRANCH  17  20
ENDBRANCH  10  14
ENDBRANCH   1  11
BRANCH   5  24
ATOM     24  O   UNL     1     106.230 124.176  78.602  0.00  0.00    +0.000 OA
ATOM     25  C   UNL     1     107.653 124.155  78.560  0.00  0.00    +0.000 C 
ENDBRANCH   5  24
BRANCH   6  26
ATOM     26  O   UNL     1     104.729 126.030  79.796  0.00  0.00    +0.000 OA
BRANCH  26  27
ATOM     27  C   UNL     1     105.552 126.977  80.390  0.00  0.00    +0.000 C 
ATOM     28  O   UNL     1     106.690 126.810  80.809  0.00  0.00    +0.000 OA
ATOM     29  C   UNL     1     104.806 128.275  80.475  0.00  0.00    +0.000 C 
ENDBRANCH  26  27
ENDBRANCH   6  26
TORSDOF 9
ENDMDL
