MODEL 1
REMARK VINA RESULT:      -5.1      0.000      0.000
REMARK  Name = *****
REMARK  9 active torsions:
REMARK  status: ('A' for Active; 'I' for Inactive)
REMARK    1  A    between atoms: C_1  and  O_2
REMARK    2  A    between atoms: O_2  and  C_3
REMARK    3  A    between atoms: C_5  and  C_6
REMARK    4  A    between atoms: C_7  and  C_8
REMARK    5  A    between atoms: C_10  and  O_11
REMARK    6  A    between atoms: O_11  and  C_12
REMARK    7  A    between atoms: C_16  and  C_17
REMARK    8  A    between atoms: C_16  and  C_18
REMARK    9  A    between atoms: C_24  and  O_25
REMARK                            x       y       z     vdW  Elec       q    Type
REMARK                         _______ _______ _______ _____ _____    ______ ____
ROOT
ATOM      1  C   UNL     1      87.222  64.685  88.191  0.00  0.00    +0.000 A 
ATOM      2  C   UNL     1      88.241  64.077  87.450  0.00  0.00    +0.000 A 
ATOM      3  C   UNL     1      89.149  64.857  86.724  0.00  0.00    +0.000 A 
ATOM      4  C   UNL     1      89.075  66.257  86.747  0.00  0.00    +0.000 A 
ATOM      5  C   UNL     1      90.036  67.097  86.043  0.00  0.00    +0.000 C 
ATOM      6  C   UNL     1      89.852  68.420  86.061  0.00  0.00    +0.000 C 
ATOM      7  C   UNL     1      88.702  69.087  86.779  0.00  0.00    +0.000 C 
ATOM      8  C   UNL     1      89.255  70.121  87.766  0.00  0.00    +0.000 C 
ATOM      9  C   UNL     1      87.800  69.784  85.754  0.00  0.00    +0.000 C 
ATOM     10  O   UNL     1      87.854  68.212  87.549  0.00  0.00    +0.000 OA
ATOM     11  C   UNL     1      88.042  66.860  87.467  0.00  0.00    +0.000 A 
ATOM     12  C   UNL     1      87.122  66.081  88.177  0.00  0.00    +0.000 A 
ENDROOT
BRANCH   1  14
ATOM     13  C   UNL     1      86.217  62.500  88.794  0.00  0.00    +0.000 C 
ATOM     14  C   UNL     1      86.264  63.836  88.914  0.00  0.00    +0.000 C 
BRANCH  13  17
ATOM     15  C   UNL     1      84.729  59.703  90.887  0.00  0.00    +0.000 A 
ATOM     16  C   UNL     1      85.657  60.479  90.182  0.00  0.00    +0.000 A 
ATOM     17  C   UNL     1      85.260  61.651  89.521  0.00  0.00    +0.000 A 
ATOM     18  C   UNL     1      83.923  62.060  89.596  0.00  0.00    +0.000 A 
ATOM     19  C   UNL     1      82.987  61.297  90.296  0.00  0.00    +0.000 A 
ATOM     20  C   UNL     1      83.394  60.126  90.933  0.00  0.00    +0.000 A 
BRANCH  15  22
ATOM     21  C   UNL     1      85.937  57.646  90.949  0.00  0.00    +0.000 C 
ATOM     22  O   UNL     1      85.019  58.543  91.557  0.00  0.00    +0.000 OA
ENDBRANCH  15  22
BRANCH  20  23
ATOM     23  O   UNL     1      82.477  59.374  91.620  0.00  0.00    +0.000 OA
ATOM     24  H   UNL     1      82.759  58.807  92.311  0.00  0.00    +0.000 HD
ENDBRANCH  20  23
ENDBRANCH  13  17
ENDBRANCH   1  14
BRANCH   3  25
ATOM     25  O   UNL     1      90.165  64.237  86.037  0.00  0.00    +0.000 OA
ATOM     26  C   UNL     1      89.638  63.307  85.090  0.00  0.00    +0.000 C 
ENDBRANCH   3  25
TORSDOF 5
ENDMDL
