MODEL 1
REMARK VINA RESULT:      -4.7      0.000      0.000
REMARK  Name = *****
REMARK  12 active torsions:
REMARK  status: ('A' for Active; 'I' for Inactive)
REMARK    1  A    between atoms: C_1  and  O_2
REMARK    2  A    between atoms: O_2  and  C_3
REMARK    3  A    between atoms: C_5  and  C_6
REMARK    4  A    between atoms: C_7  and  C_8
REMARK    5  A    between atoms: C_12  and  O_13
REMARK    6  A    between atoms: O_13  and  C_14
REMARK    7  A    between atoms: C_15  and  O_16
REMARK    8  A    between atoms: O_16  and  C_17
REMARK    9  A    between atoms: C_17  and  C_19
REMARK   10  A    between atoms: C_22  and  O_23
REMARK   11  A    between atoms: O_23  and  C_24
REMARK   12  A    between atoms: C_24  and  C_26
REMARK                            x       y       z     vdW  Elec       q    Type
REMARK                         _______ _______ _______ _____ _____    ______ ____
ROOT
ATOM      1  C   UNL     1     102.116 125.772  81.850  0.00  0.00    +0.000 C 
ATOM      2  C   UNL     1     103.318 125.455  82.354  0.00  0.00    +0.000 C 
ENDROOT
BRANCH   1   5
ATOM      3  C   UNL     1      98.960 127.610  82.900  0.00  0.00    +0.000 A 
ATOM      4  C   UNL     1      99.801 126.641  82.345  0.00  0.00    +0.000 A 
ATOM      5  C   UNL     1     101.200 126.758  82.444  0.00  0.00    +0.000 A 
ATOM      6  C   UNL     1     101.751 127.882  83.076  0.00  0.00    +0.000 A 
ATOM      7  C   UNL     1     100.926 128.861  83.628  0.00  0.00    +0.000 A 
ATOM      8  C   UNL     1      99.544 128.706  83.548  0.00  0.00    +0.000 A 
BRANCH   3  10
ATOM      9  C   UNL     1      96.920 126.718  83.733  0.00  0.00    +0.000 C 
ATOM     10  O   UNL     1      97.592 127.601  82.844  0.00  0.00    +0.000 OA
ENDBRANCH   3  10
BRANCH   8  11
ATOM     11  O   UNL     1      98.737 129.720  84.074  0.00  0.00    +0.000 OA
BRANCH  11  12
ATOM     12  C   UNL     1      98.723 129.718  85.463  0.00  0.00    +0.000 C 
ATOM     13  O   UNL     1      98.529 128.761  86.203  0.00  0.00    +0.000 OA
ATOM     14  C   UNL     1      99.045 131.101  85.947  0.00  0.00    +0.000 C 
ENDBRANCH  11  12
ENDBRANCH   8  11
ENDBRANCH   1   5
BRANCH   2  15
ATOM     15  C   UNL     1     104.191 124.487  81.683  0.00  0.00    +0.000 A 
ATOM     16  C   UNL     1     104.404 123.238  82.271  0.00  0.00    +0.000 A 
ATOM     17  C   UNL     1     105.221 122.296  81.642  0.00  0.00    +0.000 A 
ATOM     18  C   UNL     1     105.831 122.588  80.415  0.00  0.00    +0.000 A 
ATOM     19  C   UNL     1     105.632 123.829  79.808  0.00  0.00    +0.000 A 
ATOM     20  C   UNL     1     104.822 124.771  80.461  0.00  0.00    +0.000 A 
BRANCH  19  21
ATOM     21  O   UNL     1     106.163 124.219  78.607  0.00  0.00    +0.000 OA
ATOM     22  C   UNL     1     107.579 124.196  78.486  0.00  0.00    +0.000 C 
ENDBRANCH  19  21
BRANCH  20  23
ATOM     23  O   UNL     1     104.595 126.006  79.839  0.00  0.00    +0.000 OA
BRANCH  23  24
ATOM     24  C   UNL     1     105.391 127.012  80.367  0.00  0.00    +0.000 C 
ATOM     25  O   UNL     1     106.548 126.915  80.758  0.00  0.00    +0.000 OA
ATOM     26  C   UNL     1     104.591 128.280  80.417  0.00  0.00    +0.000 C 
ENDBRANCH  23  24
ENDBRANCH  20  23
ENDBRANCH   2  15
TORSDOF 8
ENDMDL
