MODEL 1
REMARK VINA RESULT:      -5.8      0.000      0.000
REMARK  Name = *****
REMARK  11 active torsions:
REMARK  status: ('A' for Active; 'I' for Inactive)
REMARK    1  A    between atoms: C_1  and  O_2
REMARK    2  A    between atoms: O_2  and  C_3
REMARK    3  A    between atoms: C_7  and  C_8
REMARK    4  A    between atoms: C_7  and  C_9
REMARK    5  A    between atoms: C_16  and  C_19
REMARK    6  A    between atoms: C_22  and  O_23
REMARK    7  A    between atoms: O_23  and  C_24
REMARK    8  A    between atoms: C_24  and  C_26
REMARK    9  A    between atoms: C_28  and  O_29
REMARK   10  A    between atoms: O_29  and  C_30
REMARK   11  A    between atoms: C_30  and  C_32
REMARK                            x       y       z     vdW  Elec       q    Type
REMARK                         _______ _______ _______ _____ _____    ______ ____
ROOT
ATOM      1  C   UNL     1      86.295  63.760  90.498  0.00  0.00    +0.000 A 
ATOM      2  C   UNL     1      85.714  62.498  90.732  0.00  0.00    +0.000 A 
ATOM      3  C   UNL     1      85.107  62.138  92.009  0.00  0.00    +0.000 C 
ATOM      4  C   UNL     1      84.704  60.876  92.188  0.00  0.00    +0.000 C 
ATOM      5  C   UNL     1      84.835  59.814  91.123  0.00  0.00    +0.000 C 
ATOM      6  C   UNL     1      85.925  58.813  91.523  0.00  0.00    +0.000 C 
ATOM      7  C   UNL     1      83.496  59.082  90.969  0.00  0.00    +0.000 C 
ATOM      8  O   UNL     1      85.166  60.304  89.807  0.00  0.00    +0.000 OA
ATOM      9  C   UNL     1      85.688  61.564  89.691  0.00  0.00    +0.000 A 
ATOM     10  C   UNL     1      86.186  61.893  88.430  0.00  0.00    +0.000 A 
ATOM     11  C   UNL     1      86.702  63.166  88.192  0.00  0.00    +0.000 A 
ATOM     12  O   UNL     1      87.175  63.394  86.927  0.00  0.00    +0.000 OA
ATOM     13  C   UNL     1      87.278  64.772  86.530  0.00  0.00    +0.000 C 
ATOM     14  C   UNL     1      87.587  65.730  87.646  0.00  0.00    +0.000 C 
ATOM     15  C   UNL     1      87.344  65.427  88.928  0.00  0.00    +0.000 C 
ATOM     16  C   UNL     1      86.765  64.115  89.220  0.00  0.00    +0.000 A 
ENDROOT
BRANCH  14  17
ATOM     17  C   UNL     1      88.151  67.036  87.283  0.00  0.00    +0.000 A 
ATOM     18  C   UNL     1      87.409  68.199  87.531  0.00  0.00    +0.000 A 
ATOM     19  C   UNL     1      87.926  69.452  87.191  0.00  0.00    +0.000 A 
ATOM     20  C   UNL     1      89.197  69.548  86.621  0.00  0.00    +0.000 A 
ATOM     21  C   UNL     1      89.952  68.408  86.357  0.00  0.00    +0.000 A 
ATOM     22  C   UNL     1      89.418  67.161  86.690  0.00  0.00    +0.000 A 
BRANCH  20  23
ATOM     23  O   UNL     1      89.619  70.835  86.245  0.00  0.00    +0.000 OA
BRANCH  23  24
ATOM     24  C   UNL     1      89.772  71.131  84.893  0.00  0.00    +0.000 C 
ATOM     25  O   UNL     1      90.785  70.996  84.221  0.00  0.00    +0.000 OA
ATOM     26  C   UNL     1      88.489  71.715  84.377  0.00  0.00    +0.000 C 
ENDBRANCH  23  24
ENDBRANCH  20  23
BRANCH  22  27
ATOM     27  O   UNL     1      90.207  66.021  86.488  0.00  0.00    +0.000 OA
BRANCH  27  28
ATOM     28  C   UNL     1      90.456  65.756  85.148  0.00  0.00    +0.000 C 
ATOM     29  O   UNL     1      89.754  66.068  84.194  0.00  0.00    +0.000 OA
ATOM     30  C   UNL     1      91.740  64.989  85.037  0.00  0.00    +0.000 C 
ENDBRANCH  27  28
ENDBRANCH  22  27
ENDBRANCH  14  17
BRANCH   1  32
ATOM     31  C   UNL     1      87.550  64.518  92.272  0.00  0.00    +0.000 C 
ATOM     32  O   UNL     1      86.349  64.690  91.517  0.00  0.00    +0.000 OA
ENDBRANCH   1  32
TORSDOF 6
ENDMDL
