MODEL 1
REMARK VINA RESULT:      -5.8      0.000      0.000
REMARK  Name = *****
REMARK  5 active torsions:
REMARK  status: ('A' for Active; 'I' for Inactive)
REMARK    1  A    between atoms: C_1  and  C_2
REMARK    2  A    between atoms: C_2  and  C_3
REMARK    3  A    between atoms: C_8  and  C_9
REMARK    4  A    between atoms: C_14  and  O_15
REMARK    5  A    between atoms: C_20  and  O_21
REMARK                            x       y       z     vdW  Elec       q    Type
REMARK                         _______ _______ _______ _____ _____    ______ ____
ROOT
ATOM      1  C   UNL     1     101.323 126.418  82.272  0.00  0.00    +0.000 C 
ATOM      2  C   UNL     1     102.849 126.382  82.122  0.00  0.00    +0.000 C 
ATOM      3  C   UNL     1     103.437 127.743  82.509  0.00  0.00    +0.000 C 
ATOM      4  O   UNL     1     103.336 125.441  83.102  0.00  0.00    +0.000 OA
ATOM      5  C   UNL     1     103.971 124.308  82.677  0.00  0.00    +0.000 A 
ATOM      6  C   UNL     1     104.346 123.420  83.686  0.00  0.00    +0.000 A 
ATOM      7  C   UNL     1     105.005 122.231  83.370  0.00  0.00    +0.000 A 
ATOM      8  C   UNL     1     105.298 121.917  82.037  0.00  0.00    +0.000 A 
ATOM      9  C   UNL     1     104.920 122.821  81.025  0.00  0.00    +0.000 A 
ATOM     10  C   UNL     1     104.255 124.020  81.338  0.00  0.00    +0.000 A 
ATOM     11  C   UNL     1     103.860 124.977  80.311  0.00  0.00    +0.000 C 
ATOM     12  C   UNL     1     103.202 126.077  80.687  0.00  0.00    +0.000 C 
ENDROOT
BRANCH   8  13
ATOM     13  C   UNL     1     105.982 120.646  81.752  0.00  0.00    +0.000 C 
ATOM     14  C   UNL     1     105.315 119.486  81.824  0.00  0.00    +0.000 C 
ATOM     15  C   UNL     1     106.063 118.268  81.540  0.00  0.00    +0.000 A 
ATOM     16  C   UNL     1     105.492 117.009  81.757  0.00  0.00    +0.000 A 
ATOM     17  C   UNL     1     106.207 115.849  81.444  0.00  0.00    +0.000 A 
ATOM     18  C   UNL     1     107.486 115.957  80.906  0.00  0.00    +0.000 A 
ATOM     19  C   UNL     1     108.062 117.202  80.679  0.00  0.00    +0.000 A 
ATOM     20  C   UNL     1     107.354 118.357  81.007  0.00  0.00    +0.000 A 
ATOM     21  O   UNL     1     107.967 119.550  80.731  0.00  0.00    +0.000 OA
ATOM     22  C   UNL     1     107.448 120.705  81.414  0.00  0.00    +0.000 C 
BRANCH  18  23
ATOM     23  O   UNL     1     108.213 114.851  80.578  0.00  0.00    +0.000 OA
ATOM     24  H   UNL     1     108.865 114.527  81.168  0.00  0.00    +0.000 HD
ENDBRANCH  18  23
ENDBRANCH   8  13
BRANCH   9  25
ATOM     25  O   UNL     1     105.201 122.564  79.702  0.00  0.00    +0.000 OA
ATOM     26  H   UNL     1     105.257 121.680  79.399  0.00  0.00    +0.000 HD
ENDBRANCH   9  25
TORSDOF 3
ENDMDL
