MODEL 1
REMARK VINA RESULT:      -5.0      0.000      0.000
REMARK  Name = *****
REMARK  3 active torsions:
REMARK  status: ('A' for Active; 'I' for Inactive)
REMARK    1  A    between atoms: C_1  and  C_2
REMARK    2  A    between atoms: C_2  and  C_10
REMARK    3  A    between atoms: C_3  and  C_4
REMARK                            x       y       z     vdW  Elec       q    Type
REMARK                         _______ _______ _______ _____ _____    ______ ____
ROOT
ATOM      1  C   UNL     1     103.199 127.105  80.793  0.00  0.00    +0.000 C 
ATOM      2  C   UNL     1     102.878 125.969  81.722  0.00  0.00    +0.000 C 
ATOM      3  C   UNL     1     101.885 125.928  82.631  0.00  0.00    +0.000 C 
ENDROOT
BRANCH   3   4
ATOM      4  C   UNL     1     100.931 127.012  82.862  0.00  0.00    +0.000 A 
ATOM      5  C   UNL     1     101.339 128.180  83.516  0.00  0.00    +0.000 A 
ATOM      6  C   UNL     1     100.427 129.212  83.743  0.00  0.00    +0.000 A 
ATOM      7  C   UNL     1      99.105 129.081  83.319  0.00  0.00    +0.000 A 
ATOM      8  C   UNL     1      98.693 127.917  82.668  0.00  0.00    +0.000 A 
ATOM      9  C   UNL     1      99.604 126.885  82.441  0.00  0.00    +0.000 A 
ENDBRANCH   3   4
BRANCH   2  10
ATOM     10  C   UNL     1     103.754 124.792  81.603  0.00  0.00    +0.000 A 
ATOM     11  C   UNL     1     104.316 124.454  80.367  0.00  0.00    +0.000 A 
ATOM     12  C   UNL     1     105.141 123.334  80.252  0.00  0.00    +0.000 A 
ATOM     13  C   UNL     1     105.406 122.545  81.371  0.00  0.00    +0.000 A 
ATOM     14  C   UNL     1     104.845 122.874  82.605  0.00  0.00    +0.000 A 
ATOM     15  C   UNL     1     104.021 123.994  82.721  0.00  0.00    +0.000 A 
ENDBRANCH   2  10
TORSDOF 2
ENDMDL
