MODEL 1
REMARK VINA RESULT:      -4.9      0.000      0.000
REMARK  Name = *****
REMARK  7 active torsions:
REMARK  status: ('A' for Active; 'I' for Inactive)
REMARK    1  A    between atoms: C_1  and  O_2
REMARK    2  A    between atoms: O_2  and  C_3
REMARK    3  A    between atoms: C_9  and  O_10
REMARK    4  A    between atoms: O_10  and  C_11
REMARK    5  A    between atoms: C_14  and  O_15
REMARK    6  A    between atoms: C_19  and  O_20
REMARK    7  A    between atoms: C_21  and  C_22
REMARK                            x       y       z     vdW  Elec       q    Type
REMARK                         _______ _______ _______ _____ _____    ______ ____
ROOT
ATOM      1  C   UNL     1      86.151  71.550  88.945  0.00  0.00    +0.000 A 
ATOM      2  C   UNL     1      85.482  71.736  87.725  0.00  0.00    +0.000 A 
ATOM      3  C   UNL     1      86.126  71.493  86.503  0.00  0.00    +0.000 A 
ATOM      4  C   UNL     1      85.387  71.683  85.246  0.00  0.00    +0.000 C 
ATOM      5  C   UNL     1      85.929  72.099  84.088  0.00  0.00    +0.000 C 
ATOM      6  C   UNL     1      87.349  72.448  83.872  0.00  0.00    +0.000 A 
ATOM      7  C   UNL     1      87.707  73.465  82.957  0.00  0.00    +0.000 A 
ATOM      8  C   UNL     1      89.060  73.768  82.744  0.00  0.00    +0.000 A 
ATOM      9  C   UNL     1      90.067  73.072  83.421  0.00  0.00    +0.000 A 
ATOM     10  C   UNL     1      89.721  72.063  84.309  0.00  0.00    +0.000 A 
ATOM     11  C   UNL     1      88.376  71.755  84.534  0.00  0.00    +0.000 A 
ATOM     12  O   UNL     1      88.116  70.697  85.376  0.00  0.00    +0.000 OA
ATOM     13  C   UNL     1      87.448  71.046  86.527  0.00  0.00    +0.000 A 
ATOM     14  C   UNL     1      88.123  70.862  87.737  0.00  0.00    +0.000 A 
ATOM     15  C   UNL     1      87.487  71.097  88.959  0.00  0.00    +0.000 A 
ATOM     16  C   UNL     1      88.223  70.925  90.260  0.00  0.00    +0.000 C 
ENDROOT
BRANCH   1  18
ATOM     17  C   UNL     1      84.541  72.740  90.253  0.00  0.00    +0.000 C 
ATOM     18  O   UNL     1      85.594  71.789  90.178  0.00  0.00    +0.000 OA
ENDBRANCH   1  18
BRANCH   7  19
ATOM     19  O   UNL     1      86.669  74.106  82.323  0.00  0.00    +0.000 OA
ATOM     20  C   UNL     1      86.961  74.821  81.130  0.00  0.00    +0.000 C 
ENDBRANCH   7  19
BRANCH  10  21
ATOM     21  O   UNL     1      90.683  71.366  84.989  0.00  0.00    +0.000 OA
ATOM     22  H   UNL     1      91.062  70.598  84.608  0.00  0.00    +0.000 HD
ENDBRANCH  10  21
BRANCH  14  23
ATOM     23  O   UNL     1      89.437  70.465  87.719  0.00  0.00    +0.000 OA
ATOM     24  H   UNL     1      89.809  70.112  86.934  0.00  0.00    +0.000 HD
ENDBRANCH  14  23
TORSDOF 4
ENDMDL
