MODEL 1
REMARK VINA RESULT:      -4.8      0.000      0.000
REMARK  Name = *****
REMARK  11 active torsions:
REMARK  status: ('A' for Active; 'I' for Inactive)
REMARK    1  A    between atoms: C_1  and  O_2
REMARK    2  A    between atoms: O_2  and  C_3
REMARK    3  A    between atoms: C_6  and  C_11
REMARK    4  A    between atoms: C_8  and  O_9
REMARK    5  A    between atoms: O_9  and  C_10
REMARK    6  A    between atoms: C_12  and  C_21
REMARK    7  A    between atoms: C_14  and  O_15
REMARK    8  A    between atoms: C_24  and  O_25
REMARK    9  A    between atoms: O_25  and  C_26
REMARK   10  A    between atoms: C_27  and  O_28
REMARK   11  A    between atoms: O_28  and  C_29
REMARK                            x       y       z     vdW  Elec       q    Type
REMARK                         _______ _______ _______ _____ _____    ______ ____
ROOT
ATOM      1  C   UNL     1      88.030  69.072  85.079  0.00  0.00    +0.000 C 
ATOM      2  C   UNL     1      87.626  68.791  86.337  0.00  0.00    +0.000 C 
ATOM      3  C   UNL     1      87.233  67.368  86.654  0.00  0.00    +0.000 C 
ATOM      4  C   UNL     1      88.112  66.318  85.925  0.00  0.00    +0.000 C 
ATOM      5  C   UNL     1      89.340  65.934  86.772  0.00  0.00    +0.000 C 
ATOM      6  C   UNL     1      90.405  65.624  85.736  0.00  0.00    +0.000 C 
ATOM      7  C   UNL     1      90.117  66.671  84.683  0.00  0.00    +0.000 C 
ATOM      8  N   UNL     1      88.656  66.699  84.616  0.00  0.00    +0.000 N 
ATOM      9  C   UNL     1      88.133  67.950  84.069  0.00  0.00    +0.000 C 
ATOM     10  H   UNL     1      88.333  66.006  83.940  0.00  0.00    +0.000 HD
ENDROOT
BRANCH   1  14
ATOM     11  C   UNL     1      88.991  73.023  83.692  0.00  0.00    +0.000 A 
ATOM     12  C   UNL     1      89.980  72.191  84.230  0.00  0.00    +0.000 A 
ATOM     13  C   UNL     1      89.665  70.903  84.676  0.00  0.00    +0.000 A 
ATOM     14  C   UNL     1      88.353  70.426  84.604  0.00  0.00    +0.000 A 
ATOM     15  C   UNL     1      87.365  71.250  84.062  0.00  0.00    +0.000 A 
ATOM     16  C   UNL     1      87.680  72.527  83.580  0.00  0.00    +0.000 A 
BRANCH  11  18
ATOM     17  C   UNL     1      89.705  74.496  81.952  0.00  0.00    +0.000 C 
ATOM     18  O   UNL     1      89.222  74.307  83.275  0.00  0.00    +0.000 OA
ENDBRANCH  11  18
BRANCH  16  19
ATOM     19  O   UNL     1      86.601  73.211  83.075  0.00  0.00    +0.000 OA
ATOM     20  C   UNL     1      85.335  72.799  83.582  0.00  0.00    +0.000 C 
ENDBRANCH  16  19
ENDBRANCH   1  14
BRANCH   2  21
ATOM     21  C   UNL     1      87.494  69.777  87.420  0.00  0.00    +0.000 A 
ATOM     22  C   UNL     1      88.546  69.997  88.314  0.00  0.00    +0.000 A 
ATOM     23  C   UNL     1      88.417  70.925  89.353  0.00  0.00    +0.000 A 
ATOM     24  C   UNL     1      87.235  71.657  89.514  0.00  0.00    +0.000 A 
ATOM     25  C   UNL     1      86.191  71.462  88.593  0.00  0.00    +0.000 A 
ATOM     26  C   UNL     1      86.312  70.506  87.576  0.00  0.00    +0.000 A 
BRANCH  24  27
ATOM     27  O   UNL     1      87.020  72.550  90.530  0.00  0.00    +0.000 OA
ATOM     28  C   UNL     1      88.121  72.875  91.367  0.00  0.00    +0.000 C 
ENDBRANCH  24  27
BRANCH  25  29
ATOM     29  O   UNL     1      84.977  72.102  88.624  0.00  0.00    +0.000 OA
ATOM     30  C   UNL     1      84.440  72.395  87.336  0.00  0.00    +0.000 C 
ENDBRANCH  25  29
ENDBRANCH   2  21
BRANCH   4  31
ATOM     31  O   UNL     1      87.330  65.139  85.735  0.00  0.00    +0.000 OA
ATOM     32  H   UNL     1      86.618  65.115  86.393  0.00  0.00    +0.000 HD
ENDBRANCH   4  31
TORSDOF 7
ENDMDL
