REMARK  Name = *****
REMARK  13 active torsions:
REMARK  status: ('A' for Active; 'I' for Inactive)
REMARK    1  A    between atoms: C_1  and  O_2
REMARK    2  A    between atoms: O_2  and  C_3
REMARK    3  A    between atoms: C_5  and  C_6
REMARK    4  A    between atoms: C_7  and  C_8
REMARK    5  A    between atoms: C_10  and  C_11
REMARK    6  A    between atoms: C_14  and  O_15
REMARK    7  A    between atoms: O_15  and  C_16
REMARK    8  A    between atoms: C_17  and  O_18
REMARK    9  A    between atoms: O_18  and  C_19
REMARK   10  A    between atoms: C_19  and  C_21
REMARK   11  A    between atoms: C_24  and  O_25
REMARK   12  A    between atoms: O_25  and  C_26
REMARK   13  A    between atoms: C_26  and  C_28
REMARK                            x       y       z     vdW  Elec       q    Type
REMARK                         _______ _______ _______ _____ _____    ______ ____
ROOT
ATOM      1  C   UNL     1       3.274   3.565  -3.187  0.00  0.00    +0.000 C 
ATOM      2  C   UNL     1       2.029   4.020  -3.391  0.00  0.00    +0.000 C 
ENDROOT
BRANCH   1   5
ATOM      3  C   UNL     1       3.233   0.440  -1.041  0.00  0.00    +0.000 A 
ATOM      4  C   UNL     1       2.886   1.691  -1.562  0.00  0.00    +0.000 A 
ATOM      5  C   UNL     1       3.577   2.226  -2.665  0.00  0.00    +0.000 A 
ATOM      6  C   UNL     1       4.634   1.505  -3.235  0.00  0.00    +0.000 A 
ATOM      7  C   UNL     1       4.988   0.255  -2.730  0.00  0.00    +0.000 A 
ATOM      8  C   UNL     1       4.276  -0.268  -1.652  0.00  0.00    +0.000 A 
BRANCH   3  10
ATOM      9  C   UNL     1       1.565   0.520   0.657  0.00  0.00    +0.000 C 
ATOM     10  O   UNL     1       2.651  -0.161   0.042  0.00  0.00    +0.000 OA
ENDBRANCH   3  10
BRANCH   8  11
ATOM     11  O   UNL     1       4.686  -1.496  -1.124  0.00  0.00    +0.000 OA
BRANCH  11  12
ATOM     12  C   UNL     1       3.963  -2.563  -1.639  0.00  0.00    +0.000 C 
ATOM     13  O   UNL     1       3.129  -2.532  -2.534  0.00  0.00    +0.000 OA
ATOM     14  C   UNL     1       4.379  -3.813  -0.920  0.00  0.00    +0.000 C 
ENDBRANCH  11  12
ENDBRANCH   8  11
ENDBRANCH   1   5
BRANCH   2  15
ATOM     15  C   UNL     1       1.790   5.373  -3.902  0.00  0.00    +0.000 A 
ATOM     16  C   UNL     1       1.950   6.468  -3.046  0.00  0.00    +0.000 A 
ATOM     17  C   UNL     1       1.738   7.763  -3.528  0.00  0.00    +0.000 A 
ATOM     18  C   UNL     1       1.374   7.988  -4.863  0.00  0.00    +0.000 A 
ATOM     19  C   UNL     1       1.209   6.909  -5.731  0.00  0.00    +0.000 A 
ATOM     20  C   UNL     1       1.404   5.608  -5.232  0.00  0.00    +0.000 A 
BRANCH  17  21
ATOM     21  C   UNL     1       1.911   8.906  -2.610  0.00  0.00    +0.000 C 
ATOM     22  O   UNL     1       1.770  10.064  -2.982  0.00  0.00    +0.000 OA
ENDBRANCH  17  21
BRANCH  19  23
ATOM     23  O   UNL     1       0.874   7.001  -7.056  0.00  0.00    +0.000 OA
ATOM     24  C   UNL     1       0.626   8.304  -7.573  0.00  0.00    +0.000 C 
ENDBRANCH  19  23
BRANCH  20  25
ATOM     25  O   UNL     1       1.273   4.528  -6.115  0.00  0.00    +0.000 OA
BRANCH  25  26
ATOM     26  C   UNL     1      -0.031   4.055  -6.164  0.00  0.00    +0.000 C 
ATOM     27  O   UNL     1      -0.968   4.400  -5.454  0.00  0.00    +0.000 OA
ATOM     28  C   UNL     1      -0.118   2.989  -7.215  0.00  0.00    +0.000 C 
ENDBRANCH  25  26
ENDBRANCH  20  25
ENDBRANCH   2  15
TORSDOF 9
