MODEL 1
REMARK VINA RESULT:      -4.7      0.000      0.000
REMARK  Name = *****
REMARK  10 active torsions:
REMARK  status: ('A' for Active; 'I' for Inactive)
REMARK    1  A    between atoms: C_1  and  O_2
REMARK    2  A    between atoms: O_2  and  C_3
REMARK    3  A    between atoms: C_6  and  C_11
REMARK    4  A    between atoms: C_8  and  O_9
REMARK    5  A    between atoms: O_9  and  C_10
REMARK    6  A    between atoms: C_12  and  C_20
REMARK    7  A    between atoms: C_23  and  O_24
REMARK    8  A    between atoms: O_24  and  C_25
REMARK    9  A    between atoms: C_26  and  O_27
REMARK   10  A    between atoms: O_27  and  C_28
REMARK                            x       y       z     vdW  Elec       q    Type
REMARK                         _______ _______ _______ _____ _____    ______ ____
ROOT
ATOM      1  C   UNL     1      89.361  67.248  85.810  0.00  0.00    +0.000 C 
ATOM      2  C   UNL     1      88.422  66.997  86.747  0.00  0.00    +0.000 C 
ATOM      3  C   UNL     1      87.774  68.150  87.482  0.00  0.00    +0.000 C 
ATOM      4  N   UNL     1      87.499  69.323  86.644  0.00  0.00    +0.000 N 
ATOM      5  C   UNL     1      86.241  69.191  85.901  0.00  0.00    +0.000 C 
ATOM      6  C   UNL     1      86.423  70.119  84.719  0.00  0.00    +0.000 C 
ATOM      7  C   UNL     1      87.860  69.846  84.332  0.00  0.00    +0.000 C 
ATOM      8  C   UNL     1      88.573  69.658  85.679  0.00  0.00    +0.000 C 
ATOM      9  C   UNL     1      89.764  68.683  85.570  0.00  0.00    +0.000 C 
ATOM     10  H   UNL     1      87.438  70.085  87.318  0.00  0.00    +0.000 HD
ENDROOT
BRANCH   1  14
ATOM     11  C   UNL     1      91.401  64.243  83.507  0.00  0.00    +0.000 A 
ATOM     12  C   UNL     1      91.899  64.667  84.749  0.00  0.00    +0.000 A 
ATOM     13  C   UNL     1      91.237  65.642  85.500  0.00  0.00    +0.000 A 
ATOM     14  C   UNL     1      90.059  66.219  85.026  0.00  0.00    +0.000 A 
ATOM     15  C   UNL     1      89.554  65.798  83.794  0.00  0.00    +0.000 A 
ATOM     16  C   UNL     1      90.211  64.822  83.025  0.00  0.00    +0.000 A 
BRANCH  11  18
ATOM     17  C   UNL     1      92.974  63.713  81.780  0.00  0.00    +0.000 C 
ATOM     18  O   UNL     1      92.020  63.290  82.744  0.00  0.00    +0.000 OA
ENDBRANCH  11  18
BRANCH  16  19
ATOM     19  O   UNL     1      89.548  64.570  81.851  0.00  0.00    +0.000 OA
ATOM     20  C   UNL     1      88.428  63.699  81.864  0.00  0.00    +0.000 C 
ENDBRANCH  16  19
ENDBRANCH   1  14
BRANCH   2  21
ATOM     21  C   UNL     1      87.998  65.644  87.138  0.00  0.00    +0.000 A 
ATOM     22  C   UNL     1      86.940  65.021  86.477  0.00  0.00    +0.000 A 
ATOM     23  C   UNL     1      86.520  63.745  86.863  0.00  0.00    +0.000 A 
ATOM     24  C   UNL     1      87.147  63.065  87.919  0.00  0.00    +0.000 A 
ATOM     25  C   UNL     1      88.223  63.686  88.578  0.00  0.00    +0.000 A 
ATOM     26  C   UNL     1      88.632  64.971  88.185  0.00  0.00    +0.000 A 
BRANCH  24  27
ATOM     27  O   UNL     1      86.742  61.831  88.356  0.00  0.00    +0.000 OA
ATOM     28  C   UNL     1      85.709  61.768  89.330  0.00  0.00    +0.000 C 
ENDBRANCH  24  27
BRANCH  25  29
ATOM     29  O   UNL     1      88.960  63.211  89.634  0.00  0.00    +0.000 OA
ATOM     30  C   UNL     1      88.970  63.965  90.837  0.00  0.00    +0.000 C 
ENDBRANCH  25  29
ENDBRANCH   2  21
TORSDOF 6
ENDMDL
