MODEL 1
REMARK VINA RESULT:      -5.2      0.000      0.000
REMARK  Name = *****
REMARK  4 active torsions:
REMARK  status: ('A' for Active; 'I' for Inactive)
REMARK    1  A    between atoms: C_1  and  O_2
REMARK    2  A    between atoms: O_2  and  C_3
REMARK    3  A    between atoms: C_12  and  O_13
REMARK    4  A    between atoms: O_13  and  C_14
REMARK                            x       y       z     vdW  Elec       q    Type
REMARK                         _______ _______ _______ _____ _____    ______ ____
ROOT
ATOM      1  C   UNL     1      90.114  70.610  84.927  0.00  0.00    +0.000 A 
ATOM      2  C   UNL     1      89.697  70.825  86.242  0.00  0.00    +0.000 A 
ATOM      3  C   UNL     1      89.157  69.780  86.996  0.00  0.00    +0.000 A 
ATOM      4  C   UNL     1      89.015  68.502  86.445  0.00  0.00    +0.000 A 
ATOM      5  C   UNL     1      88.437  67.417  87.238  0.00  0.00    +0.000 C 
ATOM      6  C   UNL     1      88.312  66.174  86.733  0.00  0.00    +0.000 C 
ATOM      7  N   UNL     1      88.722  65.862  85.420  0.00  0.00    +0.000 N 
ATOM      8  C   UNL     1      89.264  66.901  84.514  0.00  0.00    +0.000 C 
ATOM      9  C   UNL     1      89.431  68.265  85.133  0.00  0.00    +0.000 A 
ATOM     10  C   UNL     1      90.003  69.315  84.387  0.00  0.00    +0.000 A 
ATOM     11  C   UNL     1      88.597  64.570  84.924  0.00  0.00    +0.000 C 
ATOM     12  C   UNL     1      88.103  63.528  85.598  0.00  0.00    +0.000 C 
ATOM     13  C   UNL     1      87.645  63.747  86.970  0.00  0.00    +0.000 C 
ATOM     14  C   UNL     1      87.119  62.658  87.685  0.00  0.00    +0.000 C 
ATOM     15  C   UNL     1      86.688  62.879  88.971  0.00  0.00    +0.000 C 
ATOM     16  O   UNL     1      86.155  61.947  89.805  0.00  0.00    +0.000 OA
ATOM     17  C   UNL     1      85.901  62.748  90.978  0.00  0.00    +0.000 C 
ATOM     18  O   UNL     1      86.285  64.130  90.824  0.00  0.00    +0.000 OA
ATOM     19  C   UNL     1      86.763  64.121  89.549  0.00  0.00    +0.000 C 
ATOM     20  C   UNL     1      87.273  65.214  88.876  0.00  0.00    +0.000 C 
ATOM     21  C   UNL     1      87.733  65.049  87.554  0.00  0.00    +0.000 C 
ENDROOT
BRANCH   1  23
ATOM     22  C   UNL     1      89.784  72.705  83.827  0.00  0.00    +0.000 C 
ATOM     23  O   UNL     1      90.615  71.587  84.109  0.00  0.00    +0.000 OA
ENDBRANCH   1  23
BRANCH  10  24
ATOM     24  O   UNL     1      90.367  69.006  83.095  0.00  0.00    +0.000 OA
ATOM     25  C   UNL     1      89.369  69.341  82.133  0.00  0.00    +0.000 C 
ENDBRANCH  10  24
TORSDOF 2
ENDMDL
