MODEL 1
REMARK VINA RESULT:      -4.8      0.000      0.000
REMARK  Name = *****
REMARK  8 active torsions:
REMARK  status: ('A' for Active; 'I' for Inactive)
REMARK    1  A    between atoms: C_1  and  O_2
REMARK    2  A    between atoms: O_2  and  C_3
REMARK    3  A    between atoms: C_6  and  C_7
REMARK    4  A    between atoms: C_8  and  C_9
REMARK    5  A    between atoms: C_11  and  O_12
REMARK    6  A    between atoms: O_12  and  C_13
REMARK    7  A    between atoms: C_15  and  O_16
REMARK    8  A    between atoms: O_16  and  C_17
REMARK                            x       y       z     vdW  Elec       q    Type
REMARK                         _______ _______ _______ _____ _____    ______ ____
ROOT
ATOM      1  C   UNL     1     102.934 125.825  81.246  0.00  0.00    +0.000 C 
ATOM      2  C   UNL     1     102.211 125.817  82.377  0.00  0.00    +0.000 C 
ENDROOT
BRANCH   1   6
ATOM      3  C   UNL     1     106.052 122.982  80.461  0.00  0.00    +0.000 A 
ATOM      4  C   UNL     1     105.814 124.015  79.555  0.00  0.00    +0.000 A 
ATOM      5  C   UNL     1     104.794 124.944  79.797  0.00  0.00    +0.000 A 
ATOM      6  C   UNL     1     103.991 124.849  80.941  0.00  0.00    +0.000 A 
ATOM      7  C   UNL     1     104.247 123.821  81.853  0.00  0.00    +0.000 A 
ATOM      8  C   UNL     1     105.265 122.893  81.611  0.00  0.00    +0.000 A 
BRANCH   3  10
ATOM      9  C   UNL     1     108.329 122.447  80.043  0.00  0.00    +0.000 C 
ATOM     10  O   UNL     1     107.009 122.013  80.346  0.00  0.00    +0.000 OA
ENDBRANCH   3  10
ENDBRANCH   1   6
BRANCH   2  11
ATOM     11  C   UNL     1     101.165 126.803  82.689  0.00  0.00    +0.000 A 
ATOM     12  C   UNL     1      99.805 126.552  82.452  0.00  0.00    +0.000 A 
ATOM     13  C   UNL     1      98.840 127.502  82.791  0.00  0.00    +0.000 A 
ATOM     14  C   UNL     1      99.232 128.706  83.386  0.00  0.00    +0.000 A 
ATOM     15  C   UNL     1     100.577 128.964  83.646  0.00  0.00    +0.000 A 
ATOM     16  C   UNL     1     101.535 128.008  83.299  0.00  0.00    +0.000 A 
BRANCH  13  17
ATOM     17  O   UNL     1      97.489 127.376  82.604  0.00  0.00    +0.000 OA
ATOM     18  C   UNL     1      96.727 126.891  83.703  0.00  0.00    +0.000 C 
ENDBRANCH  13  17
BRANCH  15  19
ATOM     19  O   UNL     1     101.082 130.094  84.228  0.00  0.00    +0.000 OA
ATOM     20  C   UNL     1     102.477 130.106  84.506  0.00  0.00    +0.000 C 
ENDBRANCH  15  19
ENDBRANCH   2  11
TORSDOF 5
ENDMDL
