MODEL 1
REMARK VINA RESULT:      -5.4      0.000      0.000
REMARK  Name = *****
REMARK  5 active torsions:
REMARK  status: ('A' for Active; 'I' for Inactive)
REMARK    1  A    between atoms: C_1  and  O_2
REMARK    2  A    between atoms: O_2  and  C_3
REMARK    3  A    between atoms: C_6  and  C_7
REMARK    4  A    between atoms: C_12  and  O_13
REMARK    5  A    between atoms: C_18  and  O_19
REMARK                            x       y       z     vdW  Elec       q    Type
REMARK                         _______ _______ _______ _____ _____    ______ ____
ROOT
ATOM      1  C   UNL     1     102.673 126.687  81.755  0.00  0.00    +0.000 C 
ATOM      2  C   UNL     1     103.021 125.409  81.952  0.00  0.00    +0.000 C 
ATOM      3  C   UNL     1     104.046 124.851  81.083  0.00  0.00    +0.000 A 
ATOM      4  C   UNL     1     104.385 123.493  81.161  0.00  0.00    +0.000 A 
ATOM      5  C   UNL     1     105.386 122.969  80.339  0.00  0.00    +0.000 A 
ATOM      6  C   UNL     1     106.048 123.808  79.447  0.00  0.00    +0.000 A 
ATOM      7  C   UNL     1     105.724 125.158  79.364  0.00  0.00    +0.000 A 
ATOM      8  C   UNL     1     104.718 125.678  80.178  0.00  0.00    +0.000 A 
ATOM      9  O   UNL     1     104.478 127.019  80.059  0.00  0.00    +0.000 OA
ATOM     10  C   UNL     1     103.291 127.539  80.678  0.00  0.00    +0.000 C 
ENDROOT
BRANCH   1  14
ATOM     11  C   UNL     1      99.686 128.558  84.203  0.00  0.00    +0.000 A 
ATOM     12  C   UNL     1     101.023 128.943  84.286  0.00  0.00    +0.000 A 
ATOM     13  C   UNL     1     101.988 128.319  83.483  0.00  0.00    +0.000 A 
ATOM     14  C   UNL     1     101.628 127.304  82.587  0.00  0.00    +0.000 A 
ATOM     15  C   UNL     1     100.280 126.928  82.512  0.00  0.00    +0.000 A 
ATOM     16  C   UNL     1      99.321 127.547  83.311  0.00  0.00    +0.000 A 
BRANCH  11  18
ATOM     17  C   UNL     1      98.759 130.451  85.306  0.00  0.00    +0.000 C 
ATOM     18  O   UNL     1      98.652 129.084  84.927  0.00  0.00    +0.000 OA
ENDBRANCH  11  18
BRANCH  15  19
ATOM     19  O   UNL     1      99.829 125.941  81.676  0.00  0.00    +0.000 OA
ATOM     20  H   UNL     1      99.680 126.127  80.771  0.00  0.00    +0.000 HD
ENDBRANCH  15  19
ENDBRANCH   1  14
BRANCH   6  21
ATOM     21  O   UNL     1     107.033 123.339  78.631  0.00  0.00    +0.000 OA
ATOM     22  H   UNL     1     106.884 122.577  78.106  0.00  0.00    +0.000 HD
ENDBRANCH   6  21
TORSDOF 4
ENDMDL
