MODEL 1
REMARK VINA RESULT:      -4.2      0.000      0.000
REMARK  Name = *****
REMARK  18 active torsions:
REMARK  status: ('A' for Active; 'I' for Inactive)
REMARK    1  A    between atoms: C_1  and  O_2
REMARK    2  A    between atoms: O_2  and  C_3
REMARK    3  A    between atoms: C_5  and  C_6
REMARK    4  A    between atoms: C_7  and  C_8
REMARK    5  A    between atoms: C_10  and  C_11
REMARK    6  A    between atoms: C_11  and  C_12
REMARK    7  A    between atoms: C_12  and  C_13
REMARK    8  A    between atoms: C_13  and  O_14
REMARK    9  A    between atoms: O_14  and  C_15
REMARK   10  A    between atoms: C_15  and  C_17
REMARK   11  A    between atoms: C_19  and  O_20
REMARK   12  A    between atoms: O_20  and  C_21
REMARK   13  A    between atoms: C_22  and  O_23
REMARK   14  A    between atoms: O_23  and  C_24
REMARK   15  A    between atoms: C_24  and  C_26
REMARK   16  A    between atoms: C_29  and  O_30
REMARK   17  A    between atoms: O_30  and  C_31
REMARK   18  A    between atoms: C_31  and  C_33
REMARK                            x       y       z     vdW  Elec       q    Type
REMARK                         _______ _______ _______ _____ _____    ______ ____
ROOT
ATOM      1  C   UNL     1      89.609  69.876  86.244  0.00  0.00    +0.000 A 
ATOM      2  C   UNL     1      89.894  71.044  85.530  0.00  0.00    +0.000 A 
ATOM      3  C   UNL     1      90.193  71.008  84.156  0.00  0.00    +0.000 A 
ATOM      4  C   UNL     1      90.182  69.768  83.494  0.00  0.00    +0.000 A 
ATOM      5  C   UNL     1      89.900  68.584  84.184  0.00  0.00    +0.000 A 
ATOM      6  C   UNL     1      89.592  68.658  85.550  0.00  0.00    +0.000 A 
ENDROOT
BRANCH   1   8
ATOM      7  C   UNL     1      88.220  70.542  88.148  0.00  0.00    +0.000 C 
ATOM      8  C   UNL     1      89.345  69.976  87.684  0.00  0.00    +0.000 C 
BRANCH   7  11
ATOM      9  C   UNL     1      86.465  69.976  91.426  0.00  0.00    +0.000 A 
ATOM     10  C   UNL     1      86.846  69.869  90.087  0.00  0.00    +0.000 A 
ATOM     11  C   UNL     1      87.887  70.662  89.572  0.00  0.00    +0.000 A 
ATOM     12  C   UNL     1      88.524  71.591  90.407  0.00  0.00    +0.000 A 
ATOM     13  C   UNL     1      88.139  71.720  91.742  0.00  0.00    +0.000 A 
ATOM     14  C   UNL     1      87.124  70.906  92.240  0.00  0.00    +0.000 A 
BRANCH   9  16
ATOM     15  C   UNL     1      85.584  67.849  91.953  0.00  0.00    +0.000 C 
ATOM     16  O   UNL     1      85.444  69.265  92.002  0.00  0.00    +0.000 OA
ENDBRANCH   9  16
BRANCH  14  17
ATOM     17  O   UNL     1      86.724  71.094  93.566  0.00  0.00    +0.000 OA
BRANCH  17  18
ATOM     18  C   UNL     1      87.680  70.674  94.482  0.00  0.00    +0.000 C 
ATOM     19  O   UNL     1      88.657  71.299  94.876  0.00  0.00    +0.000 OA
ATOM     20  C   UNL     1      87.309  69.303  94.965  0.00  0.00    +0.000 C 
ENDBRANCH  17  18
ENDBRANCH  14  17
ENDBRANCH   7  11
ENDBRANCH   1   8
BRANCH   5  21
ATOM     21  O   UNL     1      89.886  67.330  83.631  0.00  0.00    +0.000 OA
ATOM     22  C   UNL     1      88.967  67.099  82.571  0.00  0.00    +0.000 C 
ENDBRANCH   5  21
BRANCH   3  23
ATOM     23  C   UNL     1      90.483  72.323  83.461  0.00  0.00    +0.000 C 
BRANCH  23  24
ATOM     24  C   UNL     1      89.333  73.330  83.390  0.00  0.00    +0.000 C 
BRANCH  24  25
ATOM     25  C   UNL     1      88.144  72.762  82.620  0.00  0.00    +0.000 C 
BRANCH  25  26
ATOM     26  O   UNL     1      86.977  72.751  83.458  0.00  0.00    +0.000 OA
BRANCH  26  27
ATOM     27  C   UNL     1      86.622  71.537  83.963  0.00  0.00    +0.000 C 
ATOM     28  O   UNL     1      86.724  70.467  83.381  0.00  0.00    +0.000 OA
ATOM     29  C   UNL     1      86.129  71.691  85.369  0.00  0.00    +0.000 C 
ENDBRANCH  26  27
ENDBRANCH  25  26
ENDBRANCH  24  25
ENDBRANCH  23  24
ENDBRANCH   3  23
BRANCH   6  30
ATOM     30  O   UNL     1      89.327  67.466  86.237  0.00  0.00    +0.000 OA
BRANCH  30  31
ATOM     31  C   UNL     1      87.967  67.230  86.378  0.00  0.00    +0.000 C 
ATOM     32  O   UNL     1      87.074  67.533  85.597  0.00  0.00    +0.000 OA
ATOM     33  C   UNL     1      87.737  66.530  87.684  0.00  0.00    +0.000 C 
ENDBRANCH  30  31
ENDBRANCH   6  30
TORSDOF 13
ENDMDL
