REMARK  Name = *****
REMARK  7 active torsions:
REMARK  status: ('A' for Active; 'I' for Inactive)
REMARK    1  A    between atoms: C_1  and  O_2
REMARK    2  A    between atoms: O_2  and  C_3
REMARK    3  A    between atoms: C_6  and  C_7
REMARK    4  A    between atoms: C_8  and  C_9
REMARK    5  A    between atoms: C_11  and  O_12
REMARK    6  A    between atoms: C_20  and  O_21
REMARK    7  A    between atoms: O_21  and  C_22
REMARK                            x       y       z     vdW  Elec       q    Type
REMARK                         _______ _______ _______ _____ _____    ______ ____
ROOT
ATOM      1  C   UNL     1       5.432   2.266   4.293  0.00  0.00    +0.000 C 
ATOM      2  C   UNL     1       5.091   2.153   5.587  0.00  0.00    +0.000 C 
ENDROOT
BRANCH   2   3
ATOM      3  C   UNL     1       5.896   2.688   6.696  0.00  0.00    +0.000 A 
ATOM      4  C   UNL     1       5.225   3.210   7.826  0.00  0.00    +0.000 A 
ATOM      5  C   UNL     1       5.946   3.707   8.915  0.00  0.00    +0.000 A 
ATOM      6  C   UNL     1       7.323   3.667   8.868  0.00  0.00    +0.000 A 
ATOM      7  O   UNL     1       8.185   4.099   9.828  0.00  0.00    +0.000 OA
ATOM      8  C   UNL     1       9.452   3.792   9.219  0.00  0.00    +0.000 C 
ATOM      9  O   UNL     1       9.331   3.182   7.917  0.00  0.00    +0.000 OA
ATOM     10  C   UNL     1       7.978   3.146   7.778  0.00  0.00    +0.000 A 
ATOM     11  C   UNL     1       7.299   2.646   6.685  0.00  0.00    +0.000 A 
BRANCH   5  12
ATOM     12  O   UNL     1       5.318   4.222  10.008  0.00  0.00    +0.000 OA
ATOM     13  H   UNL     1       4.382   4.250  10.042  0.00  0.00    +0.000 HD
ENDBRANCH   5  12
ENDBRANCH   2   3
BRANCH   1  17
ATOM     14  C   UNL     1       3.149   0.722   0.991  0.00  0.00    +0.000 A 
ATOM     15  C   UNL     1       2.503   1.323   2.079  0.00  0.00    +0.000 A 
ATOM     16  C   UNL     1       3.234   1.829   3.161  0.00  0.00    +0.000 A 
ATOM     17  C   UNL     1       4.627   1.729   3.188  0.00  0.00    +0.000 A 
ATOM     18  C   UNL     1       5.276   1.150   2.094  0.00  0.00    +0.000 A 
ATOM     19  C   UNL     1       4.553   0.664   0.994  0.00  0.00    +0.000 A 
BRANCH  14  21
ATOM     20  C   UNL     1       1.070   0.149  -0.042  0.00  0.00    +0.000 C 
ATOM     21  O   UNL     1       2.490   0.168  -0.073  0.00  0.00    +0.000 OA
ENDBRANCH  14  21
BRANCH  19  22
ATOM     22  O   UNL     1       5.348   0.108   0.021  0.00  0.00    +0.000 OA
ATOM     23  C   UNL     1       4.927   0.327  -1.321  0.00  0.00    +0.000 C 
ENDBRANCH  19  22
ENDBRANCH   1  17
TORSDOF 5
