MODEL 1
REMARK VINA RESULT:      -4.9      0.000      0.000
REMARK  Name = *****
REMARK  6 active torsions:
REMARK  status: ('A' for Active; 'I' for Inactive)
REMARK    1  A    between atoms: C_1  and  O_2
REMARK    2  A    between atoms: O_2  and  C_3
REMARK    3  A    between atoms: C_5  and  C_6
REMARK    4  A    between atoms: C_18  and  O_19
REMARK    5  A    between atoms: O_19  and  C_20
REMARK    6  A    between atoms: C_21  and  O_22
REMARK                            x       y       z     vdW  Elec       q    Type
REMARK                         _______ _______ _______ _____ _____    ______ ____
ROOT
ATOM      1  C   UNL     1     101.377 128.694  83.695  0.00  0.00    +0.000 A 
ATOM      2  C   UNL     1     102.287 127.661  83.460  0.00  0.00    +0.000 A 
ATOM      3  C   UNL     1     101.880 126.491  82.800  0.00  0.00    +0.000 A 
ATOM      4  C   UNL     1     100.558 126.348  82.362  0.00  0.00    +0.000 A 
ATOM      5  C   UNL     1      99.638 127.371  82.587  0.00  0.00    +0.000 A 
ATOM      6  C   UNL     1     100.060 128.533  83.250  0.00  0.00    +0.000 A 
ENDROOT
BRANCH   3   7
ATOM      7  C   UNL     1     102.847 125.409  82.592  0.00  0.00    +0.000 C 
ATOM      8  C   UNL     1     103.691 125.343  81.551  0.00  0.00    +0.000 C 
ATOM      9  C   UNL     1     103.829 126.341  80.425  0.00  0.00    +0.000 C 
ATOM     10  O   UNL     1     103.238 127.389  80.261  0.00  0.00    +0.000 OA
ATOM     11  N   UNL     1     104.804 125.806  79.596  0.00  0.00    +0.000 N 
ATOM     12  C   UNL     1     105.285 124.597  80.088  0.00  0.00    +0.000 A 
ATOM     13  C   UNL     1     106.255 123.801  79.516  0.00  0.00    +0.000 A 
ATOM     14  C   UNL     1     106.590 122.621  80.183  0.00  0.00    +0.000 A 
ATOM     15  C   UNL     1     105.957 122.272  81.390  0.00  0.00    +0.000 A 
ATOM     16  C   UNL     1     104.974 123.096  81.952  0.00  0.00    +0.000 A 
ATOM     17  C   UNL     1     104.646 124.263  81.286  0.00  0.00    +0.000 A 
ATOM     18  H   UNL     1     105.116 126.229  78.763  0.00  0.00    +0.000 HD
ENDBRANCH   3   7
BRANCH   1  20
ATOM     19  C   UNL     1     101.939 129.812  85.723  0.00  0.00    +0.000 C 
ATOM     20  O   UNL     1     101.669 129.872  84.329  0.00  0.00    +0.000 OA
ENDBRANCH   1  20
BRANCH   5  21
ATOM     21  O   UNL     1      98.315 127.362  82.217  0.00  0.00    +0.000 OA
ATOM     22  C   UNL     1      97.432 126.598  83.029  0.00  0.00    +0.000 C 
ENDBRANCH   5  21
BRANCH   6  23
ATOM     23  O   UNL     1      99.140 129.534  83.472  0.00  0.00    +0.000 OA
ATOM     24  H   UNL     1      98.303 129.501  83.054  0.00  0.00    +0.000 HD
ENDBRANCH   6  23
TORSDOF 4
ENDMDL
