MODEL 1
REMARK VINA RESULT:      -5.8      0.000      0.000
REMARK  Name = *****
REMARK  5 active torsions:
REMARK  status: ('A' for Active; 'I' for Inactive)
REMARK    1  A    between atoms: C_1  and  N_2
REMARK    2  A    between atoms: N_2  and  C_3
REMARK    3  A    between atoms: C_3  and  C_4
REMARK    4  A    between atoms: C_4  and  C_5
REMARK    5  A    between atoms: C_13  and  C_14
REMARK                            x       y       z     vdW  Elec       q    Type
REMARK                         _______ _______ _______ _____ _____    ______ ____
ROOT
ATOM      1  C   UNL     1     100.767 127.761  83.002  0.00  0.00    +0.000 A 
ATOM      2  C   UNL     1     100.147 128.869  83.617  0.00  0.00    +0.000 A 
ATOM      3  C   UNL     1     100.940 129.861  84.150  0.00  0.00    +0.000 A 
ATOM      4  O   UNL     1     100.497 130.984  84.774  0.00  0.00    +0.000 OA
ATOM      5  C   UNL     1     101.750 131.607  85.131  0.00  0.00    +0.000 C 
ATOM      6  O   UNL     1     102.905 130.867  84.681  0.00  0.00    +0.000 OA
ATOM      7  C   UNL     1     102.309 129.793  84.098  0.00  0.00    +0.000 A 
ATOM      8  C   UNL     1     102.960 128.732  83.507  0.00  0.00    +0.000 A 
ATOM      9  C   UNL     1     102.189 127.699  82.944  0.00  0.00    +0.000 A 
ENDROOT
BRANCH   9  10
ATOM     10  C   UNL     1     102.912 126.597  82.311  0.00  0.00    +0.000 C 
ATOM     11  C   UNL     1     103.514 126.623  81.103  0.00  0.00    +0.000 C 
ATOM     12  C   UNL     1     104.186 125.313  80.831  0.00  0.00    +0.000 A 
ATOM     13  C   UNL     1     104.897 124.970  79.691  0.00  0.00    +0.000 A 
ATOM     14  C   UNL     1     105.430 123.698  79.685  0.00  0.00    +0.000 A 
ATOM     15  C   UNL     1     105.188 122.936  80.815  0.00  0.00    +0.000 A 
ATOM     16  O   UNL     1     105.676 121.653  80.922  0.00  0.00    +0.000 OA
ATOM     17  C   UNL     1     105.194 121.268  82.236  0.00  0.00    +0.000 C 
ATOM     18  O   UNL     1     104.425 122.299  82.895  0.00  0.00    +0.000 OA
ATOM     19  C   UNL     1     104.482 123.275  81.948  0.00  0.00    +0.000 A 
ATOM     20  C   UNL     1     103.938 124.539  81.976  0.00  0.00    +0.000 A 
ATOM     21  C   UNL     1     103.166 125.247  82.949  0.00  0.00    +0.000 C 
ATOM     22  O   UNL     1     102.754 124.946  84.061  0.00  0.00    +0.000 OA
ENDBRANCH   9  10
BRANCH   1  23
ATOM     23  C   UNL     1      99.870 126.674  82.442  0.00  0.00    +0.000 C 
BRANCH  23  24
ATOM     24  C   UNL     1      98.381 127.027  82.585  0.00  0.00    +0.000 C 
BRANCH  24  26
ATOM     25  C   UNL     1      96.637 125.865  83.773  0.00  0.00    +0.000 C 
ATOM     26  N   UNL     1      97.570 125.810  82.656  0.00  0.00    +0.000 N 
ATOM     27  H   UNL     1      97.044 125.708  81.787  0.00  0.00    +0.000 HD
ATOM     28  H   UNL     1      98.192 125.014  82.794  0.00  0.00    +0.000 HD
ENDBRANCH  24  26
ENDBRANCH  23  24
ENDBRANCH   1  23
TORSDOF 4
ENDMDL
