REMARK  Name = *****
REMARK  11 active torsions:
REMARK  status: ('A' for Active; 'I' for Inactive)
REMARK    1  A    between atoms: C_1  and  O_2
REMARK    2  A    between atoms: O_2  and  C_3
REMARK    3  A    between atoms: C_6  and  C_7
REMARK    4  A    between atoms: C_8  and  C_9
REMARK    5  A    between atoms: C_11  and  O_12
REMARK    6  A    between atoms: O_12  and  C_13
REMARK    7  A    between atoms: C_14  and  O_15
REMARK    8  A    between atoms: O_15  and  C_16
REMARK    9  A    between atoms: C_17  and  O_18
REMARK   10  A    between atoms: O_18  and  C_19
REMARK   11  A    between atoms: C_22  and  O_23
REMARK                            x       y       z     vdW  Elec       q    Type
REMARK                         _______ _______ _______ _____ _____    ______ ____
ROOT
ATOM      1  C   UNL     1       5.370   4.717  -0.523  0.00  0.00    +0.000 C 
ATOM      2  C   UNL     1       4.878   5.950  -0.315  0.00  0.00    +0.000 C 
ENDROOT
BRANCH   1   6
ATOM      3  C   UNL     1       3.101   1.081  -0.242  0.00  0.00    +0.000 A 
ATOM      4  C   UNL     1       2.523   2.223  -0.799  0.00  0.00    +0.000 A 
ATOM      5  C   UNL     1       3.253   3.416  -0.888  0.00  0.00    +0.000 A 
ATOM      6  C   UNL     1       4.568   3.491  -0.413  0.00  0.00    +0.000 A 
ATOM      7  C   UNL     1       5.155   2.343   0.131  0.00  0.00    +0.000 A 
ATOM      8  C   UNL     1       4.423   1.155   0.218  0.00  0.00    +0.000 A 
BRANCH   3  10
ATOM      9  C   UNL     1       1.134  -0.231  -0.553  0.00  0.00    +0.000 C 
ATOM     10  O   UNL     1       2.479  -0.132  -0.108  0.00  0.00    +0.000 OA
ENDBRANCH   3  10
BRANCH   8  11
ATOM     11  O   UNL     1       5.004   0.039   0.761  0.00  0.00    +0.000 OA
ATOM     12  H   UNL     1       4.517  -0.760   0.823  0.00  0.00    +0.000 HD
ENDBRANCH   8  11
ENDBRANCH   1   6
BRANCH   2  13
ATOM     13  C   UNL     1       5.687   7.174  -0.413  0.00  0.00    +0.000 A 
ATOM     14  C   UNL     1       6.606   7.369  -1.456  0.00  0.00    +0.000 A 
ATOM     15  C   UNL     1       7.343   8.552  -1.545  0.00  0.00    +0.000 A 
ATOM     16  C   UNL     1       7.152   9.544  -0.568  0.00  0.00    +0.000 A 
ATOM     17  C   UNL     1       6.209   9.384   0.461  0.00  0.00    +0.000 A 
ATOM     18  C   UNL     1       5.485   8.192   0.532  0.00  0.00    +0.000 A 
BRANCH  15  19
ATOM     19  O   UNL     1       8.264   8.831  -2.521  0.00  0.00    +0.000 OA
ATOM     20  C   UNL     1       8.407   7.891  -3.577  0.00  0.00    +0.000 C 
ENDBRANCH  15  19
BRANCH  16  21
ATOM     21  O   UNL     1       7.837  10.736  -0.671  0.00  0.00    +0.000 OA
ATOM     22  C   UNL     1       9.074  10.642   0.032  0.00  0.00    +0.000 C 
ENDBRANCH  16  21
BRANCH  17  23
ATOM     23  O   UNL     1       6.088  10.428   1.342  0.00  0.00    +0.000 OA
ATOM     24  C   UNL     1       5.032  10.366   2.290  0.00  0.00    +0.000 C 
ENDBRANCH  17  23
ENDBRANCH   2  13
TORSDOF 7
