MODEL 1
REMARK VINA RESULT:      -4.9      0.000      0.000
REMARK  Name = *****
REMARK  6 active torsions:
REMARK  status: ('A' for Active; 'I' for Inactive)
REMARK    1  A    between atoms: C_1  and  O_2
REMARK    2  A    between atoms: O_2  and  C_3
REMARK    3  A    between atoms: C_6  and  C_7
REMARK    4  A    between atoms: C_8  and  C_9
REMARK    5  A    between atoms: C_13  and  O_14
REMARK    6  A    between atoms: O_14  and  C_15
REMARK                            x       y       z     vdW  Elec       q    Type
REMARK                         _______ _______ _______ _____ _____    ______ ____
ROOT
ATOM      1  C   UNL     1     102.880 125.965  81.403  0.00  0.00    +0.000 C 
ATOM      2  C   UNL     1     102.086 125.916  82.486  0.00  0.00    +0.000 C 
ENDROOT
BRANCH   1   6
ATOM      3  C   UNL     1     105.839 122.978  80.550  0.00  0.00    +0.000 A 
ATOM      4  C   UNL     1     105.621 124.014  79.643  0.00  0.00    +0.000 A 
ATOM      5  C   UNL     1     104.652 124.991  79.908  0.00  0.00    +0.000 A 
ATOM      6  C   UNL     1     103.882 124.941  81.077  0.00  0.00    +0.000 A 
ATOM      7  C   UNL     1     104.121 123.908  81.990  0.00  0.00    +0.000 A 
ATOM      8  C   UNL     1     105.087 122.934  81.725  0.00  0.00    +0.000 A 
BRANCH   3  10
ATOM      9  C   UNL     1     108.089 122.342  80.120  0.00  0.00    +0.000 C 
ATOM     10  O   UNL     1     106.749 121.966  80.414  0.00  0.00    +0.000 OA
ENDBRANCH   3  10
ENDBRANCH   1   6
BRANCH   2  11
ATOM     11  C   UNL     1     101.095 126.946  82.826  0.00  0.00    +0.000 A 
ATOM     12  C   UNL     1     101.459 128.210  83.306  0.00  0.00    +0.000 A 
ATOM     13  C   UNL     1     100.483 129.169  83.586  0.00  0.00    +0.000 A 
ATOM     14  C   UNL     1      99.132 128.882  83.375  0.00  0.00    +0.000 A 
ATOM     15  C   UNL     1      98.753 127.634  82.881  0.00  0.00    +0.000 A 
ATOM     16  C   UNL     1      99.736 126.678  82.605  0.00  0.00    +0.000 A 
BRANCH  15  17
ATOM     17  O   UNL     1      97.473 127.227  82.622  0.00  0.00    +0.000 OA
ATOM     18  C   UNL     1      96.923 126.243  83.488  0.00  0.00    +0.000 C 
ENDBRANCH  15  17
ENDBRANCH   2  11
TORSDOF 4
ENDMDL
