REMARK  Name = *****
REMARK  7 active torsions:
REMARK  status: ('A' for Active; 'I' for Inactive)
REMARK    1  A    between atoms: C_1  and  O_2
REMARK    2  A    between atoms: O_2  and  C_3
REMARK    3  A    between atoms: C_4  and  C_5
REMARK    4  A    between atoms: C_6  and  O_7
REMARK    5  A    between atoms: C_14  and  O_15
REMARK    6  A    between atoms: C_20  and  O_21
REMARK    7  A    between atoms: O_21  and  C_22
REMARK                            x       y       z     vdW  Elec       q    Type
REMARK                         _______ _______ _______ _____ _____    ______ ____
ROOT
ATOM      1  C   UNL     1       2.724  -0.987   0.817  0.00  0.00    +0.000 A 
ATOM      2  C   UNL     1       2.590  -2.358   1.094  0.00  0.00    +0.000 A 
ATOM      3  C   UNL     1       1.636  -3.217   0.313  0.00  0.00    +0.000 C 
ATOM      4  C   UNL     1       3.385  -2.894   2.118  0.00  0.00    +0.000 A 
ATOM      5  C   UNL     1       4.256  -2.082   2.867  0.00  0.00    +0.000 A 
ATOM      6  O   UNL     1       5.031  -2.708   3.823  0.00  0.00    +0.000 OA
ATOM      7  C   UNL     1       4.811  -2.282   5.114  0.00  0.00    +0.000 A 
ATOM      8  C   UNL     1       4.348  -3.249   6.013  0.00  0.00    +0.000 A 
ATOM      9  C   UNL     1       4.165  -2.922   7.354  0.00  0.00    +0.000 A 
ATOM     10  C   UNL     1       4.465  -1.636   7.801  0.00  0.00    +0.000 A 
ATOM     11  C   UNL     1       4.946  -0.681   6.900  0.00  0.00    +0.000 A 
ATOM     12  C   UNL     1       5.119  -0.982   5.539  0.00  0.00    +0.000 A 
ATOM     13  C   UNL     1       5.665   0.023   4.614  0.00  0.00    +0.000 C 
ATOM     14  C   UNL     1       5.357   0.136   3.313  0.00  0.00    +0.000 C 
ATOM     15  C   UNL     1       4.406  -0.717   2.577  0.00  0.00    +0.000 A 
ATOM     16  C   UNL     1       3.660  -0.190   1.508  0.00  0.00    +0.000 A 
ENDROOT
BRANCH   1  18
ATOM     17  C   UNL     1       0.915   0.366   0.361  0.00  0.00    +0.000 C 
ATOM     18  O   UNL     1       1.954  -0.449  -0.188  0.00  0.00    +0.000 OA
ENDBRANCH   1  18
BRANCH   4  19
ATOM     19  O   UNL     1       3.336  -4.228   2.440  0.00  0.00    +0.000 OA
ATOM     20  H   UNL     1       2.769  -4.804   1.966  0.00  0.00    +0.000 HD
ENDBRANCH   4  19
BRANCH  11  21
ATOM     21  O   UNL     1       5.252   0.576   7.357  0.00  0.00    +0.000 OA
ATOM     22  H   UNL     1       5.139   0.785   8.263  0.00  0.00    +0.000 HD
ENDBRANCH  11  21
BRANCH  16  23
ATOM     23  O   UNL     1       3.817   1.140   1.184  0.00  0.00    +0.000 OA
ATOM     24  C   UNL     1       4.523   1.277  -0.051  0.00  0.00    +0.000 C 
ENDBRANCH  16  23
TORSDOF 4
