MODEL 1
REMARK VINA RESULT:      -4.7      0.000      0.000
REMARK  Name = *****
REMARK  10 active torsions:
REMARK  status: ('A' for Active; 'I' for Inactive)
REMARK    1  A    between atoms: C_1  and  O_2
REMARK    2  A    between atoms: O_2  and  C_3
REMARK    3  A    between atoms: C_6  and  C_11
REMARK    4  A    between atoms: C_8  and  O_9
REMARK    5  A    between atoms: O_9  and  C_10
REMARK    6  A    between atoms: C_12  and  C_20
REMARK    7  A    between atoms: C_23  and  O_24
REMARK    8  A    between atoms: O_24  and  C_25
REMARK    9  A    between atoms: C_26  and  O_27
REMARK   10  A    between atoms: O_27  and  C_28
REMARK                            x       y       z     vdW  Elec       q    Type
REMARK                         _______ _______ _______ _____ _____    ______ ____
ROOT
ATOM      1  C   UNL     1      88.004  69.075  84.988  0.00  0.00    +0.000 C 
ATOM      2  C   UNL     1      87.611  68.761  86.242  0.00  0.00    +0.000 C 
ATOM      3  C   UNL     1      87.243  67.325  86.557  0.00  0.00    +0.000 C 
ATOM      4  N   UNL     1      88.147  66.335  85.964  0.00  0.00    +0.000 N 
ATOM      5  C   UNL     1      89.369  66.157  86.758  0.00  0.00    +0.000 C 
ATOM      6  C   UNL     1      90.371  65.623  85.757  0.00  0.00    +0.000 C 
ATOM      7  C   UNL     1      90.070  66.469  84.537  0.00  0.00    +0.000 C 
ATOM      8  C   UNL     1      88.543  66.624  84.566  0.00  0.00    +0.000 C 
ATOM      9  C   UNL     1      88.088  67.969  83.962  0.00  0.00    +0.000 C 
ATOM     10  H   UNL     1      87.596  65.477  85.962  0.00  0.00    +0.000 HD
ENDROOT
BRANCH   1  14
ATOM     11  C   UNL     1      88.989  73.041  83.661  0.00  0.00    +0.000 A 
ATOM     12  C   UNL     1      89.975  72.195  84.184  0.00  0.00    +0.000 A 
ATOM     13  C   UNL     1      89.654  70.902  84.611  0.00  0.00    +0.000 A 
ATOM     14  C   UNL     1      88.341  70.433  84.532  0.00  0.00    +0.000 A 
ATOM     15  C   UNL     1      87.355  71.270  84.006  0.00  0.00    +0.000 A 
ATOM     16  C   UNL     1      87.675  72.554  83.545  0.00  0.00    +0.000 A 
BRANCH  11  18
ATOM     17  C   UNL     1      89.725  74.535  81.950  0.00  0.00    +0.000 C 
ATOM     18  O   UNL     1      89.223  74.330  83.263  0.00  0.00    +0.000 OA
ENDBRANCH  11  18
BRANCH  16  19
ATOM     19  O   UNL     1      86.601  73.256  83.055  0.00  0.00    +0.000 OA
ATOM     20  C   UNL     1      85.331  72.769  83.477  0.00  0.00    +0.000 C 
ENDBRANCH  16  19
ENDBRANCH   1  14
BRANCH   2  21
ATOM     21  C   UNL     1      87.486  69.731  87.343  0.00  0.00    +0.000 A 
ATOM     22  C   UNL     1      88.535  69.925  88.245  0.00  0.00    +0.000 A 
ATOM     23  C   UNL     1      88.411  70.839  89.298  0.00  0.00    +0.000 A 
ATOM     24  C   UNL     1      87.236  71.581  89.465  0.00  0.00    +0.000 A 
ATOM     25  C   UNL     1      86.194  71.412  88.536  0.00  0.00    +0.000 A 
ATOM     26  C   UNL     1      86.312  70.472  87.504  0.00  0.00    +0.000 A 
BRANCH  24  27
ATOM     27  O   UNL     1      87.028  72.459  90.495  0.00  0.00    +0.000 OA
ATOM     28  C   UNL     1      88.173  72.999  91.144  0.00  0.00    +0.000 C 
ENDBRANCH  24  27
BRANCH  25  29
ATOM     29  O   UNL     1      84.983  72.060  88.566  0.00  0.00    +0.000 OA
ATOM     30  C   UNL     1      84.471  72.420  87.286  0.00  0.00    +0.000 C 
ENDBRANCH  25  29
ENDBRANCH   2  21
TORSDOF 6
ENDMDL
