MODEL 1
REMARK VINA RESULT:      -5.3      0.000      0.000
REMARK  Name = *****
REMARK  7 active torsions:
REMARK  status: ('A' for Active; 'I' for Inactive)
REMARK    1  A    between atoms: C_1  and  O_2
REMARK    2  A    between atoms: O_2  and  C_3
REMARK    3  A    between atoms: C_6  and  C_9
REMARK    4  A    between atoms: C_10  and  C_18
REMARK    5  A    between atoms: C_21  and  O_22
REMARK    6  A    between atoms: C_23  and  O_24
REMARK    7  A    between atoms: O_24  and  C_25
REMARK                            x       y       z     vdW  Elec       q    Type
REMARK                         _______ _______ _______ _____ _____    ______ ____
ROOT
ATOM      1  C   UNL     1      87.472  70.695  85.706  0.00  0.00    +0.000 C 
ATOM      2  C   UNL     1      87.844  69.574  85.048  0.00  0.00    +0.000 C 
ATOM      3  C   UNL     1      87.869  69.573  83.535  0.00  0.00    +0.000 C 
ATOM      4  N   UNL     1      88.349  70.821  82.933  0.00  0.00    +0.000 N 
ATOM      5  C   UNL     1      89.815  70.884  82.879  0.00  0.00    +0.000 C 
ATOM      6  C   UNL     1      90.107  72.368  82.819  0.00  0.00    +0.000 C 
ATOM      7  C   UNL     1      89.106  72.919  83.814  0.00  0.00    +0.000 C 
ATOM      8  C   UNL     1      87.858  72.052  83.593  0.00  0.00    +0.000 C 
ATOM      9  C   UNL     1      87.035  71.888  84.887  0.00  0.00    +0.000 C 
ATOM     10  H   UNL     1      87.958  70.794  81.992  0.00  0.00    +0.000 HD
ENDROOT
BRANCH   1  14
ATOM     11  C   UNL     1      87.299  71.101  89.973  0.00  0.00    +0.000 A 
ATOM     12  C   UNL     1      86.153  71.297  89.203  0.00  0.00    +0.000 A 
ATOM     13  C   UNL     1      86.211  71.162  87.811  0.00  0.00    +0.000 A 
ATOM     14  C   UNL     1      87.413  70.836  87.170  0.00  0.00    +0.000 A 
ATOM     15  C   UNL     1      88.557  70.631  87.949  0.00  0.00    +0.000 A 
ATOM     16  C   UNL     1      88.497  70.767  89.339  0.00  0.00    +0.000 A 
BRANCH  11  18
ATOM     17  C   UNL     1      88.507  71.892  91.859  0.00  0.00    +0.000 C 
ATOM     18  O   UNL     1      87.380  71.203  91.335  0.00  0.00    +0.000 OA
ENDBRANCH  11  18
ENDBRANCH   1  14
BRANCH   2  19
ATOM     19  C   UNL     1      88.210  68.313  85.715  0.00  0.00    +0.000 A 
ATOM     20  C   UNL     1      87.260  67.609  86.461  0.00  0.00    +0.000 A 
ATOM     21  C   UNL     1      87.610  66.422  87.103  0.00  0.00    +0.000 A 
ATOM     22  C   UNL     1      88.917  65.930  87.013  0.00  0.00    +0.000 A 
ATOM     23  C   UNL     1      89.885  66.627  86.282  0.00  0.00    +0.000 A 
ATOM     24  C   UNL     1      89.513  67.810  85.625  0.00  0.00    +0.000 A 
BRANCH  22  25
ATOM     25  O   UNL     1      89.209  64.754  87.645  0.00  0.00    +0.000 OA
ATOM     26  H   UNL     1      88.758  63.968  87.406  0.00  0.00    +0.000 HD
ENDBRANCH  22  25
BRANCH  23  27
ATOM     27  O   UNL     1      91.203  66.305  86.093  0.00  0.00    +0.000 OA
ATOM     28  C   UNL     1      91.506  65.276  85.163  0.00  0.00    +0.000 C 
ENDBRANCH  23  27
ENDBRANCH   2  19
TORSDOF 5
ENDMDL
