MODEL 1
REMARK VINA RESULT:      -4.7      0.000      0.000
REMARK  Name = *****
REMARK  12 active torsions:
REMARK  status: ('A' for Active; 'I' for Inactive)
REMARK    1  A    between atoms: C_1  and  O_2
REMARK    2  A    between atoms: O_2  and  C_3
REMARK    3  A    between atoms: C_5  and  C_6
REMARK    4  A    between atoms: C_7  and  C_8
REMARK    5  A    between atoms: C_11  and  O_12
REMARK    6  A    between atoms: O_12  and  C_13
REMARK    7  A    between atoms: C_13  and  C_15
REMARK    8  A    between atoms: C_16  and  O_17
REMARK    9  A    between atoms: O_17  and  C_18
REMARK   10  A    between atoms: C_22  and  O_23
REMARK   11  A    between atoms: O_23  and  C_24
REMARK   12  A    between atoms: C_24  and  C_26
REMARK                            x       y       z     vdW  Elec       q    Type
REMARK                         _______ _______ _______ _____ _____    ______ ____
ROOT
ATOM      1  C   UNL     1      85.458  61.995  89.500  0.00  0.00    +0.000 C 
ATOM      2  C   UNL     1      86.540  61.992  88.705  0.00  0.00    +0.000 C 
ENDROOT
BRANCH   1   5
ATOM      3  C   UNL     1      85.485  58.634  91.201  0.00  0.00    +0.000 A 
ATOM      4  C   UNL     1      85.901  59.795  90.543  0.00  0.00    +0.000 A 
ATOM      5  C   UNL     1      84.979  60.806  90.218  0.00  0.00    +0.000 A 
ATOM      6  C   UNL     1      83.624  60.631  90.528  0.00  0.00    +0.000 A 
ATOM      7  C   UNL     1      83.192  59.476  91.178  0.00  0.00    +0.000 A 
ATOM      8  C   UNL     1      84.128  58.501  91.521  0.00  0.00    +0.000 A 
BRANCH   3  10
ATOM      9  C   UNL     1      86.798  56.782  90.490  0.00  0.00    +0.000 C 
ATOM     10  O   UNL     1      86.293  57.584  91.550  0.00  0.00    +0.000 OA
ENDBRANCH   3  10
BRANCH   8  11
ATOM     11  O   UNL     1      83.665  57.334  92.136  0.00  0.00    +0.000 OA
BRANCH  11  12
ATOM     12  C   UNL     1      82.986  56.505  91.253  0.00  0.00    +0.000 C 
ATOM     13  O   UNL     1      83.300  56.228  90.103  0.00  0.00    +0.000 OA
ATOM     14  C   UNL     1      81.788  55.938  91.956  0.00  0.00    +0.000 C 
ENDBRANCH  11  12
ENDBRANCH   8  11
ENDBRANCH   1   5
BRANCH   2  15
ATOM     15  C   UNL     1      87.001  63.176  87.968  0.00  0.00    +0.000 A 
ATOM     16  C   UNL     1      87.000  64.456  88.546  0.00  0.00    +0.000 A 
ATOM     17  C   UNL     1      87.453  65.565  87.826  0.00  0.00    +0.000 A 
ATOM     18  C   UNL     1      87.909  65.388  86.522  0.00  0.00    +0.000 A 
ATOM     19  C   UNL     1      87.974  64.115  85.957  0.00  0.00    +0.000 A 
ATOM     20  C   UNL     1      87.502  63.012  86.668  0.00  0.00    +0.000 A 
BRANCH  19  21
ATOM     21  O   UNL     1      88.431  63.933  84.678  0.00  0.00    +0.000 OA
ATOM     22  C   UNL     1      89.191  62.725  84.600  0.00  0.00    +0.000 C 
ENDBRANCH  19  21
BRANCH  18  23
ATOM     23  O   UNL     1      88.375  66.488  85.804  0.00  0.00    +0.000 OA
BRANCH  23  24
ATOM     24  C   UNL     1      89.551  67.002  86.335  0.00  0.00    +0.000 C 
ATOM     25  O   UNL     1      90.623  66.426  86.463  0.00  0.00    +0.000 OA
ATOM     26  C   UNL     1      89.322  68.438  86.704  0.00  0.00    +0.000 C 
ENDBRANCH  23  24
ENDBRANCH  18  23
ENDBRANCH   2  15
TORSDOF 8
ENDMDL
