MODEL 1
REMARK VINA RESULT:      -5.2      0.000      0.000
REMARK  Name = *****
REMARK  10 active torsions:
REMARK  status: ('A' for Active; 'I' for Inactive)
REMARK    1  A    between atoms: C_1  and  O_2
REMARK    2  A    between atoms: O_2  and  C_3
REMARK    3  A    between atoms: C_4  and  C_5
REMARK    4  A    between atoms: C_5  and  C_6
REMARK    5  A    between atoms: C_7  and  C_8
REMARK    6  A    between atoms: C_7  and  C_9
REMARK    7  A    between atoms: C_10  and  O_11
REMARK    8  A    between atoms: C_16  and  C_19
REMARK    9  A    between atoms: C_22  and  O_23
REMARK   10  A    between atoms: C_25  and  O_26
REMARK                            x       y       z     vdW  Elec       q    Type
REMARK                         _______ _______ _______ _____ _____    ______ ____
ROOT
ATOM      1  C   UNL     1     103.574 124.816  82.441  0.00  0.00    +0.000 A 
ATOM      2  C   UNL     1     103.167 125.983  81.759  0.00  0.00    +0.000 A 
ATOM      3  C   UNL     1     103.619 126.156  80.441  0.00  0.00    +0.000 A 
ATOM      4  C   UNL     1     104.457 125.227  79.829  0.00  0.00    +0.000 A 
ATOM      5  C   UNL     1     104.836 124.079  80.516  0.00  0.00    +0.000 A 
ATOM      6  O   UNL     1     105.614 123.183  79.828  0.00  0.00    +0.000 OA
ATOM      7  C   UNL     1     106.382 122.289  80.657  0.00  0.00    +0.000 C 
ATOM      8  C   UNL     1     105.646 121.793  81.877  0.00  0.00    +0.000 C 
ATOM      9  C   UNL     1     104.689 122.552  82.436  0.00  0.00    +0.000 C 
ATOM     10  C   UNL     1     104.374 123.840  81.815  0.00  0.00    +0.000 A 
ENDROOT
BRANCH   8  11
ATOM     11  C   UNL     1     106.017 120.479  82.445  0.00  0.00    +0.000 A 
ATOM     12  C   UNL     1     105.383 119.317  81.968  0.00  0.00    +0.000 A 
ATOM     13  C   UNL     1     105.717 118.052  82.464  0.00  0.00    +0.000 A 
ATOM     14  C   UNL     1     106.697 117.943  83.443  0.00  0.00    +0.000 A 
ATOM     15  C   UNL     1     107.345 119.070  83.931  0.00  0.00    +0.000 A 
ATOM     16  C   UNL     1     107.007 120.329  83.431  0.00  0.00    +0.000 A 
BRANCH  14  17
ATOM     17  O   UNL     1     107.056 116.732  83.955  0.00  0.00    +0.000 OA
ATOM     18  H   UNL     1     106.984 116.572  84.875  0.00  0.00    +0.000 HD
ENDBRANCH  14  17
BRANCH  16  19
ATOM     19  O   UNL     1     107.644 121.435  83.929  0.00  0.00    +0.000 OA
ATOM     20  H   UNL     1     108.561 121.401  84.121  0.00  0.00    +0.000 HD
ENDBRANCH  16  19
ENDBRANCH   8  11
BRANCH   1  22
ATOM     21  C   UNL     1     104.062 125.112  84.672  0.00  0.00    +0.000 C 
ATOM     22  O   UNL     1     103.117 124.606  83.724  0.00  0.00    +0.000 OA
ENDBRANCH   1  22
BRANCH   3  23
ATOM     23  O   UNL     1     103.262 127.233  79.676  0.00  0.00    +0.000 OA
ATOM     24  H   UNL     1     102.653 127.862  80.008  0.00  0.00    +0.000 HD
ENDBRANCH   3  23
BRANCH   2  25
ATOM     25  C   UNL     1     102.269 127.005  82.425  0.00  0.00    +0.000 C 
BRANCH  25  26
ATOM     26  C   UNL     1     100.815 126.616  82.361  0.00  0.00    +0.000 C 
ATOM     27  C   UNL     1      99.742 127.304  82.798  0.00  0.00    +0.000 C 
ATOM     28  C   UNL     1      99.776 128.644  83.482  0.00  0.00    +0.000 C 
ATOM     29  C   UNL     1      98.354 126.736  82.633  0.00  0.00    +0.000 C 
ENDBRANCH  25  26
ENDBRANCH   2  25
TORSDOF 7
ENDMDL
