REMARK  Name = *****
REMARK  8 active torsions:
REMARK  status: ('A' for Active; 'I' for Inactive)
REMARK    1  A    between atoms: C_1  and  O_2
REMARK    2  A    between atoms: O_2  and  C_3
REMARK    3  A    between atoms: C_11  and  O_12
REMARK    4  A    between atoms: O_12  and  C_13
REMARK    5  A    between atoms: C_14  and  O_15
REMARK    6  A    between atoms: O_15  and  C_16
REMARK    7  A    between atoms: C_24  and  O_25
REMARK    8  A    between atoms: O_25  and  C_26
REMARK                            x       y       z     vdW  Elec       q    Type
REMARK                         _______ _______ _______ _____ _____    ______ ____
ROOT
ATOM      1  C   UNL     1       2.172  -0.836   0.890  0.00  0.00    +0.000 A 
ATOM      2  C   UNL     1       2.678  -2.051   1.361  0.00  0.00    +0.000 A 
ATOM      3  C   UNL     1       2.243  -2.589   2.587  0.00  0.00    +0.000 A 
ATOM      4  C   UNL     1       2.817  -3.894   3.082  0.00  0.00    +0.000 C 
ATOM      5  C   UNL     1       2.916  -3.879   4.607  0.00  0.00    +0.000 C 
ATOM      6  N   UNL     1       1.615  -3.549   5.194  0.00  0.00    +0.000 N 
ATOM      7  C   UNL     1       1.407  -4.054   6.560  0.00  0.00    +0.000 C 
ATOM      8  C   UNL     1       0.040  -3.745   7.118  0.00  0.00    +0.000 A 
ATOM      9  C   UNL     1      -0.375  -4.313   8.339  0.00  0.00    +0.000 A 
ATOM     10  C   UNL     1      -1.659  -4.052   8.856  0.00  0.00    +0.000 A 
ATOM     11  C   UNL     1      -2.491  -3.161   8.174  0.00  0.00    +0.000 A 
ATOM     12  C   UNL     1      -2.066  -2.558   6.986  0.00  0.00    +0.000 A 
ATOM     13  C   UNL     1      -0.807  -2.849   6.452  0.00  0.00    +0.000 A 
ATOM     14  C   UNL     1      -0.369  -2.212   5.207  0.00  0.00    +0.000 C 
ATOM     15  C   UNL     1       0.803  -2.553   4.640  0.00  0.00    +0.000 C 
ATOM     16  C   UNL     1       1.258  -1.936   3.354  0.00  0.00    +0.000 A 
ATOM     17  C   UNL     1       0.772  -0.710   2.879  0.00  0.00    +0.000 A 
ATOM     18  C   UNL     1       1.196  -0.179   1.652  0.00  0.00    +0.000 A 
ENDROOT
BRANCH   1  20
ATOM     19  C   UNL     1       3.690  -0.800  -0.956  0.00  0.00    +0.000 C 
ATOM     20  O   UNL     1       2.587  -0.229  -0.265  0.00  0.00    +0.000 OA
ENDBRANCH   1  20
BRANCH   9  21
ATOM     21  O   UNL     1       0.517  -5.174   8.938  0.00  0.00    +0.000 OA
ATOM     22  C   UNL     1       0.792  -4.846  10.300  0.00  0.00    +0.000 C 
ENDBRANCH   9  21
BRANCH  10  23
ATOM     23  O   UNL     1      -2.013  -4.707  10.006  0.00  0.00    +0.000 OA
ATOM     24  C   UNL     1      -3.356  -4.574  10.454  0.00  0.00    +0.000 C 
ENDBRANCH  10  23
BRANCH  18  25
ATOM     25  O   UNL     1       0.624   1.031   1.338  0.00  0.00    +0.000 OA
ATOM     26  C   UNL     1       0.173   1.136  -0.010  0.00  0.00    +0.000 C 
ENDBRANCH  18  25
TORSDOF 4
