MODEL 1
REMARK VINA RESULT:      -5.0      0.000      0.000
REMARK  Name = *****
REMARK  8 active torsions:
REMARK  status: ('A' for Active; 'I' for Inactive)
REMARK    1  A    between atoms: C_1  and  O_2
REMARK    2  A    between atoms: O_2  and  C_3
REMARK    3  A    between atoms: C_6  and  C_9
REMARK    4  A    between atoms: C_10  and  C_18
REMARK    5  A    between atoms: C_21  and  O_22
REMARK    6  A    between atoms: O_22  and  C_23
REMARK    7  A    between atoms: C_24  and  O_25
REMARK    8  A    between atoms: O_25  and  C_26
REMARK                            x       y       z     vdW  Elec       q    Type
REMARK                         _______ _______ _______ _____ _____    ______ ____
ROOT
ATOM      1  C   UNL     1      86.805  63.582  88.067  0.00  0.00    +0.000 C 
ATOM      2  C   UNL     1      87.005  64.350  86.971  0.00  0.00    +0.000 C 
ATOM      3  C   UNL     1      86.419  63.884  85.657  0.00  0.00    +0.000 C 
ATOM      4  C   UNL     1      85.060  63.175  85.822  0.00  0.00    +0.000 C 
ATOM      5  C   UNL     1      83.884  64.159  85.763  0.00  0.00    +0.000 C 
ATOM      6  C   UNL     1      82.842  63.533  86.665  0.00  0.00    +0.000 C 
ATOM      7  C   UNL     1      83.698  62.955  87.772  0.00  0.00    +0.000 C 
ATOM      8  N   UNL     1      84.849  62.388  87.059  0.00  0.00    +0.000 N 
ATOM      9  C   UNL     1      86.034  62.286  87.918  0.00  0.00    +0.000 C 
ATOM     10  H   UNL     1      84.661  61.422  86.790  0.00  0.00    +0.000 HD
ENDROOT
BRANCH   1  14
ATOM     11  C   UNL     1      88.262  64.509  91.998  0.00  0.00    +0.000 A 
ATOM     12  C   UNL     1      89.122  63.975  91.039  0.00  0.00    +0.000 A 
ATOM     13  C   UNL     1      88.647  63.673  89.757  0.00  0.00    +0.000 A 
ATOM     14  C   UNL     1      87.306  63.896  89.418  0.00  0.00    +0.000 A 
ATOM     15  C   UNL     1      86.449  64.437  90.382  0.00  0.00    +0.000 A 
ATOM     16  C   UNL     1      86.925  64.739  91.660  0.00  0.00    +0.000 A 
BRANCH  11  18
ATOM     17  C   UNL     1      87.550  65.354  94.100  0.00  0.00    +0.000 C 
ATOM     18  O   UNL     1      88.594  64.845  93.280  0.00  0.00    +0.000 OA
ENDBRANCH  11  18
ENDBRANCH   1  14
BRANCH   2  19
ATOM     19  C   UNL     1      87.773  65.607  86.947  0.00  0.00    +0.000 A 
ATOM     20  C   UNL     1      87.186  66.810  87.345  0.00  0.00    +0.000 A 
ATOM     21  C   UNL     1      87.920  68.001  87.333  0.00  0.00    +0.000 A 
ATOM     22  C   UNL     1      89.258  68.016  86.917  0.00  0.00    +0.000 A 
ATOM     23  C   UNL     1      89.842  66.811  86.486  0.00  0.00    +0.000 A 
ATOM     24  C   UNL     1      89.106  65.619  86.527  0.00  0.00    +0.000 A 
BRANCH  22  25
ATOM     25  O   UNL     1      90.043  69.138  86.926  0.00  0.00    +0.000 OA
ATOM     26  C   UNL     1      89.430  70.376  87.257  0.00  0.00    +0.000 C 
ENDBRANCH  22  25
BRANCH  23  27
ATOM     27  O   UNL     1      91.134  66.637  86.054  0.00  0.00    +0.000 OA
ATOM     28  C   UNL     1      91.374  65.479  85.265  0.00  0.00    +0.000 C 
ENDBRANCH  23  27
ENDBRANCH   2  19
TORSDOF 5
ENDMDL
