REMARK  Name = *****
REMARK  7 active torsions:
REMARK  status: ('A' for Active; 'I' for Inactive)
REMARK    1  A    between atoms: C_1  and  O_2
REMARK    2  A    between atoms: O_2  and  C_3
REMARK    3  A    between atoms: C_8  and  O_9
REMARK    4  A    between atoms: O_9  and  C_10
REMARK    5  A    between atoms: N_18  and  C_19
REMARK    6  A    between atoms: C_24  and  O_25
REMARK    7  A    between atoms: O_25  and  C_26
REMARK                            x       y       z     vdW  Elec       q    Type
REMARK                         _______ _______ _______ _____ _____    ______ ____
ROOT
ATOM      1  C   UNL     1       2.883   0.065  -1.365  0.00  0.00    +0.000 A 
ATOM      2  C   UNL     1       2.666   1.172  -2.193  0.00  0.00    +0.000 A 
ATOM      3  C   UNL     1       3.513   1.428  -3.278  0.00  0.00    +0.000 A 
ATOM      4  O   UNL     1       3.199   2.502  -4.072  0.00  0.00    +0.000 OA
ATOM      5  C   UNL     1       4.173   3.480  -4.109  0.00  0.00    +0.000 A 
ATOM      6  C   UNL     1       3.821   4.739  -3.573  0.00  0.00    +0.000 A 
ATOM      7  C   UNL     1       4.723   5.796  -3.670  0.00  0.00    +0.000 A 
ATOM      8  C   UNL     1       5.933   5.612  -4.337  0.00  0.00    +0.000 A 
ATOM      9  C   UNL     1       6.247   4.363  -4.891  0.00  0.00    +0.000 A 
ATOM     10  C   UNL     1       7.471   4.225  -5.683  0.00  0.00    +0.000 C 
ATOM     11  O   UNL     1       8.392   5.022  -5.575  0.00  0.00    +0.000 OA
ATOM     12  C   UNL     1       7.530   3.076  -6.679  0.00  0.00    +0.000 C 
ATOM     13  O   UNL     1       8.285   3.164  -7.641  0.00  0.00    +0.000 OA
ATOM     14  N   UNL     1       6.729   1.966  -6.386  0.00  0.00    +0.000 N 
ATOM     15  C   UNL     1       6.928   0.789  -7.226  0.00  0.00    +0.000 C 
ATOM     16  C   UNL     1       5.830   1.944  -5.310  0.00  0.00    +0.000 C 
ATOM     17  C   UNL     1       5.425   0.774  -4.770  0.00  0.00    +0.000 C 
ATOM     18  C   UNL     1       4.573   0.581  -3.587  0.00  0.00    +0.000 A 
ATOM     19  C   UNL     1       4.783  -0.531  -2.765  0.00  0.00    +0.000 A 
ATOM     20  C   UNL     1       3.969  -0.781  -1.647  0.00  0.00    +0.000 A 
ATOM     21  C   UNL     1       5.407   3.257  -4.750  0.00  0.00    +0.000 A 
ENDROOT
BRANCH   1  23
ATOM     22  C   UNL     1       0.951   0.571  -0.048  0.00  0.00    +0.000 C 
ATOM     23  O   UNL     1       2.072  -0.261  -0.312  0.00  0.00    +0.000 OA
ENDBRANCH   1  23
BRANCH   6  24
ATOM     24  O   UNL     1       2.587   4.816  -2.978  0.00  0.00    +0.000 OA
ATOM     25  C   UNL     1       2.172   6.086  -2.492  0.00  0.00    +0.000 C 
ENDBRANCH   6  24
BRANCH  20  26
ATOM     26  O   UNL     1       4.330  -1.917  -0.968  0.00  0.00    +0.000 OA
ATOM     27  C   UNL     1       4.095  -1.922   0.436  0.00  0.00    +0.000 C 
ENDBRANCH  20  26
TORSDOF 3
