REMARK  Name = *****
REMARK  7 active torsions:
REMARK  status: ('A' for Active; 'I' for Inactive)
REMARK    1  A    between atoms: C_1  and  O_2
REMARK    2  A    between atoms: O_2  and  C_3
REMARK    3  A    between atoms: N_9  and  C_10
REMARK    4  A    between atoms: C_18  and  O_19
REMARK    5  A    between atoms: O_19  and  C_20
REMARK    6  A    between atoms: C_24  and  O_25
REMARK    7  A    between atoms: O_25  and  C_26
REMARK                            x       y       z     vdW  Elec       q    Type
REMARK                         _______ _______ _______ _____ _____    ______ ____
ROOT
ATOM      1  C   UNL     1       3.178   0.348   1.266  0.00  0.00    +0.000 A 
ATOM      2  C   UNL     1       2.922  -0.059   2.576  0.00  0.00    +0.000 A 
ATOM      3  C   UNL     1       3.725   0.398   3.630  0.00  0.00    +0.000 A 
ATOM      4  C   UNL     1       4.811   1.254   3.396  0.00  0.00    +0.000 A 
ATOM      5  C   UNL     1       5.585   1.737   4.550  0.00  0.00    +0.000 C 
ATOM      6  C   UNL     1       6.909   1.998   4.602  0.00  0.00    +0.000 C 
ATOM      7  N   UNL     1       7.525   2.353   5.809  0.00  0.00    +0.000 N 
ATOM      8  C   UNL     1       6.747   2.869   6.931  0.00  0.00    +0.000 C 
ATOM      9  C   UNL     1       8.895   2.178   6.039  0.00  0.00    +0.000 C 
ATOM     10  O   UNL     1       9.487   2.522   7.055  0.00  0.00    +0.000 OA
ATOM     11  C   UNL     1       9.670   1.459   4.944  0.00  0.00    +0.000 C 
ATOM     12  O   UNL     1      10.708   0.860   5.187  0.00  0.00    +0.000 OA
ATOM     13  C   UNL     1       9.138   1.546   3.582  0.00  0.00    +0.000 A 
ATOM     14  C   UNL     1      10.017   1.373   2.501  0.00  0.00    +0.000 A 
ATOM     15  C   UNL     1       9.559   1.567   1.204  0.00  0.00    +0.000 A 
ATOM     16  C   UNL     1       8.228   1.924   1.000  0.00  0.00    +0.000 A 
ATOM     17  C   UNL     1       7.349   2.072   2.087  0.00  0.00    +0.000 A 
ATOM     18  O   UNL     1       6.084   2.539   1.803  0.00  0.00    +0.000 OA
ATOM     19  C   UNL     1       5.071   1.656   2.085  0.00  0.00    +0.000 A 
ATOM     20  C   UNL     1       4.242   1.232   1.033  0.00  0.00    +0.000 A 
ATOM     21  C   UNL     1       7.784   1.855   3.407  0.00  0.00    +0.000 A 
ENDROOT
BRANCH   1  23
ATOM     22  C   UNL     1       1.447  -1.019   0.359  0.00  0.00    +0.000 C 
ATOM     23  O   UNL     1       2.453  -0.034   0.168  0.00  0.00    +0.000 OA
ENDBRANCH   1  23
BRANCH  16  24
ATOM     24  O   UNL     1       7.798   2.220  -0.267  0.00  0.00    +0.000 OA
ATOM     25  C   UNL     1       7.619   1.025  -1.030  0.00  0.00    +0.000 C 
ENDBRANCH  16  24
BRANCH  20  26
ATOM     26  O   UNL     1       4.529   1.621  -0.255  0.00  0.00    +0.000 OA
ATOM     27  C   UNL     1       3.854   2.841  -0.557  0.00  0.00    +0.000 C 
ENDBRANCH  20  26
TORSDOF 3
