MODEL 1
REMARK VINA RESULT:      -5.1      0.000      0.000
REMARK  Name = *****
REMARK  8 active torsions:
REMARK  status: ('A' for Active; 'I' for Inactive)
REMARK    1  A    between atoms: C_1  and  O_2
REMARK    2  A    between atoms: O_2  and  C_3
REMARK    3  A    between atoms: C_6  and  C_9
REMARK    4  A    between atoms: C_10  and  C_18
REMARK    5  A    between atoms: C_21  and  O_22
REMARK    6  A    between atoms: O_22  and  C_23
REMARK    7  A    between atoms: C_24  and  O_25
REMARK    8  A    between atoms: O_25  and  C_26
REMARK                            x       y       z     vdW  Elec       q    Type
REMARK                         _______ _______ _______ _____ _____    ______ ____
ROOT
ATOM      1  C   UNL     1      88.016  70.686  85.302  0.00  0.00    +0.000 C 
ATOM      2  C   UNL     1      88.383  69.543  84.676  0.00  0.00    +0.000 C 
ATOM      3  C   UNL     1      88.606  69.569  83.175  0.00  0.00    +0.000 C 
ATOM      4  N   UNL     1      89.276  70.777  82.682  0.00  0.00    +0.000 N 
ATOM      5  C   UNL     1      90.732  70.718  82.850  0.00  0.00    +0.000 C 
ATOM      6  C   UNL     1      91.148  72.174  82.860  0.00  0.00    +0.000 C 
ATOM      7  C   UNL     1      90.059  72.800  83.704  0.00  0.00    +0.000 C 
ATOM      8  C   UNL     1      88.793  72.036  83.292  0.00  0.00    +0.000 C 
ATOM      9  C   UNL     1      87.786  71.917  84.453  0.00  0.00    +0.000 C 
ATOM     10  H   UNL     1      89.035  70.792  81.691  0.00  0.00    +0.000 HD
ENDROOT
BRANCH   1  14
ATOM     11  C   UNL     1      87.326  71.085  89.520  0.00  0.00    +0.000 A 
ATOM     12  C   UNL     1      86.299  71.347  88.614  0.00  0.00    +0.000 A 
ATOM     13  C   UNL     1      86.525  71.216  87.239  0.00  0.00    +0.000 A 
ATOM     14  C   UNL     1      87.779  70.831  86.750  0.00  0.00    +0.000 A 
ATOM     15  C   UNL     1      88.803  70.562  87.666  0.00  0.00    +0.000 A 
ATOM     16  C   UNL     1      88.575  70.691  89.039  0.00  0.00    +0.000 A 
BRANCH  11  18
ATOM     17  C   UNL     1      88.333  71.785  91.555  0.00  0.00    +0.000 C 
ATOM     18  O   UNL     1      87.240  71.174  90.883  0.00  0.00    +0.000 OA
ENDBRANCH  11  18
ENDBRANCH   1  14
BRANCH   2  19
ATOM     19  C   UNL     1      88.564  68.242  85.348  0.00  0.00    +0.000 A 
ATOM     20  C   UNL     1      87.472  67.560  85.890  0.00  0.00    +0.000 A 
ATOM     21  C   UNL     1      87.641  66.321  86.516  0.00  0.00    +0.000 A 
ATOM     22  C   UNL     1      88.909  65.732  86.616  0.00  0.00    +0.000 A 
ATOM     23  C   UNL     1      90.015  66.426  86.095  0.00  0.00    +0.000 A 
ATOM     24  C   UNL     1      89.830  67.658  85.449  0.00  0.00    +0.000 A 
BRANCH  22  25
ATOM     25  O   UNL     1      89.130  64.502  87.173  0.00  0.00    +0.000 OA
ATOM     26  C   UNL     1      88.480  64.199  88.401  0.00  0.00    +0.000 C 
ENDBRANCH  22  25
BRANCH  23  27
ATOM     27  O   UNL     1      91.323  66.009  86.092  0.00  0.00    +0.000 OA
ATOM     28  C   UNL     1      91.691  65.094  85.066  0.00  0.00    +0.000 C 
ENDBRANCH  23  27
ENDBRANCH   2  19
TORSDOF 5
ENDMDL
