MODEL 1
REMARK VINA RESULT:      -4.8      0.000      0.000
REMARK  Name = *****
REMARK  7 active torsions:
REMARK  status: ('A' for Active; 'I' for Inactive)
REMARK    1  A    between atoms: C_1  and  O_2
REMARK    2  A    between atoms: O_2  and  C_3
REMARK    3  A    between atoms: N_9  and  C_10
REMARK    4  A    between atoms: C_16  and  O_17
REMARK    5  A    between atoms: O_17  and  C_18
REMARK    6  A    between atoms: C_22  and  O_23
REMARK    7  A    between atoms: O_23  and  C_24
REMARK                            x       y       z     vdW  Elec       q    Type
REMARK                         _______ _______ _______ _____ _____    ______ ____
ROOT
ATOM      1  C   UNL     1      90.086  70.893  84.775  0.00  0.00    +0.000 A 
ATOM      2  C   UNL     1      89.593  70.845  86.072  0.00  0.00    +0.000 A 
ATOM      3  C   UNL     1      89.309  69.616  86.666  0.00  0.00    +0.000 A 
ATOM      4  C   UNL     1      89.505  68.390  85.994  0.00  0.00    +0.000 A 
ATOM      5  C   UNL     1      89.203  67.209  86.812  0.00  0.00    +0.000 C 
ATOM      6  C   UNL     1      88.953  65.987  86.348  0.00  0.00    +0.000 C 
ATOM      7  N   UNL     1      88.482  64.913  87.085  0.00  0.00    +0.000 N 
ATOM      8  C   UNL     1      88.229  64.906  88.505  0.00  0.00    +0.000 C 
ATOM      9  C   UNL     1      88.170  63.836  86.270  0.00  0.00    +0.000 C 
ATOM     10  O   UNL     1      87.697  62.755  86.562  0.00  0.00    +0.000 OA
ATOM     11  C   UNL     1      88.538  64.256  84.910  0.00  0.00    +0.000 A 
ATOM     12  C   UNL     1      88.505  63.500  83.762  0.00  0.00    +0.000 A 
ATOM     13  C   UNL     1      89.038  64.088  82.623  0.00  0.00    +0.000 A 
ATOM     14  C   UNL     1      89.594  65.392  82.652  0.00  0.00    +0.000 A 
ATOM     15  C   UNL     1      89.601  66.159  83.845  0.00  0.00    +0.000 A 
ATOM     16  O   UNL     1      90.304  67.334  83.881  0.00  0.00    +0.000 OA
ATOM     17  C   UNL     1      89.968  68.421  84.670  0.00  0.00    +0.000 A 
ATOM     18  C   UNL     1      90.245  69.683  84.067  0.00  0.00    +0.000 A 
ATOM     19  C   UNL     1      89.042  65.564  84.963  0.00  0.00    +0.000 A 
ENDROOT
BRANCH   1  21
ATOM     20  C   UNL     1      89.431  72.976  83.795  0.00  0.00    +0.000 C 
ATOM     21  O   UNL     1      90.453  72.052  84.145  0.00  0.00    +0.000 OA
ENDBRANCH   1  21
BRANCH  14  22
ATOM     22  O   UNL     1      90.137  65.709  81.432  0.00  0.00    +0.000 OA
ATOM     23  C   UNL     1      89.298  66.310  80.464  0.00  0.00    +0.000 C 
ENDBRANCH  14  22
BRANCH  18  24
ATOM     24  O   UNL     1      90.764  69.652  82.786  0.00  0.00    +0.000 OA
ATOM     25  C   UNL     1      89.790  69.803  81.753  0.00  0.00    +0.000 C 
ENDBRANCH  18  24
TORSDOF 3
ENDMDL
