MODEL 1
REMARK VINA RESULT:      -4.7      0.000      0.000
REMARK  Name = *****
REMARK  9 active torsions:
REMARK  status: ('A' for Active; 'I' for Inactive)
REMARK    1  A    between atoms: C_1  and  O_2
REMARK    2  A    between atoms: O_2  and  C_3
REMARK    3  A    between atoms: C_5  and  O_6
REMARK    4  A    between atoms: C_8  and  C_9
REMARK    5  A    between atoms: C_10  and  C_11
REMARK    6  A    between atoms: C_15  and  O_16
REMARK    7  A    between atoms: O_16  and  C_17
REMARK    8  A    between atoms: C_18  and  O_19
REMARK    9  A    between atoms: O_19  and  C_20
REMARK                            x       y       z     vdW  Elec       q    Type
REMARK                         _______ _______ _______ _____ _____    ______ ____
ROOT
ATOM      1  C   UNL     1     102.728 125.911  81.557  0.00  0.00    +0.000 C 
ATOM      2  C   UNL     1     101.983 125.982  82.672  0.00  0.00    +0.000 C 
ENDROOT
BRANCH   1   7
ATOM      3  C   UNL     1     105.003 122.956  82.130  0.00  0.00    +0.000 A 
ATOM      4  C   UNL     1     105.647 122.840  80.899  0.00  0.00    +0.000 A 
ATOM      5  C   UNL     1     105.333 123.736  79.879  0.00  0.00    +0.000 A 
ATOM      6  C   UNL     1     104.394 124.746  80.068  0.00  0.00    +0.000 A 
ATOM      7  C   UNL     1     103.753 124.887  81.303  0.00  0.00    +0.000 A 
ATOM      8  C   UNL     1     104.060 123.973  82.322  0.00  0.00    +0.000 A 
BRANCH   3  10
ATOM      9  C   UNL     1     104.320 121.039  83.365  0.00  0.00    +0.000 C 
ATOM     10  O   UNL     1     105.196 122.148  83.219  0.00  0.00    +0.000 OA
ENDBRANCH   3  10
BRANCH   5  11
ATOM     11  O   UNL     1     105.931 123.654  78.655  0.00  0.00    +0.000 OA
ATOM     12  H   UNL     1     106.338 122.854  78.384  0.00  0.00    +0.000 HD
ENDBRANCH   5  11
ENDBRANCH   1   7
BRANCH   2  13
ATOM     13  C   UNL     1     100.975 127.030  82.911  0.00  0.00    +0.000 A 
ATOM     14  C   UNL     1      99.674 126.898  82.409  0.00  0.00    +0.000 A 
ATOM     15  C   UNL     1      98.711 127.873  82.671  0.00  0.00    +0.000 A 
ATOM     16  C   UNL     1      99.026 128.986  83.455  0.00  0.00    +0.000 A 
ATOM     17  C   UNL     1     100.310 129.135  83.984  0.00  0.00    +0.000 A 
ATOM     18  C   UNL     1     101.283 128.161  83.692  0.00  0.00    +0.000 A 
BRANCH  17  19
ATOM     19  O   UNL     1     100.712 130.179  84.777  0.00  0.00    +0.000 OA
ATOM     20  C   UNL     1     100.320 131.487  84.384  0.00  0.00    +0.000 C 
ENDBRANCH  17  19
BRANCH  18  21
ATOM     21  O   UNL     1     102.547 128.274  84.234  0.00  0.00    +0.000 OA
ATOM     22  C   UNL     1     103.368 129.079  83.387  0.00  0.00    +0.000 C 
ENDBRANCH  18  21
ENDBRANCH   2  13
TORSDOF 6
ENDMDL
