MODEL 1
REMARK VINA RESULT:      -4.9      0.000      0.000
REMARK  Name = *****
REMARK  7 active torsions:
REMARK  status: ('A' for Active; 'I' for Inactive)
REMARK    1  A    between atoms: C_1  and  O_2
REMARK    2  A    between atoms: O_2  and  C_3
REMARK    3  A    between atoms: C_5  and  C_6
REMARK    4  A    between atoms: C_11  and  O_12
REMARK    5  A    between atoms: C_17  and  O_18
REMARK    6  A    between atoms: O_18  and  C_19
REMARK    7  A    between atoms: C_21  and  O_22
REMARK                            x       y       z     vdW  Elec       q    Type
REMARK                         _______ _______ _______ _____ _____    ______ ____
ROOT
ATOM      1  C   UNL     1      99.485 127.324  82.695  0.00  0.00    +0.000 A 
ATOM      2  C   UNL     1     100.477 126.432  82.273  0.00  0.00    +0.000 A 
ATOM      3  C   UNL     1     101.841 126.691  82.512  0.00  0.00    +0.000 A 
ATOM      4  C   UNL     1     102.185 127.866  83.200  0.00  0.00    +0.000 A 
ATOM      5  C   UNL     1     101.209 128.778  83.605  0.00  0.00    +0.000 A 
ATOM      6  C   UNL     1      99.868 128.497  83.359  0.00  0.00    +0.000 A 
ENDROOT
BRANCH   3   7
ATOM      7  C   UNL     1     102.855 125.737  82.015  0.00  0.00    +0.000 C 
ATOM      8  C   UNL     1     103.351 124.779  82.812  0.00  0.00    +0.000 C 
ATOM      9  C   UNL     1     104.350 123.879  82.247  0.00  0.00    +0.000 A 
ATOM     10  C   UNL     1     105.062 122.989  83.058  0.00  0.00    +0.000 A 
ATOM     11  C   UNL     1     105.983 122.104  82.490  0.00  0.00    +0.000 A 
ATOM     12  C   UNL     1     106.176 122.107  81.111  0.00  0.00    +0.000 A 
ATOM     13  C   UNL     1     105.470 122.980  80.292  0.00  0.00    +0.000 A 
ATOM     14  C   UNL     1     104.567 123.874  80.862  0.00  0.00    +0.000 A 
ATOM     15  O   UNL     1     103.878 124.690  80.005  0.00  0.00    +0.000 OA
ATOM     16  C   UNL     1     103.341 125.890  80.593  0.00  0.00    +0.000 C 
BRANCH  12  17
ATOM     17  O   UNL     1     107.058 121.253  80.517  0.00  0.00    +0.000 OA
ATOM     18  H   UNL     1     107.684 121.580  79.901  0.00  0.00    +0.000 HD
ENDBRANCH  12  17
ENDBRANCH   3   7
BRANCH   1  20
ATOM     19  C   UNL     1      97.449 126.308  83.415  0.00  0.00    +0.000 C 
ATOM     20  O   UNL     1      98.138 127.150  82.504  0.00  0.00    +0.000 OA
ENDBRANCH   1  20
BRANCH   4  21
ATOM     21  O   UNL     1     103.497 128.183  83.451  0.00  0.00    +0.000 OA
ATOM     22  C   UNL     1     103.767 128.082  84.850  0.00  0.00    +0.000 C 
ENDBRANCH   4  21
BRANCH   6  23
ATOM     23  O   UNL     1      98.903 129.381  83.765  0.00  0.00    +0.000 OA
ATOM     24  H   UNL     1      98.686 130.118  83.229  0.00  0.00    +0.000 HD
ENDBRANCH   6  23
TORSDOF 5
ENDMDL
