MODEL 1
REMARK VINA RESULT:      -5.4      0.000      0.000
REMARK  Name = *****
REMARK  9 active torsions:
REMARK  status: ('A' for Active; 'I' for Inactive)
REMARK    1  A    between atoms: C_1  and  O_2
REMARK    2  A    between atoms: O_2  and  C_3
REMARK    3  A    between atoms: C_6  and  C_10
REMARK    4  A    between atoms: C_8  and  O_9
REMARK    5  A    between atoms: C_11  and  C_20
REMARK    6  A    between atoms: C_17  and  C_18
REMARK    7  A    between atoms: C_24  and  O_25
REMARK    8  A    between atoms: O_25  and  C_26
REMARK    9  A    between atoms: C_26  and  C_28
REMARK                            x       y       z     vdW  Elec       q    Type
REMARK                         _______ _______ _______ _____ _____    ______ ____
ROOT
ATOM      1  C   UNL     1      88.386  68.645  85.670  0.00  0.00    +0.000 C 
ATOM      2  C   UNL     1      87.918  68.404  86.917  0.00  0.00    +0.000 C 
ATOM      3  C   UNL     1      87.600  66.979  87.329  0.00  0.00    +0.000 C 
ATOM      4  N   UNL     1      88.569  65.982  86.861  0.00  0.00    +0.000 N 
ATOM      5  C   UNL     1      88.012  64.627  86.840  0.00  0.00    +0.000 C 
ATOM      6  C   UNL     1      88.883  63.892  85.841  0.00  0.00    +0.000 C 
ATOM      7  C   UNL     1      89.103  64.945  84.769  0.00  0.00    +0.000 C 
ATOM      8  C   UNL     1      89.220  66.258  85.562  0.00  0.00    +0.000 C 
ATOM      9  C   UNL     1      90.708  66.531  85.878  0.00  0.00    +0.000 C 
ATOM     10  C   UNL     1      88.630  67.451  84.771  0.00  0.00    +0.000 C 
ATOM     11  H   UNL     1      89.304  66.054  87.563  0.00  0.00    +0.000 HD
ENDROOT
BRANCH   1  15
ATOM     12  C   UNL     1      89.253  72.536  84.061  0.00  0.00    +0.000 A 
ATOM     13  C   UNL     1      87.933  72.138  84.284  0.00  0.00    +0.000 A 
ATOM     14  C   UNL     1      87.655  70.868  84.807  0.00  0.00    +0.000 A 
ATOM     15  C   UNL     1      88.689  69.978  85.116  0.00  0.00    +0.000 A 
ATOM     16  C   UNL     1      90.012  70.374  84.896  0.00  0.00    +0.000 A 
ATOM     17  C   UNL     1      90.285  71.639  84.369  0.00  0.00    +0.000 A 
BRANCH  12  19
ATOM     18  C   UNL     1      89.194  74.078  82.244  0.00  0.00    +0.000 C 
ATOM     19  O   UNL     1      89.634  73.749  83.553  0.00  0.00    +0.000 OA
ENDBRANCH  12  19
BRANCH  17  20
ATOM     20  O   UNL     1      91.585  72.014  84.149  0.00  0.00    +0.000 OA
ATOM     21  H   UNL     1      92.034  71.720  83.381  0.00  0.00    +0.000 HD
ENDBRANCH  17  20
ENDBRANCH   1  15
BRANCH   2  22
ATOM     22  C   UNL     1      87.647  69.448  87.923  0.00  0.00    +0.000 A 
ATOM     23  C   UNL     1      88.707  70.130  88.540  0.00  0.00    +0.000 A 
ATOM     24  C   UNL     1      88.459  71.113  89.502  0.00  0.00    +0.000 A 
ATOM     25  C   UNL     1      87.148  71.431  89.852  0.00  0.00    +0.000 A 
ATOM     26  C   UNL     1      86.096  70.773  89.217  0.00  0.00    +0.000 A 
ATOM     27  C   UNL     1      86.332  69.776  88.272  0.00  0.00    +0.000 A 
BRANCH  26  28
ATOM     28  O   UNL     1      84.769  71.029  89.574  0.00  0.00    +0.000 OA
BRANCH  28  29
ATOM     29  C   UNL     1      84.333  72.325  89.320  0.00  0.00    +0.000 C 
ATOM     30  O   UNL     1      84.092  73.199  90.142  0.00  0.00    +0.000 OA
ATOM     31  C   UNL     1      84.195  72.502  87.837  0.00  0.00    +0.000 C 
ENDBRANCH  28  29
ENDBRANCH  26  28
ENDBRANCH   2  22
TORSDOF 6
ENDMDL
