MODEL 1
REMARK VINA RESULT:      -5.1      0.000      0.000
REMARK  Name = *****
REMARK  7 active torsions:
REMARK  status: ('A' for Active; 'I' for Inactive)
REMARK    1  A    between atoms: C_1  and  O_2
REMARK    2  A    between atoms: O_2  and  C_3
REMARK    3  A    between atoms: C_6  and  C_7
REMARK    4  A    between atoms: C_8  and  C_9
REMARK    5  A    between atoms: C_11  and  O_12
REMARK    6  A    between atoms: O_12  and  C_13
REMARK    7  A    between atoms: C_21  and  O_22
REMARK                            x       y       z     vdW  Elec       q    Type
REMARK                         _______ _______ _______ _____ _____    ______ ____
ROOT
ATOM      1  C   UNL     1     103.113 125.183  82.897  0.00  0.00    +0.000 C 
ATOM      2  C   UNL     1     102.279 125.860  82.091  0.00  0.00    +0.000 C 
ENDROOT
BRANCH   2   3
ATOM      3  C   UNL     1     101.338 126.890  82.560  0.00  0.00    +0.000 A 
ATOM      4  C   UNL     1      99.950 126.659  82.399  0.00  0.00    +0.000 A 
ATOM      5  C   UNL     1      99.001 127.587  82.849  0.00  0.00    +0.000 A 
ATOM      6  C   UNL     1      99.478 128.731  83.466  0.00  0.00    +0.000 A 
ATOM      7  O   UNL     1      98.726 129.749  83.973  0.00  0.00    +0.000 OA
ATOM      8  C   UNL     1      99.748 130.626  84.479  0.00  0.00    +0.000 C 
ATOM      9  O   UNL     1     101.085 130.128  84.274  0.00  0.00    +0.000 OA
ATOM     10  C   UNL     1     100.824 128.953  83.638  0.00  0.00    +0.000 A 
ATOM     11  C   UNL     1     101.776 128.054  83.205  0.00  0.00    +0.000 A 
BRANCH   5  12
ATOM     12  O   UNL     1      97.646 127.471  82.740  0.00  0.00    +0.000 OA
ATOM     13  C   UNL     1      97.001 126.550  83.608  0.00  0.00    +0.000 C 
ENDBRANCH   5  12
ENDBRANCH   2   3
BRANCH   1  17
ATOM     14  C   UNL     1     105.778 122.160  81.417  0.00  0.00    +0.000 A 
ATOM     15  C   UNL     1     105.457 122.205  82.775  0.00  0.00    +0.000 A 
ATOM     16  C   UNL     1     104.595 123.193  83.268  0.00  0.00    +0.000 A 
ATOM     17  C   UNL     1     104.046 124.157  82.414  0.00  0.00    +0.000 A 
ATOM     18  C   UNL     1     104.353 124.104  81.050  0.00  0.00    +0.000 A 
ATOM     19  C   UNL     1     105.216 123.119  80.564  0.00  0.00    +0.000 A 
BRANCH  14  21
ATOM     20  C   UNL     1     106.834 120.026  81.534  0.00  0.00    +0.000 C 
ATOM     21  O   UNL     1     106.608 121.240  80.834  0.00  0.00    +0.000 OA
ENDBRANCH  14  21
BRANCH  19  22
ATOM     22  O   UNL     1     105.521 123.083  79.228  0.00  0.00    +0.000 OA
ATOM     23  H   UNL     1     104.959 122.629  78.632  0.00  0.00    +0.000 HD
ENDBRANCH  19  22
ENDBRANCH   1  17
TORSDOF 5
ENDMDL
