MODEL 1
REMARK VINA RESULT:      -5.8      0.000      0.000
REMARK  Name = *****
REMARK  1 active torsions:
REMARK  status: ('A' for Active; 'I' for Inactive)
REMARK    1  A    between atoms: O_1  and  C_2
REMARK                            x       y       z     vdW  Elec       q    Type
REMARK                         _______ _______ _______ _____ _____    ______ ____
ROOT
ATOM      1  C   UNL     1      89.405  66.756  84.541  0.00  0.00    +0.000 C 
ATOM      2  N   UNL     1      88.655  65.839  85.389  0.00  0.00    +0.000 N 
ATOM      3  C   UNL     1      88.205  64.605  84.741  0.00  0.00    +0.000 C 
ATOM      4  C   UNL     1      88.423  63.420  85.680  0.00  0.00    +0.000 C 
ATOM      5  C   UNL     1      87.764  63.682  87.012  0.00  0.00    +0.000 A 
ATOM      6  C   UNL     1      87.231  62.602  87.740  0.00  0.00    +0.000 A 
ATOM      7  C   UNL     1      86.624  62.876  88.943  0.00  0.00    +0.000 A 
ATOM      8  O   UNL     1      86.045  61.964  89.768  0.00  0.00    +0.000 OA
ATOM      9  C   UNL     1      85.581  62.819  90.833  0.00  0.00    +0.000 C 
ATOM     10  O   UNL     1      85.888  64.213  90.624  0.00  0.00    +0.000 OA
ATOM     11  C   UNL     1      86.537  64.155  89.429  0.00  0.00    +0.000 A 
ATOM     12  C   UNL     1      87.064  65.236  88.749  0.00  0.00    +0.000 A 
ATOM     13  C   UNL     1      87.715  65.014  87.522  0.00  0.00    +0.000 A 
ATOM     14  C   UNL     1      88.336  66.120  86.723  0.00  0.00    +0.000 C 
ATOM     15  C   UNL     1      88.608  67.322  87.268  0.00  0.00    +0.000 C 
ATOM     16  C   UNL     1      89.163  68.403  86.445  0.00  0.00    +0.000 A 
ATOM     17  C   UNL     1      89.318  69.698  86.985  0.00  0.00    +0.000 A 
ATOM     18  C   UNL     1      89.816  70.743  86.202  0.00  0.00    +0.000 A 
ATOM     19  C   UNL     1      90.143  70.462  84.894  0.00  0.00    +0.000 A 
ATOM     20  O   UNL     1      90.633  71.358  83.996  0.00  0.00    +0.000 OA
ATOM     21  C   UNL     1      90.802  70.516  82.839  0.00  0.00    +0.000 C 
ATOM     22  O   UNL     1      90.372  69.157  83.051  0.00  0.00    +0.000 OA
ATOM     23  C   UNL     1      89.997  69.201  84.361  0.00  0.00    +0.000 A 
ATOM     24  C   UNL     1      89.516  68.140  85.110  0.00  0.00    +0.000 A 
ENDROOT
BRANCH   1  25
ATOM     25  O   UNL     1      90.706  66.210  84.446  0.00  0.00    +0.000 OA
ATOM     26  H   UNL     1      91.256  66.781  83.888  0.00  0.00    +0.000 HD
ENDBRANCH   1  25
TORSDOF 1
ENDMDL
