MODEL 1
REMARK VINA RESULT:      -4.9      0.000      0.000
REMARK  Name = *****
REMARK  1 active torsions:
REMARK  status: ('A' for Active; 'I' for Inactive)
REMARK    1  A    between atoms: C_11  and  C_12
REMARK                            x       y       z     vdW  Elec       q    Type
REMARK                         _______ _______ _______ _____ _____    ______ ____
ROOT
ATOM      1  O   UNL     1     101.936 125.485  84.796  0.00  0.00    +0.000 OA
ATOM      2  C   UNL     1     102.638 125.067  83.894  0.00  0.00    +0.000 C 
ATOM      3  O   UNL     1     103.546 124.017  84.031  0.00  0.00    +0.000 OA
ATOM      4  C   UNL     1     104.129 123.856  82.781  0.00  0.00    +0.000 A 
ATOM      5  C   UNL     1     105.095 122.903  82.517  0.00  0.00    +0.000 A 
ATOM      6  C   UNL     1     105.609 122.838  81.221  0.00  0.00    +0.000 A 
ATOM      7  C   UNL     1     105.149 123.718  80.226  0.00  0.00    +0.000 A 
ATOM      8  C   UNL     1     104.171 124.675  80.516  0.00  0.00    +0.000 A 
ATOM      9  C   UNL     1     103.673 124.727  81.807  0.00  0.00    +0.000 A 
ATOM     10  C   UNL     1     102.699 125.548  82.480  0.00  0.00    +0.000 C 
ATOM     11  C   UNL     1     102.005 126.553  81.922  0.00  0.00    +0.000 C 
ENDROOT
BRANCH  11  12
ATOM     12  C   UNL     1     101.039 127.394  82.629  0.00  0.00    +0.000 A 
ATOM     13  C   UNL     1      99.676 127.085  82.581  0.00  0.00    +0.000 A 
ATOM     14  C   UNL     1      98.750 127.889  83.249  0.00  0.00    +0.000 A 
ATOM     15  C   UNL     1      99.185 129.000  83.970  0.00  0.00    +0.000 A 
ATOM     16  C   UNL     1     100.543 129.311  84.023  0.00  0.00    +0.000 A 
ATOM     17  C   UNL     1     101.471 128.509  83.354  0.00  0.00    +0.000 A 
ENDBRANCH  11  12
TORSDOF 1
ENDMDL
