MODEL 1
REMARK VINA RESULT:      -5.1      0.000      0.000
REMARK  Name = *****
REMARK  6 active torsions:
REMARK  status: ('A' for Active; 'I' for Inactive)
REMARK    1  A    between atoms: C_1  and  O_2
REMARK    2  A    between atoms: O_2  and  C_3
REMARK    3  A    between atoms: C_20  and  O_21
REMARK    4  A    between atoms: O_21  and  C_22
REMARK    5  A    between atoms: C_23  and  O_24
REMARK    6  A    between atoms: O_24  and  C_25
REMARK                            x       y       z     vdW  Elec       q    Type
REMARK                         _______ _______ _______ _____ _____    ______ ____
ROOT
ATOM      1  C   UNL     1      89.063  67.354  85.908  0.00  0.00    +0.000 C 
ATOM      2  C   UNL     1      88.204  67.227  86.944  0.00  0.00    +0.000 C 
ATOM      3  N   UNL     1      87.647  68.227  87.732  0.00  0.00    +0.000 N 
ATOM      4  C   UNL     1      87.894  69.648  87.637  0.00  0.00    +0.000 C 
ATOM      5  C   UNL     1      89.357  69.993  87.392  0.00  0.00    +0.000 C 
ATOM      6  C   UNL     1      89.684  69.850  85.928  0.00  0.00    +0.000 A 
ATOM      7  C   UNL     1      90.158  70.987  85.238  0.00  0.00    +0.000 A 
ATOM      8  C   UNL     1      90.400  70.886  83.887  0.00  0.00    +0.000 A 
ATOM      9  O   UNL     1      90.844  71.883  83.079  0.00  0.00    +0.000 OA
ATOM     10  C   UNL     1      90.886  71.201  81.809  0.00  0.00    +0.000 C 
ATOM     11  O   UNL     1      90.478  69.820  81.887  0.00  0.00    +0.000 OA
ATOM     12  C   UNL     1      90.190  69.715  83.211  0.00  0.00    +0.000 A 
ATOM     13  C   UNL     1      89.739  68.581  83.853  0.00  0.00    +0.000 A 
ATOM     14  C   UNL     1      89.487  68.623  85.244  0.00  0.00    +0.000 A 
ATOM     15  C   UNL     1      86.792  67.722  88.705  0.00  0.00    +0.000 C 
ATOM     16  O   UNL     1      86.144  68.344  89.526  0.00  0.00    +0.000 OA
ATOM     17  C   UNL     1      86.814  66.262  88.551  0.00  0.00    +0.000 A 
ATOM     18  C   UNL     1      86.126  65.293  89.273  0.00  0.00    +0.000 A 
ATOM     19  C   UNL     1      86.340  63.954  88.929  0.00  0.00    +0.000 A 
ATOM     20  C   UNL     1      87.157  63.636  87.831  0.00  0.00    +0.000 A 
ATOM     21  C   UNL     1      87.822  64.632  87.106  0.00  0.00    +0.000 A 
ATOM     22  C   UNL     1      87.666  65.958  87.484  0.00  0.00    +0.000 A 
ENDROOT
BRANCH   1  24
ATOM     23  C   UNL     1      90.935  65.999  85.663  0.00  0.00    +0.000 C 
ATOM     24  O   UNL     1      89.571  66.214  85.286  0.00  0.00    +0.000 OA
ENDBRANCH   1  24
BRANCH  18  25
ATOM     25  O   UNL     1      85.304  65.641  90.305  0.00  0.00    +0.000 OA
ATOM     26  C   UNL     1      86.001  65.533  91.548  0.00  0.00    +0.000 C 
ENDBRANCH  18  25
BRANCH  19  27
ATOM     27  O   UNL     1      85.761  62.872  89.541  0.00  0.00    +0.000 OA
ATOM     28  C   UNL     1      86.164  61.608  89.017  0.00  0.00    +0.000 C 
ENDBRANCH  19  27
TORSDOF 3
ENDMDL
