REMARK  Name = *****
REMARK  6 active torsions:
REMARK  status: ('A' for Active; 'I' for Inactive)
REMARK    1  A    between atoms: C_1  and  O_2
REMARK    2  A    between atoms: O_2  and  C_3
REMARK    3  A    between atoms: C_5  and  C_10
REMARK    4  A    between atoms: C_8  and  O_9
REMARK    5  A    between atoms: C_11  and  C_19
REMARK    6  A    between atoms: C_22  and  O_23
REMARK                            x       y       z     vdW  Elec       q    Type
REMARK                         _______ _______ _______ _____ _____    ______ ____
ROOT
ATOM      1  C   UNL     1       2.816   5.019   0.277  0.00  0.00    +0.000 C 
ATOM      2  C   UNL     1       1.928   5.172   1.285  0.00  0.00    +0.000 C 
ATOM      3  C   UNL     1       1.365   6.549   1.570  0.00  0.00    +0.000 C 
ATOM      4  N   UNL     1       1.077   7.347   0.373  0.00  0.00    +0.000 N 
ATOM      5  C   UNL     1      -0.225   7.019  -0.217  0.00  0.00    +0.000 C 
ATOM      6  C   UNL     1      -0.083   7.451  -1.661  0.00  0.00    +0.000 C 
ATOM      7  C   UNL     1       1.321   6.985  -1.984  0.00  0.00    +0.000 C 
ATOM      8  C   UNL     1       2.103   7.256  -0.692  0.00  0.00    +0.000 C 
ATOM      9  C   UNL     1       3.251   6.246  -0.488  0.00  0.00    +0.000 C 
ATOM     10  H   UNL     1       1.076   8.304   0.725  0.00  0.00    +0.000 HD
ENDROOT
BRANCH   1  13
ATOM     11  C   UNL     1       5.390   2.309  -0.279  0.00  0.00    +0.000 A 
ATOM     12  C   UNL     1       4.802   3.527   0.077  0.00  0.00    +0.000 A 
ATOM     13  C   UNL     1       3.428   3.740  -0.117  0.00  0.00    +0.000 A 
ATOM     14  C   UNL     1       2.645   2.729  -0.686  0.00  0.00    +0.000 A 
ATOM     15  C   UNL     1       3.223   1.516  -1.059  0.00  0.00    +0.000 A 
ATOM     16  C   UNL     1       4.587   1.313  -0.855  0.00  0.00    +0.000 A 
BRANCH  11  18
ATOM     17  C   UNL     1       7.503   2.899   0.651  0.00  0.00    +0.000 C 
ATOM     18  O   UNL     1       6.716   2.001  -0.119  0.00  0.00    +0.000 OA
ENDBRANCH  11  18
BRANCH  16  19
ATOM     19  O   UNL     1       5.156   0.120  -1.214  0.00  0.00    +0.000 OA
ATOM     20  H   UNL     1       6.073  -0.021  -1.080  0.00  0.00    +0.000 HD
ENDBRANCH  16  19
ENDBRANCH   1  13
BRANCH   2  21
ATOM     21  C   UNL     1       1.475   4.075   2.160  0.00  0.00    +0.000 A 
ATOM     22  C   UNL     1       2.376   3.446   3.031  0.00  0.00    +0.000 A 
ATOM     23  C   UNL     1       1.956   2.400   3.856  0.00  0.00    +0.000 A 
ATOM     24  C   UNL     1       0.630   1.986   3.810  0.00  0.00    +0.000 A 
ATOM     25  C   UNL     1      -0.279   2.601   2.958  0.00  0.00    +0.000 A 
ATOM     26  C   UNL     1       0.142   3.646   2.133  0.00  0.00    +0.000 A 
BRANCH  24  27
ATOM     27  O   UNL     1       0.176   0.967   4.595  0.00  0.00    +0.000 OA
ATOM     28  H   UNL     1       0.763   0.531   5.181  0.00  0.00    +0.000 HD
ENDBRANCH  24  27
ENDBRANCH   2  21
TORSDOF 5
