MODEL 1
REMARK VINA RESULT:      -4.4      0.000      0.000
REMARK  Name = *****
REMARK  6 active torsions:
REMARK  status: ('A' for Active; 'I' for Inactive)
REMARK    1  A    between atoms: C_1  and  O_2
REMARK    2  A    between atoms: O_2  and  C_3
REMARK    3  A    between atoms: C_6  and  C_7
REMARK    4  A    between atoms: C_8  and  C_9
REMARK    5  A    between atoms: C_12  and  O_13
REMARK    6  A    between atoms: O_13  and  C_14
REMARK                            x       y       z     vdW  Elec       q    Type
REMARK                         _______ _______ _______ _____ _____    ______ ____
ROOT
ATOM      1  C   UNL     1     103.024 125.810  82.282  0.00  0.00    +0.000 C 
ATOM      2  C   UNL     1     103.278 125.346  81.048  0.00  0.00    +0.000 C 
ENDROOT
BRANCH   1   6
ATOM      3  C   UNL     1      99.830 128.484  83.310  0.00  0.00    +0.000 A 
ATOM      4  C   UNL     1      99.543 127.277  82.675  0.00  0.00    +0.000 A 
ATOM      5  C   UNL     1     100.579 126.399  82.328  0.00  0.00    +0.000 A 
ATOM      6  C   UNL     1     101.914 126.720  82.601  0.00  0.00    +0.000 A 
ATOM      7  C   UNL     1     102.192 127.925  83.255  0.00  0.00    +0.000 A 
ATOM      8  C   UNL     1     101.158 128.800  83.600  0.00  0.00    +0.000 A 
BRANCH   3  10
ATOM      9  C   UNL     1      99.409 130.746  83.903  0.00  0.00    +0.000 C 
ATOM     10  O   UNL     1      98.919 129.426  83.700  0.00  0.00    +0.000 OA
ENDBRANCH   3  10
ENDBRANCH   1   6
BRANCH   2  11
ATOM     11  C   UNL     1     104.401 124.453  80.725  0.00  0.00    +0.000 A 
ATOM     12  C   UNL     1     105.329 124.748  79.720  0.00  0.00    +0.000 A 
ATOM     13  C   UNL     1     106.405 123.889  79.460  0.00  0.00    +0.000 A 
ATOM     14  C   UNL     1     106.572 122.727  80.212  0.00  0.00    +0.000 A 
ATOM     15  C   UNL     1     105.659 122.438  81.228  0.00  0.00    +0.000 A 
ATOM     16  C   UNL     1     104.585 123.295  81.487  0.00  0.00    +0.000 A 
BRANCH  14  17
ATOM     17  O   UNL     1     107.574 121.808  80.063  0.00  0.00    +0.000 OA
ATOM     18  C   UNL     1     107.715 120.839  81.094  0.00  0.00    +0.000 C 
ENDBRANCH  14  17
ENDBRANCH   2  11
TORSDOF 4
ENDMDL
