REMARK  Name = *****
REMARK  9 active torsions:
REMARK  status: ('A' for Active; 'I' for Inactive)
REMARK    1  A    between atoms: C_1  and  O_2
REMARK    2  A    between atoms: O_2  and  C_3
REMARK    3  A    between atoms: C_7  and  C_8
REMARK    4  A    between atoms: C_9  and  C_10
REMARK    5  A    between atoms: C_11  and  O_12
REMARK    6  A    between atoms: O_12  and  C_13
REMARK    7  A    between atoms: C_17  and  O_18
REMARK    8  A    between atoms: O_18  and  C_19
REMARK    9  A    between atoms: C_20  and  O_21
REMARK                            x       y       z     vdW  Elec       q    Type
REMARK                         _______ _______ _______ _____ _____    ______ ____
ROOT
ATOM      1  C   UNL     1       6.660   2.239   0.287  0.00  0.00    +0.000 C 
ATOM      2  C   UNL     1       7.401   3.278  -0.124  0.00  0.00    +0.000 C 
ENDROOT
BRANCH   1   7
ATOM      3  C   UNL     1       3.185   1.554  -1.065  0.00  0.00    +0.000 A 
ATOM      4  C   UNL     1       2.412   2.211  -0.103  0.00  0.00    +0.000 A 
ATOM      5  C   UNL     1       3.024   2.878   0.964  0.00  0.00    +0.000 A 
ATOM      6  C   UNL     1       4.413   2.889   1.084  0.00  0.00    +0.000 A 
ATOM      7  C   UNL     1       5.204   2.233   0.136  0.00  0.00    +0.000 A 
ATOM      8  C   UNL     1       4.584   1.576  -0.941  0.00  0.00    +0.000 A 
BRANCH   3  10
ATOM      9  C   UNL     1       1.271   0.832  -2.293  0.00  0.00    +0.000 C 
ATOM     10  O   UNL     1       2.682   0.880  -2.148  0.00  0.00    +0.000 OA
ENDBRANCH   3  10
BRANCH   8  11
ATOM     11  O   UNL     1       5.334   0.940  -1.905  0.00  0.00    +0.000 OA
ATOM     12  H   UNL     1       4.909   0.505  -2.618  0.00  0.00    +0.000 HD
ENDBRANCH   8  11
ENDBRANCH   1   7
BRANCH   2  13
ATOM     13  C   UNL     1       8.873   3.244  -0.097  0.00  0.00    +0.000 A 
ATOM     14  C   UNL     1       9.604   2.295  -0.849  0.00  0.00    +0.000 A 
ATOM     15  C   UNL     1      11.005   2.319  -0.814  0.00  0.00    +0.000 A 
ATOM     16  C   UNL     1      11.682   3.284  -0.062  0.00  0.00    +0.000 A 
ATOM     17  C   UNL     1      10.968   4.230   0.666  0.00  0.00    +0.000 A 
ATOM     18  C   UNL     1       9.574   4.198   0.661  0.00  0.00    +0.000 A 
BRANCH  14  19
ATOM     19  O   UNL     1       8.866   1.402  -1.591  0.00  0.00    +0.000 OA
ATOM     20  C   UNL     1       9.575   0.481  -2.410  0.00  0.00    +0.000 C 
ENDBRANCH  14  19
BRANCH  18  21
ATOM     21  O   UNL     1       8.900   5.169   1.362  0.00  0.00    +0.000 OA
ATOM     22  C   UNL     1       8.753   4.774   2.726  0.00  0.00    +0.000 C 
ENDBRANCH  18  21
ENDBRANCH   2  13
TORSDOF 6
