MODEL 1
REMARK VINA RESULT:      -5.0      0.000      0.000
REMARK  Name = *****
REMARK  3 active torsions:
REMARK  status: ('A' for Active; 'I' for Inactive)
REMARK    1  A    between atoms: C_1  and  O_2
REMARK    2  A    between atoms: O_2  and  C_3
REMARK    3  A    between atoms: C_8  and  C_9
REMARK                            x       y       z     vdW  Elec       q    Type
REMARK                         _______ _______ _______ _____ _____    ______ ____
ROOT
ATOM      1  C   UNL     1     105.616 122.956  80.898  0.00  0.00    +0.000 A 
ATOM      2  C   UNL     1     105.125 123.890  79.970  0.00  0.00    +0.000 A 
ATOM      3  C   UNL     1     104.155 124.832  80.343  0.00  0.00    +0.000 A 
ATOM      4  C   UNL     1     103.695 124.818  81.648  0.00  0.00    +0.000 A 
ATOM      5  C   UNL     1     102.735 125.597  82.389  0.00  0.00    +0.000 C 
ATOM      6  C   UNL     1     102.027 126.623  81.893  0.00  0.00    +0.000 C 
ATOM      7  C   UNL     1     102.722 125.044  83.778  0.00  0.00    +0.000 C 
ATOM      8  O   UNL     1     102.051 125.414  84.724  0.00  0.00    +0.000 OA
ATOM      9  O   UNL     1     103.636 123.991  83.832  0.00  0.00    +0.000 OA
ATOM     10  C   UNL     1     104.181 123.899  82.558  0.00  0.00    +0.000 A 
ATOM     11  C   UNL     1     105.137 122.961  82.211  0.00  0.00    +0.000 A 
ENDROOT
BRANCH   6  12
ATOM     12  C   UNL     1     101.045 127.435  82.618  0.00  0.00    +0.000 A 
ATOM     13  C   UNL     1      99.693 127.075  82.573  0.00  0.00    +0.000 A 
ATOM     14  C   UNL     1      98.744 127.810  83.285  0.00  0.00    +0.000 A 
ATOM     15  C   UNL     1      99.140 128.904  84.053  0.00  0.00    +0.000 A 
ATOM     16  C   UNL     1     100.485 129.262  84.111  0.00  0.00    +0.000 A 
ATOM     17  C   UNL     1     101.437 128.528  83.399  0.00  0.00    +0.000 A 
ENDBRANCH   6  12
BRANCH   1  19
ATOM     18  C   UNL     1     106.482 120.797  81.403  0.00  0.00    +0.000 C 
ATOM     19  O   UNL     1     106.559 121.997  80.644  0.00  0.00    +0.000 OA
ENDBRANCH   1  19
TORSDOF 2
ENDMDL
