MODEL 1
REMARK VINA RESULT:      -5.4      0.000      0.000
REMARK  Name = *****
REMARK  2 active torsions:
REMARK  status: ('A' for Active; 'I' for Inactive)
REMARK    1  A    between atoms: C_2  and  C_3
REMARK    2  A    between atoms: C_11  and  C_12
REMARK                            x       y       z     vdW  Elec       q    Type
REMARK                         _______ _______ _______ _____ _____    ______ ____
ROOT
ATOM      1  C   UNL     1     103.451 125.219  81.081  0.00  0.00    +0.000 C 
ATOM      2  C   UNL     1     103.419 126.186  82.019  0.00  0.00    +0.000 C 
ATOM      3  N   UNL     1     104.561 126.682  82.628  0.00  0.00    +0.000 N 
ATOM      4  C   UNL     1     104.543 127.594  83.754  0.00  0.00    +0.000 C 
ATOM      5  C   UNL     1     103.494 128.677  83.515  0.00  0.00    +0.000 C 
ATOM      6  C   UNL     1     102.161 128.050  83.173  0.00  0.00    +0.000 A 
ATOM      7  C   UNL     1     100.978 128.704  83.561  0.00  0.00    +0.000 A 
ATOM      8  C   UNL     1      99.781 128.107  83.248  0.00  0.00    +0.000 A 
ATOM      9  O   UNL     1      98.547 128.585  83.556  0.00  0.00    +0.000 OA
ATOM     10  C   UNL     1      97.708 127.551  83.001  0.00  0.00    +0.000 C 
ATOM     11  O   UNL     1      98.452 126.484  82.376  0.00  0.00    +0.000 OA
ATOM     12  C   UNL     1      99.729 126.913  82.575  0.00  0.00    +0.000 A 
ATOM     13  C   UNL     1     100.869 126.251  82.163  0.00  0.00    +0.000 A 
ATOM     14  C   UNL     1     102.124 126.825  82.437  0.00  0.00    +0.000 A 
ATOM     15  H   UNL     1     105.436 126.399  82.275  0.00  0.00    +0.000 HD
ENDROOT
BRANCH   1  24
ATOM     16  C   UNL     1     105.310 123.509  81.330  0.00  0.00    +0.000 A 
ATOM     17  C   UNL     1     106.476 122.975  80.801  0.00  0.00    +0.000 A 
ATOM     18  O   UNL     1     107.235 121.967  81.315  0.00  0.00    +0.000 OA
ATOM     19  C   UNL     1     108.288 121.863  80.341  0.00  0.00    +0.000 C 
ATOM     20  O   UNL     1     108.154 122.807  79.262  0.00  0.00    +0.000 OA
ATOM     21  C   UNL     1     107.010 123.451  79.623  0.00  0.00    +0.000 A 
ATOM     22  C   UNL     1     106.425 124.473  78.908  0.00  0.00    +0.000 A 
ATOM     23  C   UNL     1     105.250 125.029  79.415  0.00  0.00    +0.000 A 
ATOM     24  C   UNL     1     104.683 124.556  80.621  0.00  0.00    +0.000 A 
BRANCH  16  26
ATOM     25  O   UNL     1     104.939 123.514  83.691  0.00  0.00    +0.000 OA
ATOM     26  C   UNL     1     104.740 122.997  82.599  0.00  0.00    +0.000 C 
ENDBRANCH  16  26
ENDBRANCH   1  24
TORSDOF 2
ENDMDL
