REMARK  Name = *****
REMARK  9 active torsions:
REMARK  status: ('A' for Active; 'I' for Inactive)
REMARK    1  A    between atoms: C_1  and  O_2
REMARK    2  A    between atoms: O_2  and  C_3
REMARK    3  A    between atoms: C_6  and  C_10
REMARK    4  A    between atoms: C_8  and  O_9
REMARK    5  A    between atoms: C_11  and  C_20
REMARK    6  A    between atoms: C_17  and  C_18
REMARK    7  A    between atoms: C_24  and  O_25
REMARK    8  A    between atoms: O_25  and  C_26
REMARK    9  A    between atoms: C_26  and  C_28
REMARK                            x       y       z     vdW  Elec       q    Type
REMARK                         _______ _______ _______ _____ _____    ______ ____
ROOT
ATOM      1  C   UNL     1       5.345   4.623   0.019  0.00  0.00    +0.000 C 
ATOM      2  C   UNL     1       5.310   5.619   0.935  0.00  0.00    +0.000 C 
ATOM      3  C   UNL     1       6.182   6.844   0.734  0.00  0.00    +0.000 C 
ATOM      4  N   UNL     1       6.248   7.321  -0.652  0.00  0.00    +0.000 N 
ATOM      5  C   UNL     1       7.425   8.155  -0.902  0.00  0.00    +0.000 C 
ATOM      6  C   UNL     1       7.628   8.058  -2.401  0.00  0.00    +0.000 C 
ATOM      7  C   UNL     1       7.306   6.600  -2.676  0.00  0.00    +0.000 C 
ATOM      8  C   UNL     1       6.152   6.289  -1.707  0.00  0.00    +0.000 C 
ATOM      9  C   UNL     1       4.805   6.532  -2.424  0.00  0.00    +0.000 C 
ATOM     10  C   UNL     1       6.215   4.826  -1.203  0.00  0.00    +0.000 C 
ATOM     11  H   UNL     1       5.396   7.876  -0.726  0.00  0.00    +0.000 HD
ENDROOT
BRANCH   1  15
ATOM     12  C   UNL     1       3.152   0.934   0.260  0.00  0.00    +0.000 A 
ATOM     13  C   UNL     1       2.928   1.825  -0.791  0.00  0.00    +0.000 A 
ATOM     14  C   UNL     1       3.644   3.027  -0.865  0.00  0.00    +0.000 A 
ATOM     15  C   UNL     1       4.594   3.357   0.108  0.00  0.00    +0.000 A 
ATOM     16  C   UNL     1       4.822   2.465   1.161  0.00  0.00    +0.000 A 
ATOM     17  C   UNL     1       4.102   1.270   1.234  0.00  0.00    +0.000 A 
BRANCH  12  19
ATOM     18  C   UNL     1       1.548  -0.633  -0.551  0.00  0.00    +0.000 C 
ATOM     19  O   UNL     1       2.507  -0.263   0.428  0.00  0.00    +0.000 OA
ENDBRANCH  12  19
BRANCH  17  20
ATOM     20  O   UNL     1       4.327   0.407   2.275  0.00  0.00    +0.000 OA
ATOM     21  H   UNL     1       3.847  -0.396   2.330  0.00  0.00    +0.000 HD
ENDBRANCH  17  20
ENDBRANCH   1  15
BRANCH   2  22
ATOM     22  C   UNL     1       4.501   5.592   2.168  0.00  0.00    +0.000 A 
ATOM     23  C   UNL     1       5.125   5.617   3.425  0.00  0.00    +0.000 A 
ATOM     24  C   UNL     1       4.366   5.581   4.598  0.00  0.00    +0.000 A 
ATOM     25  C   UNL     1       2.975   5.529   4.528  0.00  0.00    +0.000 A 
ATOM     26  C   UNL     1       2.357   5.533   3.279  0.00  0.00    +0.000 A 
ATOM     27  C   UNL     1       3.104   5.547   2.102  0.00  0.00    +0.000 A 
BRANCH  26  28
ATOM     28  O   UNL     1       0.967   5.433   3.165  0.00  0.00    +0.000 OA
BRANCH  28  29
ATOM     29  C   UNL     1       0.259   6.533   3.636  0.00  0.00    +0.000 C 
ATOM     30  O   UNL     1       0.719   7.552   4.134  0.00  0.00    +0.000 OA
ATOM     31  C   UNL     1      -1.206   6.280   3.437  0.00  0.00    +0.000 C 
ENDBRANCH  28  29
ENDBRANCH  26  28
ENDBRANCH   2  22
TORSDOF 6
