MODEL 1
REMARK VINA RESULT:      -5.1      0.000      0.000
REMARK  Name = *****
REMARK  4 active torsions:
REMARK  status: ('A' for Active; 'I' for Inactive)
REMARK    1  A    between atoms: C_1  and  O_2
REMARK    2  A    between atoms: O_2  and  C_3
REMARK    3  A    between atoms: C_11  and  C_12
REMARK    4  A    between atoms: C_17  and  O_18
REMARK                            x       y       z     vdW  Elec       q    Type
REMARK                         _______ _______ _______ _____ _____    ______ ____
ROOT
ATOM      1  C   UNL     1     102.586 126.325  81.761  0.00  0.00    +0.000 C 
ATOM      2  C   UNL     1     102.969 125.044  81.845  0.00  0.00    +0.000 C 
ATOM      3  C   UNL     1     104.114 124.639  81.039  0.00  0.00    +0.000 A 
ATOM      4  C   UNL     1     104.709 123.385  81.217  0.00  0.00    +0.000 A 
ATOM      5  C   UNL     1     105.789 122.999  80.418  0.00  0.00    +0.000 A 
ATOM      6  C   UNL     1     106.259 123.867  79.436  0.00  0.00    +0.000 A 
ATOM      7  C   UNL     1     105.672 125.113  79.244  0.00  0.00    +0.000 A 
ATOM      8  C   UNL     1     104.609 125.504  80.056  0.00  0.00    +0.000 A 
ATOM      9  O   UNL     1     104.066 126.735  79.804  0.00  0.00    +0.000 OA
ATOM     10  C   UNL     1     103.294 127.313  80.874  0.00  0.00    +0.000 C 
ENDROOT
BRANCH   1  19
ATOM     11  C   UNL     1     101.713 127.652  83.722  0.00  0.00    +0.000 A 
ATOM     12  C   UNL     1     100.637 128.126  84.482  0.00  0.00    +0.000 A 
ATOM     13  C   UNL     1      99.364 127.758  84.099  0.00  0.00    +0.000 A 
ATOM     14  O   UNL     1      98.212 128.131  84.721  0.00  0.00    +0.000 OA
ATOM     15  C   UNL     1      97.230 127.474  83.893  0.00  0.00    +0.000 C 
ATOM     16  O   UNL     1      97.808 126.719  82.808  0.00  0.00    +0.000 OA
ATOM     17  C   UNL     1      99.133 126.954  83.009  0.00  0.00    +0.000 A 
ATOM     18  C   UNL     1     100.163 126.472  82.234  0.00  0.00    +0.000 A 
ATOM     19  C   UNL     1     101.475 126.830  82.586  0.00  0.00    +0.000 A 
BRANCH  11  21
ATOM     20  C   UNL     1     103.391 129.322  83.989  0.00  0.00    +0.000 C 
ATOM     21  O   UNL     1     103.028 127.946  83.990  0.00  0.00    +0.000 OA
ENDBRANCH  11  21
ENDBRANCH   1  19
BRANCH   6  22
ATOM     22  O   UNL     1     107.306 123.526  78.631  0.00  0.00    +0.000 OA
ATOM     23  H   UNL     1     108.121 123.981  78.705  0.00  0.00    +0.000 HD
ENDBRANCH   6  22
TORSDOF 3
ENDMDL
