MODEL 1
REMARK VINA RESULT:      -5.1      0.000      0.000
REMARK  Name = *****
REMARK  7 active torsions:
REMARK  status: ('A' for Active; 'I' for Inactive)
REMARK    1  A    between atoms: C_1  and  O_2
REMARK    2  A    between atoms: O_2  and  C_3
REMARK    3  A    between atoms: C_6  and  C_7
REMARK    4  A    between atoms: C_8  and  C_9
REMARK    5  A    between atoms: C_11  and  O_12
REMARK    6  A    between atoms: C_20  and  O_21
REMARK    7  A    between atoms: O_21  and  C_22
REMARK                            x       y       z     vdW  Elec       q    Type
REMARK                         _______ _______ _______ _____ _____    ______ ____
ROOT
ATOM      1  C   UNL     1     102.474 125.953  82.015  0.00  0.00    +0.000 C 
ATOM      2  C   UNL     1     103.118 125.036  82.754  0.00  0.00    +0.000 C 
ENDROOT
BRANCH   2   3
ATOM      3  C   UNL     1     104.070 124.060  82.201  0.00  0.00    +0.000 A 
ATOM      4  C   UNL     1     104.424 124.162  80.836  0.00  0.00    +0.000 A 
ATOM      5  C   UNL     1     105.343 123.273  80.271  0.00  0.00    +0.000 A 
ATOM      6  C   UNL     1     105.904 122.304  81.075  0.00  0.00    +0.000 A 
ATOM      7  O   UNL     1     106.812 121.361  80.704  0.00  0.00    +0.000 OA
ATOM      8  C   UNL     1     107.013 120.668  81.949  0.00  0.00    +0.000 C 
ATOM      9  O   UNL     1     106.233 121.204  83.038  0.00  0.00    +0.000 OA
ATOM     10  C   UNL     1     105.573 122.212  82.406  0.00  0.00    +0.000 A 
ATOM     11  C   UNL     1     104.671 123.072  82.998  0.00  0.00    +0.000 A 
BRANCH   5  12
ATOM     12  O   UNL     1     105.690 123.350  78.956  0.00  0.00    +0.000 OA
ATOM     13  H   UNL     1     105.061 123.147  78.292  0.00  0.00    +0.000 HD
ENDBRANCH   5  12
ENDBRANCH   2   3
BRANCH   1  17
ATOM     14  C   UNL     1      99.625 128.782  83.558  0.00  0.00    +0.000 A 
ATOM     15  C   UNL     1     100.999 128.999  83.724  0.00  0.00    +0.000 A 
ATOM     16  C   UNL     1     101.938 128.085  83.227  0.00  0.00    +0.000 A 
ATOM     17  C   UNL     1     101.522 126.925  82.569  0.00  0.00    +0.000 A 
ATOM     18  C   UNL     1     100.153 126.717  82.383  0.00  0.00    +0.000 A 
ATOM     19  C   UNL     1      99.207 127.640  82.855  0.00  0.00    +0.000 A 
BRANCH  14  21
ATOM     20  C   UNL     1      99.069 130.688  84.892  0.00  0.00    +0.000 C 
ATOM     21  O   UNL     1      98.659 129.612  84.060  0.00  0.00    +0.000 OA
ENDBRANCH  14  21
BRANCH  19  22
ATOM     22  O   UNL     1      97.909 127.266  82.605  0.00  0.00    +0.000 OA
ATOM     23  C   UNL     1      97.352 126.321  83.512  0.00  0.00    +0.000 C 
ENDBRANCH  19  22
ENDBRANCH   1  17
TORSDOF 5
ENDMDL
