REMARK  Name = *****
REMARK  6 active torsions:
REMARK  status: ('A' for Active; 'I' for Inactive)
REMARK    1  A    between atoms: C_1  and  O_2
REMARK    2  A    between atoms: O_2  and  C_3
REMARK    3  A    between atoms: C_21  and  O_22
REMARK    4  A    between atoms: O_22  and  C_23
REMARK    5  A    between atoms: C_24  and  O_25
REMARK    6  A    between atoms: O_25  and  C_26
REMARK                            x       y       z     vdW  Elec       q    Type
REMARK                         _______ _______ _______ _____ _____    ______ ____
ROOT
ATOM      1  C   UNL     1       2.934  -1.243   0.853  0.00  0.00    +0.000 C 
ATOM      2  N   UNL     1       2.275  -2.553   0.982  0.00  0.00    +0.000 N 
ATOM      3  C   UNL     1       1.075  -2.586   1.815  0.00  0.00    +0.000 C 
ATOM      4  C   UNL     1      -0.131  -3.029   0.990  0.00  0.00    +0.000 C 
ATOM      5  C   UNL     1       0.162  -4.355   0.329  0.00  0.00    +0.000 A 
ATOM      6  C   UNL     1      -0.874  -5.287   0.143  0.00  0.00    +0.000 A 
ATOM      7  C   UNL     1      -0.560  -6.482  -0.460  0.00  0.00    +0.000 A 
ATOM      8  O   UNL     1      -1.428  -7.497  -0.712  0.00  0.00    +0.000 OA
ATOM      9  C   UNL     1      -0.550  -8.453  -1.341  0.00  0.00    +0.000 C 
ATOM     10  O   UNL     1       0.817  -8.003  -1.434  0.00  0.00    +0.000 OA
ATOM     11  C   UNL     1       0.718  -6.768  -0.871  0.00  0.00    +0.000 A 
ATOM     12  C   UNL     1       1.757  -5.872  -0.715  0.00  0.00    +0.000 A 
ATOM     13  C   UNL     1       1.488  -4.624  -0.124  0.00  0.00    +0.000 A 
ATOM     14  C   UNL     1       2.535  -3.571   0.054  0.00  0.00    +0.000 C 
ATOM     15  C   UNL     1       3.663  -3.559  -0.681  0.00  0.00    +0.000 C 
ATOM     16  C   UNL     1       4.668  -2.514  -0.456  0.00  0.00    +0.000 A 
ATOM     17  C   UNL     1       5.943  -2.643  -1.006  0.00  0.00    +0.000 A 
ATOM     18  C   UNL     1       6.911  -1.664  -0.778  0.00  0.00    +0.000 A 
ATOM     19  C   UNL     1       6.626  -0.543   0.012  0.00  0.00    +0.000 A 
ATOM     20  C   UNL     1       5.340  -0.410   0.579  0.00  0.00    +0.000 A 
ATOM     21  C   UNL     1       4.351  -1.388   0.325  0.00  0.00    +0.000 A 
ENDROOT
BRANCH   1  23
ATOM     22  C   UNL     1       1.720   0.763   0.466  0.00  0.00    +0.000 C 
ATOM     23  O   UNL     1       2.176  -0.463  -0.076  0.00  0.00    +0.000 OA
ENDBRANCH   1  23
BRANCH  19  24
ATOM     24  O   UNL     1       7.530   0.466   0.224  0.00  0.00    +0.000 OA
ATOM     25  C   UNL     1       8.885   0.232  -0.140  0.00  0.00    +0.000 C 
ENDBRANCH  19  24
BRANCH  20  26
ATOM     26  O   UNL     1       4.919   0.644   1.356  0.00  0.00    +0.000 OA
ATOM     27  C   UNL     1       5.884   1.267   2.194  0.00  0.00    +0.000 C 
ENDBRANCH  20  26
TORSDOF 3
