REMARK  Name = *****
REMARK  14 active torsions:
REMARK  status: ('A' for Active; 'I' for Inactive)
REMARK    1  A    between atoms: C_1  and  O_2
REMARK    2  A    between atoms: O_2  and  C_3
REMARK    3  A    between atoms: C_5  and  C_6
REMARK    4  A    between atoms: C_7  and  C_8
REMARK    5  A    between atoms: C_10  and  C_20
REMARK    6  A    between atoms: C_12  and  O_13
REMARK    7  A    between atoms: O_13  and  C_14
REMARK    8  A    between atoms: C_15  and  O_16
REMARK    9  A    between atoms: O_16  and  C_17
REMARK   10  A    between atoms: C_17  and  C_19
REMARK   11  A    between atoms: C_20  and  C_22
REMARK   12  A    between atoms: C_25  and  O_26
REMARK   13  A    between atoms: O_26  and  C_27
REMARK   14  A    between atoms: C_27  and  C_29
REMARK                            x       y       z     vdW  Elec       q    Type
REMARK                         _______ _______ _______ _____ _____    ______ ____
ROOT
ATOM      1  C   UNL     1       1.493  -6.450  -0.232  0.00  0.00    +0.000 A 
ATOM      2  C   UNL     1       1.819  -7.563   0.551  0.00  0.00    +0.000 A 
ATOM      3  C   UNL     1       1.474  -8.853   0.124  0.00  0.00    +0.000 A 
ATOM      4  C   UNL     1       0.796  -9.033  -1.095  0.00  0.00    +0.000 A 
ATOM      5  C   UNL     1       0.474  -7.938  -1.898  0.00  0.00    +0.000 A 
ATOM      6  C   UNL     1       0.842  -6.657  -1.460  0.00  0.00    +0.000 A 
ENDROOT
BRANCH   3   7
ATOM      7  C   UNL     1       1.793 -10.065   0.936  0.00  0.00    +0.000 C 
ATOM      8  O   UNL     1       1.365 -11.164   0.586  0.00  0.00    +0.000 OA
ATOM      9  C   UNL     1       2.629  -9.916   2.180  0.00  0.00    +0.000 C 
ENDBRANCH   3   7
BRANCH   1  11
ATOM     10  C   UNL     1       0.958  -4.174   0.531  0.00  0.00    +0.000 C 
ATOM     11  C   UNL     1       1.871  -5.117   0.251  0.00  0.00    +0.000 C 
BRANCH  10  14
ATOM     12  C   UNL     1       0.856  -0.963   2.498  0.00  0.00    +0.000 A 
ATOM     13  C   UNL     1       0.570  -2.254   2.046  0.00  0.00    +0.000 A 
ATOM     14  C   UNL     1       1.311  -2.828   0.998  0.00  0.00    +0.000 A 
ATOM     15  C   UNL     1       2.325  -2.084   0.378  0.00  0.00    +0.000 A 
ATOM     16  C   UNL     1       2.615  -0.792   0.812  0.00  0.00    +0.000 A 
ATOM     17  C   UNL     1       1.890  -0.254   1.874  0.00  0.00    +0.000 A 
BRANCH  12  19
ATOM     18  C   UNL     1      -0.731  -1.067   4.269  0.00  0.00    +0.000 C 
ATOM     19  O   UNL     1       0.193  -0.306   3.501  0.00  0.00    +0.000 OA
ENDBRANCH  12  19
BRANCH  17  20
ATOM     20  O   UNL     1       2.171   1.058   2.267  0.00  0.00    +0.000 OA
BRANCH  20  21
ATOM     21  C   UNL     1       3.065   1.111   3.327  0.00  0.00    +0.000 C 
ATOM     22  O   UNL     1       3.657   0.174   3.847  0.00  0.00    +0.000 OA
ATOM     23  C   UNL     1       3.207   2.539   3.765  0.00  0.00    +0.000 C 
ENDBRANCH  20  21
ENDBRANCH  17  20
ENDBRANCH  10  14
ENDBRANCH   1  11
BRANCH   5  24
ATOM     24  O   UNL     1      -0.183  -7.999  -3.098  0.00  0.00    +0.000 OA
ATOM     25  C   UNL     1      -0.513  -9.291  -3.593  0.00  0.00    +0.000 C 
ENDBRANCH   5  24
BRANCH   6  26
ATOM     26  O   UNL     1       0.506  -5.559  -2.265  0.00  0.00    +0.000 OA
BRANCH  26  27
ATOM     27  C   UNL     1       1.548  -5.186  -3.102  0.00  0.00    +0.000 C 
ATOM     28  O   UNL     1       2.669  -5.676  -3.152  0.00  0.00    +0.000 OA
ATOM     29  C   UNL     1       1.094  -4.035  -3.949  0.00  0.00    +0.000 C 
ENDBRANCH  26  27
ENDBRANCH   6  26
TORSDOF 9
