MODEL 1
REMARK VINA RESULT:      -5.0      0.000      0.000
REMARK  Name = *****
REMARK  10 active torsions:
REMARK  status: ('A' for Active; 'I' for Inactive)
REMARK    1  A    between atoms: C_1  and  O_2
REMARK    2  A    between atoms: O_2  and  C_3
REMARK    3  A    between atoms: C_6  and  C_11
REMARK    4  A    between atoms: C_8  and  O_9
REMARK    5  A    between atoms: O_9  and  C_10
REMARK    6  A    between atoms: C_12  and  C_20
REMARK    7  A    between atoms: C_23  and  O_24
REMARK    8  A    between atoms: O_24  and  C_25
REMARK    9  A    between atoms: C_26  and  O_27
REMARK   10  A    between atoms: O_27  and  C_28
REMARK                            x       y       z     vdW  Elec       q    Type
REMARK                         _______ _______ _______ _____ _____    ______ ____
ROOT
ATOM      1  C   UNL     1      88.532  67.032  86.736  0.00  0.00    +0.000 C 
ATOM      2  C   UNL     1      89.494  67.259  85.813  0.00  0.00    +0.000 C 
ATOM      3  C   UNL     1      90.020  68.655  85.529  0.00  0.00    +0.000 C 
ATOM      4  C   UNL     1      89.773  69.130  84.098  0.00  0.00    +0.000 C 
ATOM      5  C   UNL     1      90.049  70.616  84.192  0.00  0.00    +0.000 C 
ATOM      6  C   UNL     1      89.618  70.996  85.602  0.00  0.00    +0.000 C 
ATOM      7  N   UNL     1      89.468  69.747  86.370  0.00  0.00    +0.000 N 
ATOM      8  C   UNL     1      88.061  69.508  86.719  0.00  0.00    +0.000 C 
ATOM      9  C   UNL     1      87.885  68.182  87.467  0.00  0.00    +0.000 C 
ATOM     10  H   UNL     1      89.972  69.799  87.254  0.00  0.00    +0.000 HD
ENDROOT
BRANCH   1  14
ATOM     11  C   UNL     1      87.109  63.128  87.826  0.00  0.00    +0.000 A 
ATOM     12  C   UNL     1      86.506  63.855  86.788  0.00  0.00    +0.000 A 
ATOM     13  C   UNL     1      86.971  65.125  86.432  0.00  0.00    +0.000 A 
ATOM     14  C   UNL     1      88.048  65.694  87.109  0.00  0.00    +0.000 A 
ATOM     15  C   UNL     1      88.651  64.980  88.146  0.00  0.00    +0.000 A 
ATOM     16  C   UNL     1      88.200  63.701  88.508  0.00  0.00    +0.000 A 
BRANCH  11  18
ATOM     17  C   UNL     1      85.667  61.849  89.245  0.00  0.00    +0.000 C 
ATOM     18  O   UNL     1      86.663  61.898  88.230  0.00  0.00    +0.000 OA
ENDBRANCH  11  18
BRANCH  16  19
ATOM     19  O   UNL     1      88.915  63.175  89.554  0.00  0.00    +0.000 OA
ATOM     20  C   UNL     1      89.056  63.956  90.730  0.00  0.00    +0.000 C 
ENDBRANCH  16  19
ENDBRANCH   1  14
BRANCH   2  21
ATOM     21  C   UNL     1      90.140  66.167  85.058  0.00  0.00    +0.000 A 
ATOM     22  C   UNL     1      91.347  65.624  85.496  0.00  0.00    +0.000 A 
ATOM     23  C   UNL     1      91.958  64.590  84.782  0.00  0.00    +0.000 A 
ATOM     24  C   UNL     1      91.377  64.074  83.615  0.00  0.00    +0.000 A 
ATOM     25  C   UNL     1      90.154  64.612  83.174  0.00  0.00    +0.000 A 
ATOM     26  C   UNL     1      89.555  65.659  83.895  0.00  0.00    +0.000 A 
BRANCH  24  27
ATOM     27  O   UNL     1      91.956  63.080  82.870  0.00  0.00    +0.000 OA
ATOM     28  C   UNL     1      91.851  61.741  83.337  0.00  0.00    +0.000 C 
ENDBRANCH  24  27
BRANCH  25  29
ATOM     29  O   UNL     1      89.422  64.269  82.065  0.00  0.00    +0.000 OA
ATOM     30  C   UNL     1      88.423  63.268  82.200  0.00  0.00    +0.000 C 
ENDBRANCH  25  29
ENDBRANCH   2  21
TORSDOF 6
ENDMDL
