REMARK  Name = *****
REMARK  7 active torsions:
REMARK  status: ('A' for Active; 'I' for Inactive)
REMARK    1  A    between atoms: C_1  and  O_2
REMARK    2  A    between atoms: O_2  and  C_3
REMARK    3  A    between atoms: N_9  and  C_10
REMARK    4  A    between atoms: C_16  and  O_17
REMARK    5  A    between atoms: O_17  and  C_18
REMARK    6  A    between atoms: C_22  and  O_23
REMARK    7  A    between atoms: O_23  and  C_24
REMARK                            x       y       z     vdW  Elec       q    Type
REMARK                         _______ _______ _______ _____ _____    ______ ____
ROOT
ATOM      1  C   UNL     1       2.710   0.925   0.820  0.00  0.00    +0.000 A 
ATOM      2  C   UNL     1       2.331   0.878   2.155  0.00  0.00    +0.000 A 
ATOM      3  C   UNL     1       3.229   1.263   3.150  0.00  0.00    +0.000 A 
ATOM      4  C   UNL     1       4.536   1.707   2.855  0.00  0.00    +0.000 A 
ATOM      5  C   UNL     1       5.303   2.121   4.036  0.00  0.00    +0.000 C 
ATOM      6  C   UNL     1       6.628   2.231   4.102  0.00  0.00    +0.000 C 
ATOM      7  N   UNL     1       7.376   2.433   5.250  0.00  0.00    +0.000 N 
ATOM      8  C   UNL     1       6.851   2.618   6.581  0.00  0.00    +0.000 C 
ATOM      9  C   UNL     1       8.734   2.333   4.995  0.00  0.00    +0.000 C 
ATOM     10  O   UNL     1       9.674   2.409   5.762  0.00  0.00    +0.000 OA
ATOM     11  C   UNL     1       8.844   2.111   3.546  0.00  0.00    +0.000 A 
ATOM     12  C   UNL     1       9.993   2.040   2.794  0.00  0.00    +0.000 A 
ATOM     13  C   UNL     1       9.824   1.962   1.418  0.00  0.00    +0.000 A 
ATOM     14  C   UNL     1       8.534   1.967   0.828  0.00  0.00    +0.000 A 
ATOM     15  C   UNL     1       7.364   2.023   1.626  0.00  0.00    +0.000 A 
ATOM     16  O   UNL     1       6.149   2.208   1.020  0.00  0.00    +0.000 OA
ATOM     17  C   UNL     1       4.949   1.726   1.514  0.00  0.00    +0.000 A 
ATOM     18  C   UNL     1       4.027   1.321   0.505  0.00  0.00    +0.000 A 
ATOM     19  C   UNL     1       7.554   2.075   2.996  0.00  0.00    +0.000 A 
ENDROOT
BRANCH   1  21
ATOM     20  C   UNL     1       0.501   0.378   0.079  0.00  0.00    +0.000 C 
ATOM     21  O   UNL     1       1.868   0.630  -0.219  0.00  0.00    +0.000 OA
ENDBRANCH   1  21
BRANCH  14  22
ATOM     22  O   UNL     1       8.634   1.977  -0.541  0.00  0.00    +0.000 OA
ATOM     23  C   UNL     1       7.505   1.579  -1.296  0.00  0.00    +0.000 C 
ENDBRANCH  14  22
BRANCH  18  24
ATOM     24  O   UNL     1       4.462   1.424  -0.803  0.00  0.00    +0.000 OA
ATOM     25  C   UNL     1       4.222   0.261  -1.596  0.00  0.00    +0.000 C 
ENDBRANCH  18  24
TORSDOF 3
