REMARK  Name = *****
REMARK  4 active torsions:
REMARK  status: ('A' for Active; 'I' for Inactive)
REMARK    1  A    between atoms: C_1  and  O_2
REMARK    2  A    between atoms: O_2  and  C_3
REMARK    3  A    between atoms: C_6  and  C_7
REMARK    4  A    between atoms: C_8  and  C_9
REMARK                            x       y       z     vdW  Elec       q    Type
REMARK                         _______ _______ _______ _____ _____    ______ ____
ROOT
ATOM      1  C   UNL     1       5.313   3.160   3.683  0.00  0.00    +0.000 C 
ATOM      2  C   UNL     1       4.926   3.396   4.948  0.00  0.00    +0.000 C 
ENDROOT
BRANCH   2   3
ATOM      3  C   UNL     1       5.687   4.228   5.891  0.00  0.00    +0.000 A 
ATOM      4  C   UNL     1       4.974   5.054   6.790  0.00  0.00    +0.000 A 
ATOM      5  C   UNL     1       5.643   5.851   7.727  0.00  0.00    +0.000 A 
ATOM      6  C   UNL     1       7.018   5.793   7.749  0.00  0.00    +0.000 A 
ATOM      7  O   UNL     1       7.831   6.489   8.587  0.00  0.00    +0.000 OA
ATOM      8  C   UNL     1       9.127   6.024   8.157  0.00  0.00    +0.000 C 
ATOM      9  O   UNL     1       9.065   5.063   7.083  0.00  0.00    +0.000 OA
ATOM     10  C   UNL     1       7.721   4.981   6.890  0.00  0.00    +0.000 A 
ATOM     11  C   UNL     1       7.088   4.186   5.957  0.00  0.00    +0.000 A 
ENDBRANCH   2   3
BRANCH   1  15
ATOM     12  C   UNL     1       3.176   0.778   0.826  0.00  0.00    +0.000 A 
ATOM     13  C   UNL     1       2.471   1.579   1.723  0.00  0.00    +0.000 A 
ATOM     14  C   UNL     1       3.158   2.355   2.666  0.00  0.00    +0.000 A 
ATOM     15  C   UNL     1       4.556   2.332   2.734  0.00  0.00    +0.000 A 
ATOM     16  C   UNL     1       5.257   1.537   1.821  0.00  0.00    +0.000 A 
ATOM     17  C   UNL     1       4.571   0.763   0.881  0.00  0.00    +0.000 A 
BRANCH  12  19
ATOM     18  C   UNL     1       1.215  -0.026  -0.249  0.00  0.00    +0.000 C 
ATOM     19  O   UNL     1       2.633  -0.021  -0.141  0.00  0.00    +0.000 OA
ENDBRANCH  12  19
ENDBRANCH   1  15
TORSDOF 3
