REMARK  Name = *****
REMARK  6 active torsions:
REMARK  status: ('A' for Active; 'I' for Inactive)
REMARK    1  A    between atoms: C_1  and  O_2
REMARK    2  A    between atoms: O_2  and  C_3
REMARK    3  A    between atoms: C_7  and  O_8
REMARK    4  A    between atoms: C_13  and  C_14
REMARK    5  A    between atoms: C_22  and  O_23
REMARK    6  A    between atoms: O_23  and  C_24
REMARK                            x       y       z     vdW  Elec       q    Type
REMARK                         _______ _______ _______ _____ _____    ______ ____
ROOT
ATOM      1  C   UNL     1       3.177  -0.283  -1.569  0.00  0.00    +0.000 C 
ATOM      2  O   UNL     1       4.264  -1.108  -2.029  0.00  0.00    +0.000 OA
ATOM      3  C   UNL     1       5.525  -0.581  -2.026  0.00  0.00    +0.000 A 
ATOM      4  C   UNL     1       6.548  -1.458  -2.393  0.00  0.00    +0.000 A 
ATOM      5  C   UNL     1       7.862  -1.005  -2.417  0.00  0.00    +0.000 A 
ATOM      6  C   UNL     1       8.168   0.309  -2.083  0.00  0.00    +0.000 A 
ATOM      7  C   UNL     1       7.145   1.186  -1.719  0.00  0.00    +0.000 A 
ATOM      8  C   UNL     1       5.816   0.744  -1.689  0.00  0.00    +0.000 A 
ATOM      9  C   UNL     1       4.743   1.660  -1.335  0.00  0.00    +0.000 C 
ATOM     10  C   UNL     1       3.495   1.172  -1.285  0.00  0.00    +0.000 C 
ENDROOT
BRANCH  10  11
ATOM     11  C   UNL     1       2.370   2.081  -0.993  0.00  0.00    +0.000 A 
ATOM     12  C   UNL     1       2.252   2.631   0.294  0.00  0.00    +0.000 A 
ATOM     13  C   UNL     1       1.173   3.450   0.557  0.00  0.00    +0.000 A 
ATOM     14  O   UNL     1       0.905   4.049   1.749  0.00  0.00    +0.000 OA
ATOM     15  C   UNL     1      -0.331   4.728   1.441  0.00  0.00    +0.000 C 
ATOM     16  O   UNL     1      -0.756   4.551   0.073  0.00  0.00    +0.000 OA
ATOM     17  C   UNL     1       0.226   3.737  -0.397  0.00  0.00    +0.000 A 
ATOM     18  C   UNL     1       0.307   3.229  -1.674  0.00  0.00    +0.000 A 
ATOM     19  C   UNL     1       1.402   2.412  -1.974  0.00  0.00    +0.000 A 
BRANCH  19  20
ATOM     20  O   UNL     1       1.476   1.890  -3.243  0.00  0.00    +0.000 OA
ATOM     21  C   UNL     1       2.223   2.761  -4.094  0.00  0.00    +0.000 C 
ENDBRANCH  19  20
ENDBRANCH  10  11
BRANCH   1  23
ATOM     22  C   UNL     1       3.366  -1.185   0.641  0.00  0.00    +0.000 C 
ATOM     23  O   UNL     1       2.506  -0.884  -0.448  0.00  0.00    +0.000 OA
ENDBRANCH   1  23
BRANCH   5  24
ATOM     24  O   UNL     1       8.892  -1.826  -2.769  0.00  0.00    +0.000 OA
ATOM     25  H   UNL     1       8.721  -2.718  -3.001  0.00  0.00    +0.000 HD
ENDBRANCH   5  24
TORSDOF 4
