MODEL 1
REMARK VINA RESULT:      -4.8      0.000      0.000
REMARK  Name = *****
REMARK  3 active torsions:
REMARK  status: ('A' for Active; 'I' for Inactive)
REMARK    1  A    between atoms: C_2  and  C_3
REMARK    2  A    between atoms: C_3  and  C_11
REMARK    3  A    between atoms: C_4  and  C_5
REMARK                            x       y       z     vdW  Elec       q    Type
REMARK                         _______ _______ _______ _____ _____    ______ ____
ROOT
ATOM      1  C   UNL     1     102.882 125.962  81.742  0.00  0.00    +0.000 C 
ATOM      2  C   UNL     1     101.886 125.951  82.648  0.00  0.00    +0.000 C 
ENDROOT
BRANCH   2   3
ATOM      3  C   UNL     1     100.926 127.032  82.877  0.00  0.00    +0.000 A 
ATOM      4  C   UNL     1     101.321 128.191  83.554  0.00  0.00    +0.000 A 
ATOM      5  C   UNL     1     100.400 129.214  83.787  0.00  0.00    +0.000 A 
ATOM      6  C   UNL     1      99.084 129.082  83.345  0.00  0.00    +0.000 A 
ATOM      7  C   UNL     1      98.687 127.929  82.668  0.00  0.00    +0.000 A 
ATOM      8  C   UNL     1      99.606 126.905  82.433  0.00  0.00    +0.000 A 
ENDBRANCH   2   3
BRANCH   1   9
ATOM      9  C   UNL     1     103.747 124.775  81.652  0.00  0.00    +0.000 A 
ATOM     10  C   UNL     1     104.290 124.391  80.419  0.00  0.00    +0.000 A 
ATOM     11  C   UNL     1     105.091 123.252  80.328  0.00  0.00    +0.000 A 
ATOM     12  C   UNL     1     105.353 122.489  81.466  0.00  0.00    +0.000 A 
ATOM     13  C   UNL     1     104.817 122.867  82.696  0.00  0.00    +0.000 A 
ATOM     14  C   UNL     1     104.015 124.006  82.790  0.00  0.00    +0.000 A 
ENDBRANCH   1   9
BRANCH   1  16
ATOM     15  O   UNL     1     103.909 128.032  81.112  0.00  0.00    +0.000 OA
ATOM     16  C   UNL     1     103.122 127.131  80.844  0.00  0.00    +0.000 C 
ENDBRANCH   1  16
TORSDOF 3
ENDMDL
