MODEL 1
REMARK VINA RESULT:      -4.6      0.000      0.000
REMARK  Name = *****
REMARK  14 active torsions:
REMARK  status: ('A' for Active; 'I' for Inactive)
REMARK    1  A    between atoms: C_1  and  O_2
REMARK    2  A    between atoms: O_2  and  C_3
REMARK    3  A    between atoms: C_5  and  C_6
REMARK    4  A    between atoms: C_7  and  C_8
REMARK    5  A    between atoms: C_10  and  C_20
REMARK    6  A    between atoms: C_12  and  O_13
REMARK    7  A    between atoms: O_13  and  C_14
REMARK    8  A    between atoms: C_15  and  O_16
REMARK    9  A    between atoms: O_16  and  C_17
REMARK   10  A    between atoms: C_17  and  C_19
REMARK   11  A    between atoms: C_20  and  C_22
REMARK   12  A    between atoms: C_25  and  O_26
REMARK   13  A    between atoms: O_26  and  C_27
REMARK   14  A    between atoms: C_27  and  C_29
REMARK                            x       y       z     vdW  Elec       q    Type
REMARK                         _______ _______ _______ _____ _____    ______ ____
ROOT
ATOM      1  C   UNL     1     104.399 124.282  80.975  0.00  0.00    +0.000 A 
ATOM      2  C   UNL     1     104.356 123.027  81.593  0.00  0.00    +0.000 A 
ATOM      3  C   UNL     1     105.358 122.080  81.340  0.00  0.00    +0.000 A 
ATOM      4  C   UNL     1     106.412 122.387  80.461  0.00  0.00    +0.000 A 
ATOM      5  C   UNL     1     106.482 123.638  79.845  0.00  0.00    +0.000 A 
ATOM      6  C   UNL     1     105.478 124.577  80.124  0.00  0.00    +0.000 A 
ENDROOT
BRANCH   3   7
ATOM      7  C   UNL     1     105.341 120.726  81.970  0.00  0.00    +0.000 C 
ATOM      8  O   UNL     1     106.162 119.879  81.618  0.00  0.00    +0.000 OA
ATOM      9  C   UNL     1     104.308 120.418  83.021  0.00  0.00    +0.000 C 
ENDBRANCH   3   7
BRANCH   1  11
ATOM     10  C   UNL     1     103.156 125.769  82.489  0.00  0.00    +0.000 C 
ATOM     11  C   UNL     1     103.331 125.245  81.265  0.00  0.00    +0.000 C 
BRANCH  10  14
ATOM     12  C   UNL     1      99.736 127.343  82.626  0.00  0.00    +0.000 A 
ATOM     13  C   UNL     1     100.777 126.448  82.367  0.00  0.00    +0.000 A 
ATOM     14  C   UNL     1     102.084 126.719  82.809  0.00  0.00    +0.000 A 
ATOM     15  C   UNL     1     102.351 127.917  83.487  0.00  0.00    +0.000 A 
ATOM     16  C   UNL     1     101.325 128.824  83.745  0.00  0.00    +0.000 A 
ATOM     17  C   UNL     1     100.030 128.520  83.326  0.00  0.00    +0.000 A 
BRANCH  12  19
ATOM     18  C   UNL     1      97.611 126.359  83.050  0.00  0.00    +0.000 C 
ATOM     19  O   UNL     1      98.433 127.183  82.234  0.00  0.00    +0.000 OA
ENDBRANCH  12  19
BRANCH  17  20
ATOM     20  O   UNL     1      99.024 129.462  83.560  0.00  0.00    +0.000 OA
BRANCH  20  21
ATOM     21  C   UNL     1      98.703 129.568  84.906  0.00  0.00    +0.000 C 
ATOM     22  O   UNL     1      98.392 128.662  85.669  0.00  0.00    +0.000 OA
ATOM     23  C   UNL     1      98.793 131.010  85.309  0.00  0.00    +0.000 C 
ENDBRANCH  20  21
ENDBRANCH  17  20
ENDBRANCH  10  14
ENDBRANCH   1  11
BRANCH   5  24
ATOM     24  O   UNL     1     107.459 124.041  78.975  0.00  0.00    +0.000 OA
ATOM     25  C   UNL     1     108.801 124.006  79.444  0.00  0.00    +0.000 C 
ENDBRANCH   5  24
BRANCH   6  26
ATOM     26  O   UNL     1     105.546 125.828  79.493  0.00  0.00    +0.000 OA
BRANCH  26  27
ATOM     27  C   UNL     1     106.088 126.801  80.321  0.00  0.00    +0.000 C 
ATOM     28  O   UNL     1     107.096 126.709  81.010  0.00  0.00    +0.000 OA
ATOM     29  C   UNL     1     105.213 128.018  80.267  0.00  0.00    +0.000 C 
ENDBRANCH  26  27
ENDBRANCH   6  26
TORSDOF 9
ENDMDL
