REMARK  Name = *****
REMARK  14 active torsions:
REMARK  status: ('A' for Active; 'I' for Inactive)
REMARK    1  A    between atoms: C_1  and  O_2
REMARK    2  A    between atoms: O_2  and  C_3
REMARK    3  A    between atoms: C_5  and  C_6
REMARK    4  A    between atoms: C_7  and  C_8
REMARK    5  A    between atoms: C_10  and  C_20
REMARK    6  A    between atoms: C_12  and  O_13
REMARK    7  A    between atoms: O_13  and  C_14
REMARK    8  A    between atoms: C_15  and  O_16
REMARK    9  A    between atoms: O_16  and  C_17
REMARK   10  A    between atoms: C_17  and  C_19
REMARK   11  A    between atoms: C_20  and  C_22
REMARK   12  A    between atoms: C_25  and  O_26
REMARK   13  A    between atoms: O_26  and  C_27
REMARK   14  A    between atoms: C_27  and  C_29
REMARK                            x       y       z     vdW  Elec       q    Type
REMARK                         _______ _______ _______ _____ _____    ______ ____
ROOT
ATOM      1  C   UNL     1       1.472  -5.993  -2.557  0.00  0.00    +0.000 A 
ATOM      2  C   UNL     1       1.741  -7.313  -2.177  0.00  0.00    +0.000 A 
ATOM      3  C   UNL     1       1.418  -8.377  -3.031  0.00  0.00    +0.000 A 
ATOM      4  C   UNL     1       0.822  -8.121  -4.278  0.00  0.00    +0.000 A 
ATOM      5  C   UNL     1       0.560  -6.812  -4.685  0.00  0.00    +0.000 A 
ATOM      6  C   UNL     1       0.904  -5.761  -3.821  0.00  0.00    +0.000 A 
ENDROOT
BRANCH   3   7
ATOM      7  C   UNL     1       1.677  -9.800  -2.654  0.00  0.00    +0.000 C 
ATOM      8  O   UNL     1       1.288 -10.706  -3.388  0.00  0.00    +0.000 OA
ATOM      9  C   UNL     1       2.409 -10.097  -1.371  0.00  0.00    +0.000 C 
ENDBRANCH   3   7
BRANCH   1  11
ATOM     10  C   UNL     1       0.940  -4.028  -1.166  0.00  0.00    +0.000 C 
ATOM     11  C   UNL     1       1.835  -4.914  -1.630  0.00  0.00    +0.000 C 
BRANCH  10  14
ATOM     12  C   UNL     1       0.681  -1.601   1.704  0.00  0.00    +0.000 A 
ATOM     13  C   UNL     1       0.401  -2.640   0.811  0.00  0.00    +0.000 A 
ATOM     14  C   UNL     1       1.286  -2.943  -0.238  0.00  0.00    +0.000 A 
ATOM     15  C   UNL     1       2.443  -2.170  -0.412  0.00  0.00    +0.000 A 
ATOM     16  C   UNL     1       2.731  -1.126   0.466  0.00  0.00    +0.000 A 
ATOM     17  C   UNL     1       1.859  -0.865   1.521  0.00  0.00    +0.000 A 
BRANCH  12  19
ATOM     18  C   UNL     1      -1.184  -2.087   3.099  0.00  0.00    +0.000 C 
ATOM     19  O   UNL     1      -0.117  -1.215   2.748  0.00  0.00    +0.000 OA
ENDBRANCH  12  19
BRANCH  17  20
ATOM     20  O   UNL     1       2.153   0.208   2.366  0.00  0.00    +0.000 OA
BRANCH  20  21
ATOM     21  C   UNL     1       2.747  -0.202   3.552  0.00  0.00    +0.000 C 
ATOM     22  O   UNL     1       3.128  -1.329   3.841  0.00  0.00    +0.000 OA
ATOM     23  C   UNL     1       2.903   0.991   4.447  0.00  0.00    +0.000 C 
ENDBRANCH  20  21
ENDBRANCH  17  20
ENDBRANCH  10  14
ENDBRANCH   1  11
BRANCH   5  24
ATOM     24  O   UNL     1      -0.016  -6.452  -5.874  0.00  0.00    +0.000 OA
ATOM     25  C   UNL     1      -0.276  -7.491  -6.811  0.00  0.00    +0.000 C 
ENDBRANCH   5  24
BRANCH   6  26
ATOM     26  O   UNL     1       0.628  -4.450  -4.232  0.00  0.00    +0.000 OA
BRANCH  26  27
ATOM     27  C   UNL     1       1.717  -3.859  -4.857  0.00  0.00    +0.000 C 
ATOM     28  O   UNL     1       2.832  -4.340  -5.014  0.00  0.00    +0.000 OA
ATOM     29  C   UNL     1       1.325  -2.481  -5.301  0.00  0.00    +0.000 C 
ENDBRANCH  26  27
ENDBRANCH   6  26
TORSDOF 9
