MODEL 1
REMARK VINA RESULT:      -4.8      0.000      0.000
REMARK  Name = *****
REMARK  10 active torsions:
REMARK  status: ('A' for Active; 'I' for Inactive)
REMARK    1  A    between atoms: C_1  and  O_2
REMARK    2  A    between atoms: O_2  and  C_3
REMARK    3  A    between atoms: C_5  and  O_6
REMARK    4  A    between atoms: O_6  and  C_7
REMARK    5  A    between atoms: C_9  and  C_10
REMARK    6  A    between atoms: C_11  and  C_12
REMARK    7  A    between atoms: C_15  and  O_16
REMARK    8  A    between atoms: O_16  and  C_17
REMARK    9  A    between atoms: C_18  and  O_19
REMARK   10  A    between atoms: O_19  and  C_20
REMARK                            x       y       z     vdW  Elec       q    Type
REMARK                         _______ _______ _______ _____ _____    ______ ____
ROOT
ATOM      1  C   UNL     1     102.314 126.205  82.008  0.00  0.00    +0.000 C 
ATOM      2  C   UNL     1     103.179 126.582  81.052  0.00  0.00    +0.000 C 
ENDROOT
BRANCH   1   7
ATOM      3  C   UNL     1     100.504 129.035  83.715  0.00  0.00    +0.000 A 
ATOM      4  C   UNL     1      99.166 128.673  83.540  0.00  0.00    +0.000 A 
ATOM      5  C   UNL     1      98.844 127.496  82.859  0.00  0.00    +0.000 A 
ATOM      6  C   UNL     1      99.868 126.686  82.353  0.00  0.00    +0.000 A 
ATOM      7  C   UNL     1     101.211 127.044  82.501  0.00  0.00    +0.000 A 
ATOM      8  C   UNL     1     101.515 128.218  83.199  0.00  0.00    +0.000 A 
BRANCH   3  10
ATOM      9  C   UNL     1     102.356 130.248  84.592  0.00  0.00    +0.000 C 
ATOM     10  O   UNL     1     100.956 130.151  84.367  0.00  0.00    +0.000 OA
ENDBRANCH   3  10
BRANCH   5  11
ATOM     11  O   UNL     1      97.581 127.021  82.628  0.00  0.00    +0.000 OA
ATOM     12  C   UNL     1      97.043 126.117  83.583  0.00  0.00    +0.000 C 
ENDBRANCH   5  11
ENDBRANCH   1   7
BRANCH   2  13
ATOM     13  C   UNL     1     104.292 125.748  80.572  0.00  0.00    +0.000 A 
ATOM     14  C   UNL     1     105.508 126.288  80.148  0.00  0.00    +0.000 A 
ATOM     15  C   UNL     1     106.549 125.457  79.712  0.00  0.00    +0.000 A 
ATOM     16  C   UNL     1     106.402 124.065  79.710  0.00  0.00    +0.000 A 
ATOM     17  C   UNL     1     105.202 123.517  80.191  0.00  0.00    +0.000 A 
ATOM     18  C   UNL     1     104.155 124.356  80.595  0.00  0.00    +0.000 A 
BRANCH  16  19
ATOM     19  O   UNL     1     107.359 123.197  79.257  0.00  0.00    +0.000 OA
ATOM     20  C   UNL     1     108.338 122.751  80.187  0.00  0.00    +0.000 C 
ENDBRANCH  16  19
BRANCH  17  21
ATOM     21  O   UNL     1     104.901 122.178  80.255  0.00  0.00    +0.000 OA
ATOM     22  C   UNL     1     104.830 121.643  81.573  0.00  0.00    +0.000 C 
ENDBRANCH  17  21
ENDBRANCH   2  13
TORSDOF 6
ENDMDL
