MODEL 1
REMARK VINA RESULT:      -5.1      0.000      0.000
REMARK  Name = *****
REMARK  11 active torsions:
REMARK  status: ('A' for Active; 'I' for Inactive)
REMARK    1  A    between atoms: C_1  and  O_2
REMARK    2  A    between atoms: O_2  and  C_3
REMARK    3  A    between atoms: C_8  and  C_20
REMARK    4  A    between atoms: C_11  and  O_12
REMARK    5  A    between atoms: O_12  and  C_13
REMARK    6  A    between atoms: C_14  and  C_15
REMARK    7  A    between atoms: C_15  and  C_16
REMARK    8  A    between atoms: C_17  and  C_18
REMARK    9  A    between atoms: C_17  and  C_19
REMARK   10  A    between atoms: C_23  and  O_24
REMARK   11  A    between atoms: C_26  and  O_27
REMARK                            x       y       z     vdW  Elec       q    Type
REMARK                         _______ _______ _______ _____ _____    ______ ____
ROOT
ATOM      1  C   UNL     1     105.284 122.548  81.344  0.00  0.00    +0.000 A 
ATOM      2  C   UNL     1     104.765 123.615  80.607  0.00  0.00    +0.000 A 
ATOM      3  C   UNL     1     103.952 124.569  81.221  0.00  0.00    +0.000 A 
ATOM      4  O   UNL     1     103.454 125.555  80.406  0.00  0.00    +0.000 OA
ATOM      5  C   UNL     1     103.059 126.760  81.091  0.00  0.00    +0.000 C 
ATOM      6  C   UNL     1     102.367 126.520  82.409  0.00  0.00    +0.000 C 
ATOM      7  C   UNL     1     102.655 125.421  83.124  0.00  0.00    +0.000 C 
ATOM      8  C   UNL     1     103.625 124.471  82.577  0.00  0.00    +0.000 A 
ATOM      9  C   UNL     1     104.182 123.422  83.327  0.00  0.00    +0.000 A 
ATOM     10  C   UNL     1     104.986 122.433  82.719  0.00  0.00    +0.000 A 
ENDROOT
BRANCH   6  11
ATOM     11  C   UNL     1     101.394 127.524  82.894  0.00  0.00    +0.000 A 
ATOM     12  C   UNL     1     101.852 128.627  83.639  0.00  0.00    +0.000 A 
ATOM     13  C   UNL     1     100.965 129.589  84.130  0.00  0.00    +0.000 A 
ATOM     14  C   UNL     1      99.605 129.452  83.882  0.00  0.00    +0.000 A 
ATOM     15  C   UNL     1      99.119 128.373  83.156  0.00  0.00    +0.000 A 
ATOM     16  C   UNL     1     100.011 127.414  82.668  0.00  0.00    +0.000 A 
BRANCH  14  17
ATOM     17  O   UNL     1      98.704 130.365  84.341  0.00  0.00    +0.000 OA
ATOM     18  H   UNL     1      97.819 130.108  84.509  0.00  0.00    +0.000 HD
ENDBRANCH  14  17
BRANCH  16  19
ATOM     19  O   UNL     1      99.521 126.361  81.942  0.00  0.00    +0.000 OA
ATOM     20  H   UNL     1     100.109 125.722  81.588  0.00  0.00    +0.000 HD
ENDBRANCH  16  19
ENDBRANCH   6  11
BRANCH   1  22
ATOM     21  C   UNL     1     107.422 121.875  80.517  0.00  0.00    +0.000 C 
ATOM     22  O   UNL     1     106.069 121.556  80.812  0.00  0.00    +0.000 OA
ENDBRANCH   1  22
BRANCH   9  23
ATOM     23  O   UNL     1     103.898 123.298  84.669  0.00  0.00    +0.000 OA
ATOM     24  C   UNL     1     104.842 124.031  85.456  0.00  0.00    +0.000 C 
ENDBRANCH   9  23
BRANCH  10  25
ATOM     25  C   UNL     1     105.534 121.271  83.529  0.00  0.00    +0.000 C 
BRANCH  25  26
ATOM     26  C   UNL     1     104.516 120.181  83.753  0.00  0.00    +0.000 C 
ATOM     27  C   UNL     1     104.028 119.715  84.919  0.00  0.00    +0.000 C 
ATOM     28  C   UNL     1     104.405 120.219  86.284  0.00  0.00    +0.000 C 
ATOM     29  C   UNL     1     103.008 118.606  84.932  0.00  0.00    +0.000 C 
ENDBRANCH  25  26
ENDBRANCH  10  25
TORSDOF 7
ENDMDL
