MODEL 1
REMARK VINA RESULT:      -5.1      0.000      0.000
REMARK  Name = *****
REMARK  5 active torsions:
REMARK  status: ('A' for Active; 'I' for Inactive)
REMARK    1  A    between atoms: C_1  and  O_2
REMARK    2  A    between atoms: O_2  and  C_3
REMARK    3  A    between atoms: C_9  and  O_10
REMARK    4  A    between atoms: C_17  and  O_18
REMARK    5  A    between atoms: C_19  and  C_20
REMARK                            x       y       z     vdW  Elec       q    Type
REMARK                         _______ _______ _______ _____ _____    ______ ____
ROOT
ATOM      1  C   UNL     1      88.899  69.741  86.781  0.00  0.00    +0.000 A 
ATOM      2  C   UNL     1      89.447  68.476  86.534  0.00  0.00    +0.000 A 
ATOM      3  C   UNL     1      88.722  67.316  86.832  0.00  0.00    +0.000 A 
ATOM      4  C   UNL     1      89.308  66.012  86.508  0.00  0.00    +0.000 C 
ATOM      5  C   UNL     1      89.119  64.892  87.219  0.00  0.00    +0.000 C 
ATOM      6  C   UNL     1      88.316  64.794  88.451  0.00  0.00    +0.000 A 
ATOM      7  C   UNL     1      88.687  63.917  89.483  0.00  0.00    +0.000 A 
ATOM      8  C   UNL     1      87.880  63.729  90.606  0.00  0.00    +0.000 A 
ATOM      9  C   UNL     1      86.682  64.427  90.726  0.00  0.00    +0.000 A 
ATOM     10  C   UNL     1      86.297  65.315  89.724  0.00  0.00    +0.000 A 
ATOM     11  C   UNL     1      87.116  65.507  88.604  0.00  0.00    +0.000 A 
ATOM     12  O   UNL     1      86.627  66.370  87.644  0.00  0.00    +0.000 OA
ATOM     13  C   UNL     1      87.435  67.453  87.365  0.00  0.00    +0.000 A 
ATOM     14  C   UNL     1      86.876  68.726  87.556  0.00  0.00    +0.000 A 
ATOM     15  C   UNL     1      87.590  69.890  87.256  0.00  0.00    +0.000 A 
ATOM     16  C   UNL     1      86.984  71.245  87.484  0.00  0.00    +0.000 C 
ENDROOT
BRANCH   1  18
ATOM     17  C   UNL     1      90.074  70.775  85.103  0.00  0.00    +0.000 C 
ATOM     18  O   UNL     1      89.651  70.845  86.466  0.00  0.00    +0.000 OA
ENDBRANCH   1  18
BRANCH   7  19
ATOM     19  O   UNL     1      89.860  63.207  89.471  0.00  0.00    +0.000 OA
ATOM     20  H   UNL     1      90.014  62.569  88.803  0.00  0.00    +0.000 HD
ENDBRANCH   7  19
BRANCH  14  21
ATOM     21  O   UNL     1      85.597  68.841  88.040  0.00  0.00    +0.000 OA
ATOM     22  H   UNL     1      85.110  68.071  88.264  0.00  0.00    +0.000 HD
ENDBRANCH  14  21
TORSDOF 3
ENDMDL
