MODEL 1
REMARK VINA RESULT:      -4.0      0.000      0.000
REMARK  Name = *****
REMARK  2 active torsions:
REMARK  status: ('A' for Active; 'I' for Inactive)
REMARK    1  A    between atoms: C_1  and  C_9
REMARK    2  A    between atoms: C_2  and  C_3
REMARK                            x       y       z     vdW  Elec       q    Type
REMARK                         _______ _______ _______ _____ _____    ______ ____
ROOT
ATOM      1  C   UNL     1      87.413  63.190  87.699  0.00  0.00    +0.000 C 
ATOM      2  C   UNL     1      87.682  63.919  86.603  0.00  0.00    +0.000 C 
ENDROOT
BRANCH   2   3
ATOM      3  C   UNL     1      88.354  65.224  86.540  0.00  0.00    +0.000 A 
ATOM      4  C   UNL     1      87.719  66.399  86.957  0.00  0.00    +0.000 A 
ATOM      5  C   UNL     1      88.392  67.622  86.910  0.00  0.00    +0.000 A 
ATOM      6  C   UNL     1      89.709  67.678  86.458  0.00  0.00    +0.000 A 
ATOM      7  C   UNL     1      90.355  66.510  86.057  0.00  0.00    +0.000 A 
ATOM      8  C   UNL     1      89.683  65.287  86.102  0.00  0.00    +0.000 A 
ENDBRANCH   2   3
BRANCH   1   9
ATOM      9  C   UNL     1      87.687  63.543  89.098  0.00  0.00    +0.000 A 
ATOM     10  C   UNL     1      88.990  63.570  89.609  0.00  0.00    +0.000 A 
ATOM     11  C   UNL     1      89.221  63.936  90.937  0.00  0.00    +0.000 A 
ATOM     12  C   UNL     1      88.154  64.288  91.760  0.00  0.00    +0.000 A 
ATOM     13  C   UNL     1      86.855  64.279  91.257  0.00  0.00    +0.000 A 
ATOM     14  C   UNL     1      86.622  63.914  89.929  0.00  0.00    +0.000 A 
ENDBRANCH   1   9
TORSDOF 2
ENDMDL
