MODEL 1
REMARK VINA RESULT:      -5.0      0.000      0.000
REMARK  Name = *****
REMARK  11 active torsions:
REMARK  status: ('A' for Active; 'I' for Inactive)
REMARK    1  A    between atoms: C_1  and  O_2
REMARK    2  A    between atoms: O_2  and  C_3
REMARK    3  A    between atoms: N_5  and  C_6
REMARK    4  A    between atoms: C_6  and  C_7
REMARK    5  A    between atoms: C_7  and  C_8
REMARK    6  A    between atoms: C_11  and  O_12
REMARK    7  A    between atoms: O_12  and  C_13
REMARK    8  A    between atoms: C_15  and  C_16
REMARK    9  A    between atoms: C_17  and  C_18
REMARK   10  A    between atoms: C_21  and  O_22
REMARK   11  A    between atoms: O_22  and  C_23
REMARK                            x       y       z     vdW  Elec       q    Type
REMARK                         _______ _______ _______ _____ _____    ______ ____
ROOT
ATOM      1  C   UNL     1      99.747 128.356  83.197  0.00  0.00    +0.000 A 
ATOM      2  C   UNL     1      99.100 129.520  83.643  0.00  0.00    +0.000 A 
ATOM      3  C   UNL     1      99.808 130.541  84.283  0.00  0.00    +0.000 A 
ATOM      4  C   UNL     1     101.180 130.419  84.484  0.00  0.00    +0.000 A 
ATOM      5  C   UNL     1     101.835 129.270  84.036  0.00  0.00    +0.000 A 
ATOM      6  C   UNL     1     101.135 128.238  83.391  0.00  0.00    +0.000 A 
ENDROOT
BRANCH   4   7
ATOM      7  O   UNL     1     101.990 131.339  85.092  0.00  0.00    +0.000 OA
ATOM      8  C   UNL     1     103.341 130.957  85.316  0.00  0.00    +0.000 C 
ENDBRANCH   4   7
BRANCH   6   9
ATOM      9  C   UNL     1     101.900 127.068  82.950  0.00  0.00    +0.000 C 
ATOM     10  C   UNL     1     102.611 127.088  81.811  0.00  0.00    +0.000 C 
BRANCH  10  11
ATOM     11  C   UNL     1     103.401 125.950  81.324  0.00  0.00    +0.000 A 
ATOM     12  C   UNL     1     104.093 125.986  80.108  0.00  0.00    +0.000 A 
ATOM     13  C   UNL     1     104.864 124.893  79.688  0.00  0.00    +0.000 A 
ATOM     14  C   UNL     1     104.960 123.755  80.486  0.00  0.00    +0.000 A 
ATOM     15  C   UNL     1     104.283 123.721  81.706  0.00  0.00    +0.000 A 
ATOM     16  C   UNL     1     103.514 124.811  82.127  0.00  0.00    +0.000 A 
BRANCH  14  17
ATOM     17  O   UNL     1     105.675 122.625  80.197  0.00  0.00    +0.000 OA
ATOM     18  C   UNL     1     105.663 121.590  81.172  0.00  0.00    +0.000 C 
ENDBRANCH  14  17
ENDBRANCH  10  11
ENDBRANCH   6   9
BRANCH   1  19
ATOM     19  C   UNL     1      98.927 127.298  82.493  0.00  0.00    +0.000 C 
BRANCH  19  20
ATOM     20  C   UNL     1      97.930 126.623  83.437  0.00  0.00    +0.000 C 
BRANCH  20  23
ATOM     21  C   UNL     1      96.177 124.893  83.368  0.00  0.00    +0.000 C 
ATOM     22  O   UNL     1      95.632 125.225  84.409  0.00  0.00    +0.000 OA
ATOM     23  N   UNL     1      97.256 125.507  82.810  0.00  0.00    +0.000 N 
ATOM     24  H   UNL     1      97.593 125.178  81.946  0.00  0.00    +0.000 HD
BRANCH  21  26
ATOM     25  C   UNL     1      94.420 123.540  82.645  0.00  0.00    +0.000 C 
ATOM     26  O   UNL     1      95.814 123.846  82.588  0.00  0.00    +0.000 OA
ENDBRANCH  21  26
ENDBRANCH  20  23
ENDBRANCH  19  20
ENDBRANCH   1  19
TORSDOF 8
ENDMDL
