MODEL 1
REMARK VINA RESULT:      -5.0      0.000      0.000
REMARK  Name = *****
REMARK  6 active torsions:
REMARK  status: ('A' for Active; 'I' for Inactive)
REMARK    1  A    between atoms: C_1  and  O_2
REMARK    2  A    between atoms: O_2  and  C_3
REMARK    3  A    between atoms: C_5  and  C_10
REMARK    4  A    between atoms: C_8  and  O_9
REMARK    5  A    between atoms: C_11  and  C_19
REMARK    6  A    between atoms: C_22  and  O_23
REMARK                            x       y       z     vdW  Elec       q    Type
REMARK                         _______ _______ _______ _____ _____    ______ ____
ROOT
ATOM      1  C   UNL     1      87.518  66.845  86.356  0.00  0.00    +0.000 C 
ATOM      2  C   UNL     1      88.537  67.222  85.551  0.00  0.00    +0.000 C 
ATOM      3  C   UNL     1      88.650  68.674  85.134  0.00  0.00    +0.000 C 
ATOM      4  N   UNL     1      88.314  69.637  86.189  0.00  0.00    +0.000 N 
ATOM      5  C   UNL     1      89.439  69.887  87.095  0.00  0.00    +0.000 C 
ATOM      6  C   UNL     1      88.775  70.375  88.365  0.00  0.00    +0.000 C 
ATOM      7  C   UNL     1      87.583  69.446  88.464  0.00  0.00    +0.000 C 
ATOM      8  C   UNL     1      87.134  69.270  87.007  0.00  0.00    +0.000 C 
ATOM      9  C   UNL     1      86.501  67.886  86.760  0.00  0.00    +0.000 C 
ATOM     10  H   UNL     1      88.083  70.482  85.668  0.00  0.00    +0.000 HD
ENDROOT
BRANCH   1  13
ATOM     11  C   UNL     1      87.504  63.819  88.618  0.00  0.00    +0.000 A 
ATOM     12  C   UNL     1      87.724  65.113  88.135  0.00  0.00    +0.000 A 
ATOM     13  C   UNL     1      87.298  65.476  86.848  0.00  0.00    +0.000 A 
ATOM     14  C   UNL     1      86.662  64.529  86.036  0.00  0.00    +0.000 A 
ATOM     15  C   UNL     1      86.452  63.231  86.501  0.00  0.00    +0.000 A 
ATOM     16  C   UNL     1      86.872  62.884  87.784  0.00  0.00    +0.000 A 
BRANCH  11  18
ATOM     17  C   UNL     1      89.138  63.786  90.352  0.00  0.00    +0.000 C 
ATOM     18  O   UNL     1      87.871  63.372  89.861  0.00  0.00    +0.000 OA
ENDBRANCH  11  18
BRANCH  16  19
ATOM     19  O   UNL     1      86.661  61.612  88.246  0.00  0.00    +0.000 OA
ATOM     20  H   UNL     1      87.369  61.126  88.622  0.00  0.00    +0.000 HD
ENDBRANCH  16  19
ENDBRANCH   1  13
BRANCH   2  21
ATOM     21  C   UNL     1      89.555  66.297  85.020  0.00  0.00    +0.000 A 
ATOM     22  C   UNL     1      89.354  65.652  83.792  0.00  0.00    +0.000 A 
ATOM     23  C   UNL     1      90.310  64.767  83.287  0.00  0.00    +0.000 A 
ATOM     24  C   UNL     1      91.471  64.532  84.014  0.00  0.00    +0.000 A 
ATOM     25  C   UNL     1      91.691  65.167  85.230  0.00  0.00    +0.000 A 
ATOM     26  C   UNL     1      90.735  66.050  85.734  0.00  0.00    +0.000 A 
BRANCH  24  27
ATOM     27  O   UNL     1      92.431  63.674  83.562  0.00  0.00    +0.000 OA
ATOM     28  H   UNL     1      93.179  63.488  84.094  0.00  0.00    +0.000 HD
ENDBRANCH  24  27
ENDBRANCH   2  21
TORSDOF 5
ENDMDL
