REMARK  Name = *****
REMARK  3 active torsions:
REMARK  status: ('A' for Active; 'I' for Inactive)
REMARK    1  A    between atoms: C_1  and  O_2
REMARK    2  A    between atoms: O_2  and  C_3
REMARK    3  A    between atoms: C_3  and  C_14
REMARK                            x       y       z     vdW  Elec       q    Type
REMARK                         _______ _______ _______ _____ _____    ______ ____
ROOT
ATOM      1  C   UNL     1       3.133   0.607   1.223  0.00  0.00    +0.000 C 
ATOM      2  C   UNL     1       2.743   0.923   2.472  0.00  0.00    +0.000 C 
ATOM      3  C   UNL     1       1.680   0.134   3.204  0.00  0.00    +0.000 C 
ATOM      4  O   UNL     1       1.033  -0.824   2.824  0.00  0.00    +0.000 OA
ATOM      5  N   UNL     1       1.542   0.764   4.430  0.00  0.00    +0.000 N 
ATOM      6  C   UNL     1       2.400   1.851   4.543  0.00  0.00    +0.000 A 
ATOM      7  C   UNL     1       2.518   2.685   5.639  0.00  0.00    +0.000 A 
ATOM      8  C   UNL     1       3.457   3.713   5.565  0.00  0.00    +0.000 A 
ATOM      9  C   UNL     1       4.249   3.874   4.415  0.00  0.00    +0.000 A 
ATOM     10  C   UNL     1       4.110   3.014   3.317  0.00  0.00    +0.000 A 
ATOM     11  C   UNL     1       3.166   2.003   3.382  0.00  0.00    +0.000 A 
ATOM     12  H   UNL     1       0.915   0.478   5.133  0.00  0.00    +0.000 HD
ENDROOT
BRANCH   1  13
ATOM     13  C   UNL     1       4.158   1.346   0.468  0.00  0.00    +0.000 A 
ATOM     14  C   UNL     1       5.450   0.822   0.342  0.00  0.00    +0.000 A 
ATOM     15  C   UNL     1       6.424   1.516  -0.377  0.00  0.00    +0.000 A 
ATOM     16  C   UNL     1       6.112   2.734  -0.981  0.00  0.00    +0.000 A 
ATOM     17  C   UNL     1       4.824   3.258  -0.870  0.00  0.00    +0.000 A 
ATOM     18  C   UNL     1       3.848   2.566  -0.150  0.00  0.00    +0.000 A 
ENDBRANCH   1  13
BRANCH   1  20
ATOM     19  C   UNL     1       1.680  -0.289  -0.357  0.00  0.00    +0.000 C 
ATOM     20  O   UNL     1       2.711  -0.551   0.593  0.00  0.00    +0.000 OA
ENDBRANCH   1  20
TORSDOF 2
