REMARK  Name = *****
REMARK  7 active torsions:
REMARK  status: ('A' for Active; 'I' for Inactive)
REMARK    1  A    between atoms: C_1  and  O_2
REMARK    2  A    between atoms: O_2  and  C_3
REMARK    3  A    between atoms: C_5  and  C_6
REMARK    4  A    between atoms: C_7  and  C_8
REMARK    5  A    between atoms: C_14  and  O_15
REMARK    6  A    between atoms: O_15  and  C_16
REMARK    7  A    between atoms: C_18  and  O_19
REMARK                            x       y       z     vdW  Elec       q    Type
REMARK                         _______ _______ _______ _____ _____    ______ ____
ROOT
ATOM      1  C   UNL     1       3.184   1.237   0.078  0.00  0.00    +0.000 A 
ATOM      2  C   UNL     1       2.493   2.454   0.063  0.00  0.00    +0.000 A 
ATOM      3  C   UNL     1       3.175   3.671  -0.111  0.00  0.00    +0.000 A 
ATOM      4  C   UNL     1       4.569   3.643  -0.279  0.00  0.00    +0.000 A 
ATOM      5  C   UNL     1       5.269   2.437  -0.295  0.00  0.00    +0.000 A 
ATOM      6  C   UNL     1       4.574   1.244  -0.106  0.00  0.00    +0.000 A 
ENDROOT
BRANCH   1   8
ATOM      7  C   UNL     1       1.198  -0.039   0.431  0.00  0.00    +0.000 C 
ATOM      8  O   UNL     1       2.605   0.006   0.247  0.00  0.00    +0.000 OA
ENDBRANCH   1   8
BRANCH   3   9
ATOM      9  C   UNL     1       2.440   4.946  -0.180  0.00  0.00    +0.000 C 
ATOM     10  C   UNL     1       1.464   5.289   0.677  0.00  0.00    +0.000 C 
BRANCH  10  11
ATOM     11  C   UNL     1       0.739   6.567   0.626  0.00  0.00    +0.000 A 
ATOM     12  C   UNL     1      -0.612   6.593   0.998  0.00  0.00    +0.000 A 
ATOM     13  C   UNL     1      -1.330   7.792   0.993  0.00  0.00    +0.000 A 
ATOM     14  C   UNL     1      -0.701   8.980   0.628  0.00  0.00    +0.000 A 
ATOM     15  C   UNL     1       0.646   8.970   0.272  0.00  0.00    +0.000 A 
ATOM     16  C   UNL     1       1.364   7.771   0.276  0.00  0.00    +0.000 A 
ENDBRANCH  10  11
ENDBRANCH   3   9
BRANCH   4  17
ATOM     17  O   UNL     1       5.277   4.800  -0.498  0.00  0.00    +0.000 OA
ATOM     18  C   UNL     1       5.748   5.325   0.745  0.00  0.00    +0.000 C 
ENDBRANCH   4  17
BRANCH   6  19
ATOM     19  O   UNL     1       5.255   0.055  -0.107  0.00  0.00    +0.000 OA
ATOM     20  H   UNL     1       4.792  -0.750   0.019  0.00  0.00    +0.000 HD
ENDBRANCH   6  19
TORSDOF 5
