MODEL 1
REMARK VINA RESULT:      -4.8      0.000      0.000
REMARK  Name = *****
REMARK  10 active torsions:
REMARK  status: ('A' for Active; 'I' for Inactive)
REMARK    1  A    between atoms: C_1  and  O_2
REMARK    2  A    between atoms: O_2  and  C_3
REMARK    3  A    between atoms: C_6  and  C_7
REMARK    4  A    between atoms: C_8  and  C_9
REMARK    5  A    between atoms: C_11  and  O_12
REMARK    6  A    between atoms: O_12  and  C_13
REMARK    7  A    between atoms: C_15  and  O_16
REMARK    8  A    between atoms: O_16  and  C_17
REMARK    9  A    between atoms: C_19  and  O_20
REMARK   10  A    between atoms: O_20  and  C_21
REMARK                            x       y       z     vdW  Elec       q    Type
REMARK                         _______ _______ _______ _____ _____    ______ ____
ROOT
ATOM      1  C   UNL     1     102.780 125.307  82.834  0.00  0.00    +0.000 C 
ATOM      2  C   UNL     1     102.044 126.118  82.058  0.00  0.00    +0.000 C 
ENDROOT
BRANCH   1   6
ATOM      3  C   UNL     1     105.632 122.593  81.120  0.00  0.00    +0.000 A 
ATOM      4  C   UNL     1     105.081 123.634  80.373  0.00  0.00    +0.000 A 
ATOM      5  C   UNL     1     104.151 124.505  80.956  0.00  0.00    +0.000 A 
ATOM      6  C   UNL     1     103.759 124.354  82.293  0.00  0.00    +0.000 A 
ATOM      7  C   UNL     1     104.291 123.279  83.021  0.00  0.00    +0.000 A 
ATOM      8  C   UNL     1     105.236 122.422  82.446  0.00  0.00    +0.000 A 
BRANCH   3  10
ATOM      9  C   UNL     1     107.854 122.173  80.386  0.00  0.00    +0.000 C 
ATOM     10  O   UNL     1     106.551 121.684  80.675  0.00  0.00    +0.000 OA
ENDBRANCH   3  10
BRANCH   7  11
ATOM     11  O   UNL     1     103.950 123.069  84.334  0.00  0.00    +0.000 OA
ATOM     12  C   UNL     1     104.802 122.075  84.906  0.00  0.00    +0.000 C 
ENDBRANCH   7  11
ENDBRANCH   1   6
BRANCH   2  13
ATOM     13  C   UNL     1     101.045 127.053  82.588  0.00  0.00    +0.000 A 
ATOM     14  C   UNL     1     101.416 128.249  83.220  0.00  0.00    +0.000 A 
ATOM     15  C   UNL     1     100.440 129.130  83.690  0.00  0.00    +0.000 A 
ATOM     16  C   UNL     1      99.086 128.817  83.524  0.00  0.00    +0.000 A 
ATOM     17  C   UNL     1      98.702 127.638  82.885  0.00  0.00    +0.000 A 
ATOM     18  C   UNL     1      99.686 126.766  82.414  0.00  0.00    +0.000 A 
BRANCH  15  19
ATOM     19  O   UNL     1     100.674 130.323  84.321  0.00  0.00    +0.000 OA
ATOM     20  C   UNL     1      99.607 131.264  84.337  0.00  0.00    +0.000 C 
ENDBRANCH  15  19
BRANCH  17  21
ATOM     21  O   UNL     1      97.417 127.226  82.659  0.00  0.00    +0.000 OA
ATOM     22  C   UNL     1      96.641 126.888  83.801  0.00  0.00    +0.000 C 
ENDBRANCH  17  21
ENDBRANCH   2  13
TORSDOF 6
ENDMDL
