MODEL 1
REMARK VINA RESULT:      -4.8      0.000      0.000
REMARK  Name = *****
REMARK  4 active torsions:
REMARK  status: ('A' for Active; 'I' for Inactive)
REMARK    1  A    between atoms: C_1  and  O_2
REMARK    2  A    between atoms: O_2  and  C_3
REMARK    3  A    between atoms: C_6  and  C_7
REMARK    4  A    between atoms: C_8  and  C_9
REMARK                            x       y       z     vdW  Elec       q    Type
REMARK                         _______ _______ _______ _____ _____    ______ ____
ROOT
ATOM      1  C   UNL     1     103.098 125.421  81.174  0.00  0.00    +0.000 C 
ATOM      2  C   UNL     1     102.920 126.641  81.706  0.00  0.00    +0.000 C 
ENDROOT
BRANCH   2   3
ATOM      3  C   UNL     1     101.681 127.068  82.371  0.00  0.00    +0.000 A 
ATOM      4  C   UNL     1     101.728 128.184  83.237  0.00  0.00    +0.000 A 
ATOM      5  C   UNL     1     100.575 128.652  83.880  0.00  0.00    +0.000 A 
ATOM      6  C   UNL     1      99.393 127.993  83.629  0.00  0.00    +0.000 A 
ATOM      7  O   UNL     1      98.180 128.305  84.158  0.00  0.00    +0.000 OA
ATOM      8  C   UNL     1      97.348 127.300  83.541  0.00  0.00    +0.000 C 
ATOM      9  O   UNL     1      98.072 126.418  82.660  0.00  0.00    +0.000 OA
ATOM     10  C   UNL     1      99.332 126.916  82.776  0.00  0.00    +0.000 A 
ATOM     11  C   UNL     1     100.452 126.434  82.130  0.00  0.00    +0.000 A 
ENDBRANCH   2   3
BRANCH   1  15
ATOM     12  C   UNL     1     106.736 124.087  79.333  0.00  0.00    +0.000 A 
ATOM     13  C   UNL     1     106.409 125.441  79.314  0.00  0.00    +0.000 A 
ATOM     14  C   UNL     1     105.219 125.888  79.905  0.00  0.00    +0.000 A 
ATOM     15  C   UNL     1     104.336 124.987  80.511  0.00  0.00    +0.000 A 
ATOM     16  C   UNL     1     104.679 123.631  80.539  0.00  0.00    +0.000 A 
ATOM     17  C   UNL     1     105.865 123.186  79.950  0.00  0.00    +0.000 A 
BRANCH  12  19
ATOM     18  C   UNL     1     108.571 122.604  79.623  0.00  0.00    +0.000 C 
ATOM     19  O   UNL     1     107.861 123.521  78.800  0.00  0.00    +0.000 OA
ENDBRANCH  12  19
ENDBRANCH   1  15
TORSDOF 3
ENDMDL
