MODEL 1
REMARK VINA RESULT:      -6.0      0.000      0.000
REMARK  Name = *****
REMARK  5 active torsions:
REMARK  status: ('A' for Active; 'I' for Inactive)
REMARK    1  A    between atoms: C_1  and  C_2
REMARK    2  A    between atoms: C_2  and  C_3
REMARK    3  A    between atoms: C_10  and  C_17
REMARK    4  A    between atoms: C_20  and  O_21
REMARK    5  A    between atoms: C_23  and  O_24
REMARK                            x       y       z     vdW  Elec       q    Type
REMARK                         _______ _______ _______ _____ _____    ______ ____
ROOT
ATOM      1  C   UNL     1      87.140  62.843  88.307  0.00  0.00    +0.000 C 
ATOM      2  C   UNL     1      87.992  64.070  88.652  0.00  0.00    +0.000 C 
ATOM      3  C   UNL     1      88.838  63.779  89.896  0.00  0.00    +0.000 C 
ATOM      4  O   UNL     1      88.917  64.238  87.558  0.00  0.00    +0.000 OA
ATOM      5  C   UNL     1      88.962  65.437  86.903  0.00  0.00    +0.000 A 
ATOM      6  C   UNL     1      89.912  65.522  85.882  0.00  0.00    +0.000 A 
ATOM      7  C   UNL     1      90.041  66.693  85.135  0.00  0.00    +0.000 A 
ATOM      8  C   UNL     1      89.226  67.792  85.415  0.00  0.00    +0.000 A 
ATOM      9  C   UNL     1      89.315  69.007  84.611  0.00  0.00    +0.000 C 
ATOM     10  C   UNL     1      88.686  70.104  85.064  0.00  0.00    +0.000 C 
ATOM     11  C   UNL     1      87.951  70.059  86.381  0.00  0.00    +0.000 C 
ATOM     12  O   UNL     1      87.434  68.760  86.724  0.00  0.00    +0.000 OA
ATOM     13  C   UNL     1      88.281  67.710  86.451  0.00  0.00    +0.000 A 
ATOM     14  C   UNL     1      88.132  66.524  87.191  0.00  0.00    +0.000 A 
ATOM     15  C   UNL     1      87.141  66.392  88.253  0.00  0.00    +0.000 C 
ATOM     16  C   UNL     1      87.082  65.243  88.930  0.00  0.00    +0.000 C 
ENDROOT
BRANCH  10  17
ATOM     17  C   UNL     1      88.720  71.379  84.314  0.00  0.00    +0.000 A 
ATOM     18  C   UNL     1      87.532  71.879  83.748  0.00  0.00    +0.000 A 
ATOM     19  C   UNL     1      87.516  73.088  83.047  0.00  0.00    +0.000 A 
ATOM     20  C   UNL     1      88.695  73.811  82.910  0.00  0.00    +0.000 A 
ATOM     21  C   UNL     1      89.883  73.349  83.462  0.00  0.00    +0.000 A 
ATOM     22  C   UNL     1      89.892  72.141  84.162  0.00  0.00    +0.000 A 
BRANCH  20  23
ATOM     23  O   UNL     1      88.727  74.996  82.236  0.00  0.00    +0.000 OA
ATOM     24  H   UNL     1      88.120  75.156  81.541  0.00  0.00    +0.000 HD
ENDBRANCH  20  23
BRANCH  22  25
ATOM     25  O   UNL     1      91.071  71.689  84.692  0.00  0.00    +0.000 OA
ATOM     26  H   UNL     1      91.607  72.264  85.202  0.00  0.00    +0.000 HD
ENDBRANCH  22  25
ENDBRANCH  10  17
TORSDOF 3
ENDMDL
