MODEL 1
REMARK VINA RESULT:      -5.2      0.000      0.000
REMARK  Name = *****
REMARK  9 active torsions:
REMARK  status: ('A' for Active; 'I' for Inactive)
REMARK    1  A    between atoms: C_1  and  O_2
REMARK    2  A    between atoms: O_2  and  C_3
REMARK    3  A    between atoms: C_5  and  O_6
REMARK    4  A    between atoms: C_9  and  C_10
REMARK    5  A    between atoms: C_14  and  C_21
REMARK    6  A    between atoms: C_15  and  O_16
REMARK    7  A    between atoms: C_21  and  C_22
REMARK    8  A    between atoms: C_21  and  C_23
REMARK    9  A    between atoms: C_21  and  C_24
REMARK                            x       y       z     vdW  Elec       q    Type
REMARK                         _______ _______ _______ _____ _____    ______ ____
ROOT
ATOM      1  C   UNL     1      88.654  68.286  85.195  0.00  0.00    +0.000 C 
ATOM      2  C   UNL     1      88.337  67.922  86.448  0.00  0.00    +0.000 C 
ATOM      3  C   UNL     1      88.083  66.506  86.697  0.00  0.00    +0.000 A 
ATOM      4  C   UNL     1      87.550  66.072  87.921  0.00  0.00    +0.000 A 
ATOM      5  C   UNL     1      87.339  64.703  88.205  0.00  0.00    +0.000 A 
ATOM      6  C   UNL     1      87.690  63.795  87.182  0.00  0.00    +0.000 A 
ATOM      7  C   UNL     1      88.243  64.217  85.971  0.00  0.00    +0.000 A 
ATOM      8  C   UNL     1      88.424  65.570  85.724  0.00  0.00    +0.000 A 
ATOM      9  O   UNL     1      88.987  65.917  84.525  0.00  0.00    +0.000 OA
ATOM     10  C   UNL     1      88.711  67.262  84.089  0.00  0.00    +0.000 C 
ENDROOT
BRANCH   1  16
ATOM     11  C   UNL     1      87.928  70.689  84.805  0.00  0.00    +0.000 A 
ATOM     12  C   UNL     1      88.265  72.006  84.461  0.00  0.00    +0.000 A 
ATOM     13  C   UNL     1      89.589  72.334  84.179  0.00  0.00    +0.000 A 
ATOM     14  C   UNL     1      90.589  71.377  84.230  0.00  0.00    +0.000 A 
ATOM     15  C   UNL     1      90.266  70.064  84.568  0.00  0.00    +0.000 A 
ATOM     16  C   UNL     1      88.938  69.701  84.861  0.00  0.00    +0.000 A 
BRANCH  11  18
ATOM     17  C   UNL     1      85.904  71.064  86.028  0.00  0.00    +0.000 C 
ATOM     18  O   UNL     1      86.655  70.279  85.113  0.00  0.00    +0.000 OA
ENDBRANCH  11  18
BRANCH  13  19
ATOM     19  O   UNL     1      89.951  73.606  83.842  0.00  0.00    +0.000 OA
ATOM     20  H   UNL     1      89.539  74.337  84.260  0.00  0.00    +0.000 HD
ENDBRANCH  13  19
ENDBRANCH   1  16
BRANCH   5  21
ATOM     21  C   UNL     1      86.795  64.253  89.583  0.00  0.00    +0.000 C 
ATOM     22  C   UNL     1      86.124  65.467  90.275  0.00  0.00    +0.000 C 
ATOM     23  C   UNL     1      85.701  63.157  89.501  0.00  0.00    +0.000 C 
BRANCH  21  24
ATOM     24  C   UNL     1      87.871  63.673  90.509  0.00  0.00    +0.000 C 
ATOM     25  C   UNL     1      89.200  63.804  90.394  0.00  0.00    +0.000 C 
ENDBRANCH  21  24
ENDBRANCH   5  21
BRANCH   6  26
ATOM     26  O   UNL     1      87.509  62.441  87.277  0.00  0.00    +0.000 OA
ATOM     27  H   UNL     1      87.166  61.962  86.548  0.00  0.00    +0.000 HD
ENDBRANCH   6  26
TORSDOF 6
ENDMDL
