MODEL 1
REMARK VINA RESULT:      -5.1      0.000      0.000
REMARK  Name = *****
REMARK  10 active torsions:
REMARK  status: ('A' for Active; 'I' for Inactive)
REMARK    1  A    between atoms: C_1  and  O_2
REMARK    2  A    between atoms: O_2  and  C_3
REMARK    3  A    between atoms: C_6  and  C_10
REMARK    4  A    between atoms: C_8  and  O_9
REMARK    5  A    between atoms: C_11  and  C_20
REMARK    6  A    between atoms: C_17  and  C_18
REMARK    7  A    between atoms: C_23  and  O_24
REMARK    8  A    between atoms: O_24  and  C_25
REMARK    9  A    between atoms: C_26  and  O_27
REMARK   10  A    between atoms: O_27  and  C_28
REMARK                            x       y       z     vdW  Elec       q    Type
REMARK                         _______ _______ _______ _____ _____    ______ ____
ROOT
ATOM      1  C   UNL     1      87.894  67.641  87.141  0.00  0.00    +0.000 C 
ATOM      2  C   UNL     1      87.139  67.036  88.081  0.00  0.00    +0.000 C 
ATOM      3  C   UNL     1      86.397  67.871  89.102  0.00  0.00    +0.000 C 
ATOM      4  N   UNL     1      85.820  69.109  88.565  0.00  0.00    +0.000 N 
ATOM      5  C   UNL     1      85.567  70.104  89.610  0.00  0.00    +0.000 C 
ATOM      6  C   UNL     1      85.550  71.424  88.864  0.00  0.00    +0.000 C 
ATOM      7  C   UNL     1      86.665  71.235  87.851  0.00  0.00    +0.000 C 
ATOM      8  C   UNL     1      86.553  69.754  87.451  0.00  0.00    +0.000 C 
ATOM      9  C   UNL     1      85.636  69.629  86.212  0.00  0.00    +0.000 C 
ATOM     10  C   UNL     1      87.941  69.148  87.127  0.00  0.00    +0.000 C 
ATOM     11  H   UNL     1      84.942  68.777  88.165  0.00  0.00    +0.000 HD
ENDROOT
BRANCH   1  15
ATOM     12  C   UNL     1      90.158  65.592  84.136  0.00  0.00    +0.000 A 
ATOM     13  C   UNL     1      88.840  65.984  83.887  0.00  0.00    +0.000 A 
ATOM     14  C   UNL     1      88.102  66.651  84.871  0.00  0.00    +0.000 A 
ATOM     15  C   UNL     1      88.672  66.936  86.115  0.00  0.00    +0.000 A 
ATOM     16  C   UNL     1      89.991  66.552  86.371  0.00  0.00    +0.000 A 
ATOM     17  C   UNL     1      90.722  65.885  85.387  0.00  0.00    +0.000 A 
BRANCH  12  19
ATOM     18  C   UNL     1      90.634  63.586  82.941  0.00  0.00    +0.000 C 
ATOM     19  O   UNL     1      90.965  64.932  83.247  0.00  0.00    +0.000 OA
ENDBRANCH  12  19
BRANCH  17  20
ATOM     20  O   UNL     1      92.015  65.507  85.642  0.00  0.00    +0.000 OA
ATOM     21  H   UNL     1      92.495  65.017  85.004  0.00  0.00    +0.000 HD
ENDBRANCH  17  20
ENDBRANCH   1  15
BRANCH   2  22
ATOM     22  C   UNL     1      87.017  65.579  88.209  0.00  0.00    +0.000 A 
ATOM     23  C   UNL     1      87.913  64.864  89.004  0.00  0.00    +0.000 A 
ATOM     24  C   UNL     1      87.779  63.479  89.146  0.00  0.00    +0.000 A 
ATOM     25  C   UNL     1      86.750  62.784  88.493  0.00  0.00    +0.000 A 
ATOM     26  C   UNL     1      85.871  63.500  87.661  0.00  0.00    +0.000 A 
ATOM     27  C   UNL     1      85.999  64.892  87.546  0.00  0.00    +0.000 A 
BRANCH  25  28
ATOM     28  O   UNL     1      86.550  61.436  88.632  0.00  0.00    +0.000 OA
ATOM     29  C   UNL     1      85.754  60.991  89.721  0.00  0.00    +0.000 C 
ENDBRANCH  25  28
BRANCH  26  30
ATOM     30  O   UNL     1      84.812  62.997  86.946  0.00  0.00    +0.000 OA
ATOM     31  C   UNL     1      83.513  63.244  87.470  0.00  0.00    +0.000 C 
ENDBRANCH  26  30
ENDBRANCH   2  22
TORSDOF 6
ENDMDL
