REMARK  Name = *****
REMARK  11 active torsions:
REMARK  status: ('A' for Active; 'I' for Inactive)
REMARK    1  A    between atoms: C_1  and  O_2
REMARK    2  A    between atoms: O_2  and  C_3
REMARK    3  A    between atoms: C_6  and  C_11
REMARK    4  A    between atoms: C_8  and  O_9
REMARK    5  A    between atoms: O_9  and  C_10
REMARK    6  A    between atoms: C_12  and  C_21
REMARK    7  A    between atoms: C_14  and  O_15
REMARK    8  A    between atoms: C_24  and  O_25
REMARK    9  A    between atoms: O_25  and  C_26
REMARK   10  A    between atoms: C_27  and  O_28
REMARK   11  A    between atoms: O_28  and  C_29
REMARK                            x       y       z     vdW  Elec       q    Type
REMARK                         _______ _______ _______ _____ _____    ______ ____
ROOT
ATOM      1  C   UNL     1       5.603  -4.580   1.199  0.00  0.00    +0.000 C 
ATOM      2  C   UNL     1       6.112  -5.172   0.097  0.00  0.00    +0.000 C 
ATOM      3  C   UNL     1       7.109  -6.290   0.290  0.00  0.00    +0.000 C 
ATOM      4  C   UNL     1       6.784  -7.190   1.510  0.00  0.00    +0.000 C 
ATOM      5  C   UNL     1       5.875  -8.368   1.109  0.00  0.00    +0.000 C 
ATOM      6  C   UNL     1       5.046  -8.619   2.354  0.00  0.00    +0.000 C 
ATOM      7  C   UNL     1       4.813  -7.210   2.853  0.00  0.00    +0.000 C 
ATOM      8  N   UNL     1       6.104  -6.554   2.645  0.00  0.00    +0.000 N 
ATOM      9  C   UNL     1       5.998  -5.098   2.565  0.00  0.00    +0.000 C 
ATOM     10  H   UNL     1       6.692  -6.691   3.467  0.00  0.00    +0.000 HD
ENDROOT
BRANCH   1  14
ATOM     11  C   UNL     1       2.965  -1.190   1.089  0.00  0.00    +0.000 A 
ATOM     12  C   UNL     1       4.316  -1.060   0.745  0.00  0.00    +0.000 A 
ATOM     13  C   UNL     1       5.172  -2.166   0.777  0.00  0.00    +0.000 A 
ATOM     14  C   UNL     1       4.696  -3.422   1.164  0.00  0.00    +0.000 A 
ATOM     15  C   UNL     1       3.348  -3.558   1.502  0.00  0.00    +0.000 A 
ATOM     16  C   UNL     1       2.478  -2.462   1.437  0.00  0.00    +0.000 A 
BRANCH  11  18
ATOM     17  C   UNL     1       2.612   1.170   0.975  0.00  0.00    +0.000 C 
ATOM     18  O   UNL     1       2.084  -0.142   1.119  0.00  0.00    +0.000 OA
ENDBRANCH  11  18
BRANCH  16  19
ATOM     19  O   UNL     1       1.185  -2.758   1.795  0.00  0.00    +0.000 OA
ATOM     20  C   UNL     1       0.182  -2.142   0.993  0.00  0.00    +0.000 C 
ENDBRANCH  16  19
ENDBRANCH   1  14
BRANCH   2  21
ATOM     21  C   UNL     1       5.805  -4.783  -1.288  0.00  0.00    +0.000 A 
ATOM     22  C   UNL     1       4.515  -4.941  -1.802  0.00  0.00    +0.000 A 
ATOM     23  C   UNL     1       4.224  -4.584  -3.123  0.00  0.00    +0.000 A 
ATOM     24  C   UNL     1       5.218  -4.054  -3.954  0.00  0.00    +0.000 A 
ATOM     25  C   UNL     1       6.506  -3.861  -3.425  0.00  0.00    +0.000 A 
ATOM     26  C   UNL     1       6.800  -4.254  -2.113  0.00  0.00    +0.000 A 
BRANCH  24  27
ATOM     27  O   UNL     1       5.020  -3.721  -5.268  0.00  0.00    +0.000 OA
ATOM     28  C   UNL     1       3.780  -4.081  -5.860  0.00  0.00    +0.000 C 
ENDBRANCH  24  27
BRANCH  25  29
ATOM     29  O   UNL     1       7.579  -3.356  -4.117  0.00  0.00    +0.000 OA
ATOM     30  C   UNL     1       7.297  -2.158  -4.837  0.00  0.00    +0.000 C 
ENDBRANCH  25  29
ENDBRANCH   2  21
BRANCH   4  31
ATOM     31  O   UNL     1       8.009  -7.735   1.999  0.00  0.00    +0.000 OA
ATOM     32  H   UNL     1       8.485  -8.164   1.270  0.00  0.00    +0.000 HD
ENDBRANCH   4  31
TORSDOF 7
