MODEL 1
REMARK VINA RESULT:      -4.7      0.000      0.000
REMARK  Name = *****
REMARK  11 active torsions:
REMARK  status: ('A' for Active; 'I' for Inactive)
REMARK    1  A    between atoms: C_1  and  O_2
REMARK    2  A    between atoms: O_2  and  C_3
REMARK    3  A    between atoms: C_6  and  C_7
REMARK    4  A    between atoms: C_8  and  C_9
REMARK    5  A    between atoms: C_11  and  O_12
REMARK    6  A    between atoms: O_12  and  C_13
REMARK    7  A    between atoms: C_14  and  O_15
REMARK    8  A    between atoms: O_15  and  C_16
REMARK    9  A    between atoms: C_17  and  O_18
REMARK   10  A    between atoms: O_18  and  C_19
REMARK   11  A    between atoms: C_22  and  O_23
REMARK                            x       y       z     vdW  Elec       q    Type
REMARK                         _______ _______ _______ _____ _____    ______ ____
ROOT
ATOM      1  C   UNL     1     103.105 125.129  82.785  0.00  0.00    +0.000 C 
ATOM      2  C   UNL     1     102.346 125.896  81.984  0.00  0.00    +0.000 C 
ENDROOT
BRANCH   1   6
ATOM      3  C   UNL     1     105.872 122.220  81.258  0.00  0.00    +0.000 A 
ATOM      4  C   UNL     1     105.528 122.213  82.611  0.00  0.00    +0.000 A 
ATOM      5  C   UNL     1     104.632 123.163  83.120  0.00  0.00    +0.000 A 
ATOM      6  C   UNL     1     104.073 124.141  82.288  0.00  0.00    +0.000 A 
ATOM      7  C   UNL     1     104.403 124.140  80.928  0.00  0.00    +0.000 A 
ATOM      8  C   UNL     1     105.298 123.190  80.425  0.00  0.00    +0.000 A 
BRANCH   3  10
ATOM      9  C   UNL     1     107.170 120.227  81.426  0.00  0.00    +0.000 C 
ATOM     10  O   UNL     1     106.734 121.340  80.659  0.00  0.00    +0.000 OA
ENDBRANCH   3  10
BRANCH   8  11
ATOM     11  O   UNL     1     105.622 123.203  79.094  0.00  0.00    +0.000 OA
ATOM     12  H   UNL     1     106.018 122.450  78.700  0.00  0.00    +0.000 HD
ENDBRANCH   8  11
ENDBRANCH   1   6
BRANCH   2  13
ATOM     13  C   UNL     1     101.369 126.874  82.485  0.00  0.00    +0.000 A 
ATOM     14  C   UNL     1      99.986 126.662  82.366  0.00  0.00    +0.000 A 
ATOM     15  C   UNL     1      99.076 127.592  82.874  0.00  0.00    +0.000 A 
ATOM     16  C   UNL     1      99.569 128.747  83.504  0.00  0.00    +0.000 A 
ATOM     17  C   UNL     1     100.949 128.958  83.668  0.00  0.00    +0.000 A 
ATOM     18  C   UNL     1     101.840 128.017  83.150  0.00  0.00    +0.000 A 
BRANCH  15  19
ATOM     19  O   UNL     1      97.713 127.475  82.802  0.00  0.00    +0.000 OA
ATOM     20  C   UNL     1      97.100 126.449  83.570  0.00  0.00    +0.000 C 
ENDBRANCH  15  19
BRANCH  16  21
ATOM     21  O   UNL     1      98.683 129.649  84.054  0.00  0.00    +0.000 OA
ATOM     22  C   UNL     1      98.482 129.346  85.433  0.00  0.00    +0.000 C 
ENDBRANCH  16  21
BRANCH  17  23
ATOM     23  O   UNL     1     101.314 130.107  84.322  0.00  0.00    +0.000 OA
ATOM     24  C   UNL     1     102.482 130.057  85.130  0.00  0.00    +0.000 C 
ENDBRANCH  17  23
ENDBRANCH   2  13
TORSDOF 7
ENDMDL
