MODEL 1
REMARK VINA RESULT:      -5.0      0.000      0.000
REMARK  Name = *****
REMARK  6 active torsions:
REMARK  status: ('A' for Active; 'I' for Inactive)
REMARK    1  A    between atoms: C_1  and  O_2
REMARK    2  A    between atoms: O_2  and  C_3
REMARK    3  A    between atoms: C_21  and  O_22
REMARK    4  A    between atoms: O_22  and  C_23
REMARK    5  A    between atoms: C_24  and  O_25
REMARK    6  A    between atoms: O_25  and  C_26
REMARK                            x       y       z     vdW  Elec       q    Type
REMARK                         _______ _______ _______ _____ _____    ______ ____
ROOT
ATOM      1  C   UNL     1      86.717  67.945  87.635  0.00  0.00    +0.000 C 
ATOM      2  N   UNL     1      87.139  68.656  86.417  0.00  0.00    +0.000 N 
ATOM      3  C   UNL     1      86.353  69.835  86.061  0.00  0.00    +0.000 C 
ATOM      4  C   UNL     1      87.238  71.080  86.053  0.00  0.00    +0.000 C 
ATOM      5  C   UNL     1      88.418  70.861  85.136  0.00  0.00    +0.000 A 
ATOM      6  C   UNL     1      88.946  71.941  84.406  0.00  0.00    +0.000 A 
ATOM      7  C   UNL     1      90.018  71.694  83.582  0.00  0.00    +0.000 A 
ATOM      8  O   UNL     1      90.647  72.611  82.801  0.00  0.00    +0.000 OA
ATOM      9  C   UNL     1      91.663  71.791  82.187  0.00  0.00    +0.000 C 
ATOM     10  O   UNL     1      91.609  70.409  82.595  0.00  0.00    +0.000 OA
ATOM     11  C   UNL     1      90.565  70.440  83.466  0.00  0.00    +0.000 A 
ATOM     12  C   UNL     1      90.080  69.360  84.177  0.00  0.00    +0.000 A 
ATOM     13  C   UNL     1      88.997  69.560  85.053  0.00  0.00    +0.000 A 
ATOM     14  C   UNL     1      88.426  68.464  85.895  0.00  0.00    +0.000 C 
ATOM     15  C   UNL     1      89.129  67.355  86.192  0.00  0.00    +0.000 C 
ATOM     16  C   UNL     1      88.517  66.301  87.008  0.00  0.00    +0.000 A 
ATOM     17  C   UNL     1      89.121  65.047  87.094  0.00  0.00    +0.000 A 
ATOM     18  C   UNL     1      88.532  64.032  87.850  0.00  0.00    +0.000 A 
ATOM     19  C   UNL     1      87.325  64.248  88.526  0.00  0.00    +0.000 A 
ATOM     20  C   UNL     1      86.703  65.513  88.436  0.00  0.00    +0.000 A 
ATOM     21  C   UNL     1      87.314  66.549  87.693  0.00  0.00    +0.000 A 
ENDROOT
BRANCH   1  23
ATOM     22  C   UNL     1      86.141  69.165  89.591  0.00  0.00    +0.000 C 
ATOM     23  O   UNL     1      87.186  68.692  88.761  0.00  0.00    +0.000 OA
ENDBRANCH   1  23
BRANCH  19  24
ATOM     24  O   UNL     1      86.735  63.297  89.318  0.00  0.00    +0.000 OA
ATOM     25  C   UNL     1      86.476  62.021  88.743  0.00  0.00    +0.000 C 
ENDBRANCH  19  24
BRANCH  20  26
ATOM     26  O   UNL     1      85.531  65.868  89.061  0.00  0.00    +0.000 OA
ATOM     27  C   UNL     1      84.313  65.464  88.448  0.00  0.00    +0.000 C 
ENDBRANCH  20  26
TORSDOF 3
ENDMDL
