MODEL 1
REMARK VINA RESULT:      -5.7      0.000      0.000
REMARK  Name = *****
REMARK  0 active torsions:
REMARK  status: ('A' for Active; 'I' for Inactive)
REMARK                            x       y       z     vdW  Elec       q    Type
REMARK                         _______ _______ _______ _____ _____    ______ ____
ROOT
ATOM      1  C   UNL     1      91.030  70.519  82.988  0.00  0.00    +0.000 C 
ATOM      2  O   UNL     1      90.768  71.399  84.101  0.00  0.00    +0.000 OA
ATOM      3  C   UNL     1      90.116  70.555  84.945  0.00  0.00    +0.000 A 
ATOM      4  C   UNL     1      89.618  70.881  86.184  0.00  0.00    +0.000 A 
ATOM      5  C   UNL     1      88.958  69.876  86.911  0.00  0.00    +0.000 A 
ATOM      6  C   UNL     1      88.381  70.192  88.269  0.00  0.00    +0.000 C 
ATOM      7  C   UNL     1      87.102  69.388  88.494  0.00  0.00    +0.000 C 
ATOM      8  N   UNL     1      87.363  67.959  88.297  0.00  0.00    +0.000 N 
ATOM      9  C   UNL     1      86.441  67.059  89.007  0.00  0.00    +0.000 C 
ATOM     10  C   UNL     1      86.802  65.611  88.852  0.00  0.00    +0.000 A 
ATOM     11  C   UNL     1      87.726  65.192  87.880  0.00  0.00    +0.000 A 
ATOM     12  C   UNL     1      88.371  66.195  87.026  0.00  0.00    +0.000 C 
ATOM     13  C   UNL     1      88.166  67.509  87.239  0.00  0.00    +0.000 C 
ATOM     14  C   UNL     1      88.845  68.549  86.403  0.00  0.00    +0.000 A 
ATOM     15  C   UNL     1      89.353  68.277  85.118  0.00  0.00    +0.000 A 
ATOM     16  C   UNL     1      89.981  69.292  84.425  0.00  0.00    +0.000 A 
ATOM     17  O   UNL     1      90.528  69.180  83.184  0.00  0.00    +0.000 OA
ATOM     18  C   UNL     1      88.025  63.822  87.723  0.00  0.00    +0.000 A 
ATOM     19  C   UNL     1      87.408  62.859  88.528  0.00  0.00    +0.000 A 
ATOM     20  C   UNL     1      86.501  63.297  89.468  0.00  0.00    +0.000 A 
ATOM     21  O   UNL     1      85.806  62.502  90.325  0.00  0.00    +0.000 OA
ATOM     22  C   UNL     1      85.036  63.486  91.044  0.00  0.00    +0.000 C 
ATOM     23  O   UNL     1      85.274  64.837  90.600  0.00  0.00    +0.000 OA
ATOM     24  C   UNL     1      86.203  64.631  89.625  0.00  0.00    +0.000 A 
ENDROOT
TORSDOF 0
ENDMDL
