MODEL 1
REMARK VINA RESULT:      -4.6      0.000      0.000
REMARK  Name = *****
REMARK  3 active torsions:
REMARK  status: ('A' for Active; 'I' for Inactive)
REMARK    1  A    between atoms: C_1  and  O_2
REMARK    2  A    between atoms: O_2  and  C_3
REMARK    3  A    between atoms: C_3  and  C_14
REMARK                            x       y       z     vdW  Elec       q    Type
REMARK                         _______ _______ _______ _____ _____    ______ ____
ROOT
ATOM      1  C   UNL     1     101.602 125.980  84.212  0.00  0.00    +0.000 C 
ATOM      2  C   UNL     1     102.694 125.610  83.517  0.00  0.00    +0.000 C 
ATOM      3  C   UNL     1     103.591 124.480  83.973  0.00  0.00    +0.000 C 
ATOM      4  O   UNL     1     103.506 123.783  84.967  0.00  0.00    +0.000 OA
ATOM      5  N   UNL     1     104.600 124.415  83.026  0.00  0.00    +0.000 N 
ATOM      6  C   UNL     1     104.429 125.372  82.034  0.00  0.00    +0.000 A 
ATOM      7  C   UNL     1     105.253 125.568  80.941  0.00  0.00    +0.000 A 
ATOM      8  C   UNL     1     104.897 126.572  80.041  0.00  0.00    +0.000 A 
ATOM      9  C   UNL     1     103.738 127.339  80.250  0.00  0.00    +0.000 A 
ATOM     10  C   UNL     1     102.920 127.120  81.367  0.00  0.00    +0.000 A 
ATOM     11  C   UNL     1     103.280 126.135  82.270  0.00  0.00    +0.000 A 
ATOM     12  H   UNL     1     105.344 123.771  83.053  0.00  0.00    +0.000 HD
ENDROOT
BRANCH   1  13
ATOM     13  C   UNL     1     100.702 127.074  83.812  0.00  0.00    +0.000 A 
ATOM     14  C   UNL     1     100.999 128.393  84.173  0.00  0.00    +0.000 A 
ATOM     15  C   UNL     1     100.152 129.435  83.792  0.00  0.00    +0.000 A 
ATOM     16  C   UNL     1      99.007 129.166  83.042  0.00  0.00    +0.000 A 
ATOM     17  C   UNL     1      98.709 127.855  82.669  0.00  0.00    +0.000 A 
ATOM     18  C   UNL     1      99.554 126.811  83.050  0.00  0.00    +0.000 A 
ENDBRANCH   1  13
BRANCH   1  20
ATOM     19  C   UNL     1     101.293 125.963  86.517  0.00  0.00    +0.000 C 
ATOM     20  O   UNL     1     101.137 125.250  85.292  0.00  0.00    +0.000 OA
ENDBRANCH   1  20
TORSDOF 2
ENDMDL
