MODEL 1
REMARK VINA RESULT:      -5.0      0.000      0.000
REMARK  Name = *****
REMARK  9 active torsions:
REMARK  status: ('A' for Active; 'I' for Inactive)
REMARK    1  A    between atoms: C_1  and  O_2
REMARK    2  A    between atoms: O_2  and  C_3
REMARK    3  A    between atoms: C_4  and  C_5
REMARK    4  A    between atoms: C_5  and  C_6
REMARK    5  A    between atoms: C_7  and  C_8
REMARK    6  A    between atoms: C_7  and  C_9
REMARK    7  A    between atoms: C_10  and  O_11
REMARK    8  A    between atoms: C_14  and  C_15
REMARK    9  A    between atoms: C_20  and  O_21
REMARK                            x       y       z     vdW  Elec       q    Type
REMARK                         _______ _______ _______ _____ _____    ______ ____
ROOT
ATOM      1  C   UNL     1     104.074 123.804  82.759  0.00  0.00    +0.000 A 
ATOM      2  C   UNL     1     104.892 122.752  82.292  0.00  0.00    +0.000 A 
ATOM      3  C   UNL     1     105.277 122.777  80.944  0.00  0.00    +0.000 A 
ATOM      4  C   UNL     1     104.855 123.787  80.085  0.00  0.00    +0.000 A 
ATOM      5  C   UNL     1     104.070 124.832  80.570  0.00  0.00    +0.000 A 
ATOM      6  C   UNL     1     103.684 124.868  81.918  0.00  0.00    +0.000 A 
ENDROOT
BRANCH   6   7
ATOM      7  C   UNL     1     102.915 126.035  82.395  0.00  0.00    +0.000 C 
ATOM      8  C   UNL     1     101.576 126.033  82.332  0.00  0.00    +0.000 C 
ATOM      9  C   UNL     1     100.871 127.218  82.798  0.00  0.00    +0.000 A 
ATOM     10  C   UNL     1      99.485 127.337  82.639  0.00  0.00    +0.000 A 
ATOM     11  C   UNL     1      98.814 128.467  83.113  0.00  0.00    +0.000 A 
ATOM     12  C   UNL     1      99.534 129.470  83.755  0.00  0.00    +0.000 A 
ATOM     13  C   UNL     1     100.910 129.362  83.924  0.00  0.00    +0.000 A 
ATOM     14  C   UNL     1     101.581 128.240  83.438  0.00  0.00    +0.000 A 
ATOM     15  O   UNL     1     102.927 128.195  83.662  0.00  0.00    +0.000 OA
ATOM     16  C   UNL     1     103.687 127.213  82.936  0.00  0.00    +0.000 C 
BRANCH  12  17
ATOM     17  O   UNL     1      98.918 130.586  84.238  0.00  0.00    +0.000 OA
ATOM     18  H   UNL     1      98.160 130.504  84.782  0.00  0.00    +0.000 HD
ENDBRANCH  12  17
ENDBRANCH   6   7
BRANCH   1  20
ATOM     19  C   UNL     1     104.753 124.365  84.895  0.00  0.00    +0.000 C 
ATOM     20  O   UNL     1     103.714 123.804  84.089  0.00  0.00    +0.000 OA
ENDBRANCH   1  20
BRANCH   3  21
ATOM     21  O   UNL     1     106.092 121.828  80.391  0.00  0.00    +0.000 OA
ATOM     22  H   UNL     1     105.738 121.000  80.131  0.00  0.00    +0.000 HD
ENDBRANCH   3  21
BRANCH   2  23
ATOM     23  C   UNL     1     105.336 121.639  83.219  0.00  0.00    +0.000 C 
BRANCH  23  24
ATOM     24  C   UNL     1     104.238 120.639  83.474  0.00  0.00    +0.000 C 
ATOM     25  C   UNL     1     103.720 120.242  84.654  0.00  0.00    +0.000 C 
ATOM     26  C   UNL     1     104.158 120.719  86.011  0.00  0.00    +0.000 C 
ATOM     27  C   UNL     1     102.611 119.220  84.691  0.00  0.00    +0.000 C 
ENDBRANCH  23  24
ENDBRANCH   2  23
TORSDOF 6
ENDMDL
