MODEL 1
REMARK VINA RESULT:      -5.8      0.000      0.000
REMARK  Name = *****
REMARK  7 active torsions:
REMARK  status: ('A' for Active; 'I' for Inactive)
REMARK    1  A    between atoms: C_1  and  O_2
REMARK    2  A    between atoms: O_2  and  C_3
REMARK    3  A    between atoms: C_7  and  C_8
REMARK    4  A    between atoms: C_7  and  C_9
REMARK    5  A    between atoms: C_16  and  C_19
REMARK    6  A    between atoms: C_22  and  O_23
REMARK    7  A    between atoms: C_25  and  O_26
REMARK                            x       y       z     vdW  Elec       q    Type
REMARK                         _______ _______ _______ _____ _____    ______ ____
ROOT
ATOM      1  C   UNL     1      87.376  67.932  87.515  0.00  0.00    +0.000 A 
ATOM      2  C   UNL     1      87.438  66.615  88.014  0.00  0.00    +0.000 A 
ATOM      3  C   UNL     1      86.541  66.133  89.061  0.00  0.00    +0.000 C 
ATOM      4  C   UNL     1      86.745  64.910  89.558  0.00  0.00    +0.000 C 
ATOM      5  C   UNL     1      87.851  64.000  89.080  0.00  0.00    +0.000 C 
ATOM      6  C   UNL     1      88.908  63.854  90.182  0.00  0.00    +0.000 C 
ATOM      7  C   UNL     1      87.263  62.625  88.744  0.00  0.00    +0.000 C 
ATOM      8  O   UNL     1      88.537  64.437  87.890  0.00  0.00    +0.000 OA
ATOM      9  C   UNL     1      88.374  65.729  87.472  0.00  0.00    +0.000 A 
ATOM     10  C   UNL     1      89.203  66.130  86.425  0.00  0.00    +0.000 A 
ATOM     11  C   UNL     1      89.089  67.413  85.895  0.00  0.00    +0.000 A 
ATOM     12  O   UNL     1      89.953  67.731  84.879  0.00  0.00    +0.000 OA
ATOM     13  C   UNL     1      89.500  68.784  84.007  0.00  0.00    +0.000 C 
ATOM     14  C   UNL     1      88.778  69.909  84.705  0.00  0.00    +0.000 C 
ATOM     15  C   UNL     1      88.127  69.679  85.857  0.00  0.00    +0.000 C 
ATOM     16  C   UNL     1      88.176  68.331  86.428  0.00  0.00    +0.000 A 
ENDROOT
BRANCH  14  17
ATOM     17  C   UNL     1      88.776  71.250  84.076  0.00  0.00    +0.000 A 
ATOM     18  C   UNL     1      87.584  71.746  83.516  0.00  0.00    +0.000 A 
ATOM     19  C   UNL     1      87.531  73.014  82.928  0.00  0.00    +0.000 A 
ATOM     20  C   UNL     1      88.675  73.800  82.901  0.00  0.00    +0.000 A 
ATOM     21  C   UNL     1      89.867  73.343  83.450  0.00  0.00    +0.000 A 
ATOM     22  C   UNL     1      89.913  72.076  84.036  0.00  0.00    +0.000 A 
BRANCH  20  23
ATOM     23  O   UNL     1      88.671  75.044  82.340  0.00  0.00    +0.000 OA
ATOM     24  H   UNL     1      89.463  75.543  82.303  0.00  0.00    +0.000 HD
ENDBRANCH  20  23
BRANCH  22  25
ATOM     25  O   UNL     1      91.097  71.633  84.563  0.00  0.00    +0.000 OA
ATOM     26  H   UNL     1      91.881  72.131  84.438  0.00  0.00    +0.000 HD
ENDBRANCH  22  25
ENDBRANCH  14  17
BRANCH   1  28
ATOM     27  C   UNL     1      87.104  69.565  89.114  0.00  0.00    +0.000 C 
ATOM     28  O   UNL     1      86.479  68.828  88.059  0.00  0.00    +0.000 OA
ENDBRANCH   1  28
TORSDOF 4
ENDMDL
