REMARK  Name = *****
REMARK  12 active torsions:
REMARK  status: ('A' for Active; 'I' for Inactive)
REMARK    1  A    between atoms: C_1  and  O_2
REMARK    2  A    between atoms: O_2  and  C_3
REMARK    3  A    between atoms: C_5  and  C_6
REMARK    4  A    between atoms: C_7  and  C_8
REMARK    5  A    between atoms: C_11  and  O_12
REMARK    6  A    between atoms: O_12  and  C_13
REMARK    7  A    between atoms: C_13  and  C_15
REMARK    8  A    between atoms: C_16  and  O_17
REMARK    9  A    between atoms: O_17  and  C_18
REMARK   10  A    between atoms: C_22  and  O_23
REMARK   11  A    between atoms: O_23  and  C_24
REMARK   12  A    between atoms: C_24  and  C_26
REMARK                            x       y       z     vdW  Elec       q    Type
REMARK                         _______ _______ _______ _____ _____    ______ ____
ROOT
ATOM      1  C   UNL     1       2.436   4.865  -0.034  0.00  0.00    +0.000 C 
ATOM      2  C   UNL     1       1.401   5.045   0.802  0.00  0.00    +0.000 C 
ENDROOT
BRANCH   1   5
ATOM      3  C   UNL     1       4.774   2.058  -0.956  0.00  0.00    +0.000 A 
ATOM      4  C   UNL     1       4.285   3.294  -0.522  0.00  0.00    +0.000 A 
ATOM      5  C   UNL     1       2.902   3.541  -0.469  0.00  0.00    +0.000 A 
ATOM      6  C   UNL     1       2.006   2.548  -0.888  0.00  0.00    +0.000 A 
ATOM      7  C   UNL     1       2.478   1.313  -1.330  0.00  0.00    +0.000 A 
ATOM      8  C   UNL     1       3.852   1.077  -1.343  0.00  0.00    +0.000 A 
BRANCH   3  10
ATOM      9  C   UNL     1       7.037   2.612  -0.477  0.00  0.00    +0.000 C 
ATOM     10  O   UNL     1       6.097   1.718  -1.060  0.00  0.00    +0.000 OA
ENDBRANCH   3  10
BRANCH   8  11
ATOM     11  O   UNL     1       4.303  -0.154  -1.828  0.00  0.00    +0.000 OA
BRANCH  11  12
ATOM     12  C   UNL     1       4.604  -1.045  -0.807  0.00  0.00    +0.000 C 
ATOM     13  O   UNL     1       4.389  -0.905   0.390  0.00  0.00    +0.000 OA
ATOM     14  C   UNL     1       5.214  -2.276  -1.411  0.00  0.00    +0.000 C 
ENDBRANCH  11  12
ENDBRANCH   8  11
ENDBRANCH   1   5
BRANCH   2  15
ATOM     15  C   UNL     1       0.954   6.369   1.256  0.00  0.00    +0.000 A 
ATOM     16  C   UNL     1       0.841   7.456   0.373  0.00  0.00    +0.000 A 
ATOM     17  C   UNL     1       0.404   8.703   0.829  0.00  0.00    +0.000 A 
ATOM     18  C   UNL     1       0.078   8.859   2.174  0.00  0.00    +0.000 A 
ATOM     19  C   UNL     1       0.126   7.774   3.049  0.00  0.00    +0.000 A 
ATOM     20  C   UNL     1       0.583   6.535   2.598  0.00  0.00    +0.000 A 
BRANCH  19  21
ATOM     21  O   UNL     1      -0.202   7.918   4.371  0.00  0.00    +0.000 OA
ATOM     22  C   UNL     1      -1.605   7.715   4.549  0.00  0.00    +0.000 C 
ENDBRANCH  19  21
BRANCH  18  23
ATOM     23  O   UNL     1      -0.372  10.096   2.631  0.00  0.00    +0.000 OA
BRANCH  23  24
ATOM     24  C   UNL     1       0.672  10.919   3.033  0.00  0.00    +0.000 C 
ATOM     25  O   UNL     1       1.871  10.712   2.908  0.00  0.00    +0.000 OA
ATOM     26  C   UNL     1       0.093  12.170   3.626  0.00  0.00    +0.000 C 
ENDBRANCH  23  24
ENDBRANCH  18  23
ENDBRANCH   2  15
TORSDOF 8
