MODEL 1
REMARK VINA RESULT:      -5.1      0.000      0.000
REMARK  Name = *****
REMARK  4 active torsions:
REMARK  status: ('A' for Active; 'I' for Inactive)
REMARK    1  A    between atoms: C_1  and  S_2
REMARK    2  A    between atoms: S_2  and  C_5
REMARK    3  A    between atoms: C_8  and  C_11
REMARK    4  A    between atoms: C_12  and  C_17
REMARK                            x       y       z     vdW  Elec       q    Type
REMARK                         _______ _______ _______ _____ _____    ______ ____
ROOT
ATOM      1  C   UNL     1      89.837  70.587  84.333  0.00  0.00    +0.000 C 
ATOM      2  C   UNL     1      88.978  71.607  84.453  0.00  0.00    +0.000 C 
ATOM      3  C   UNL     1      89.655  72.772  83.849  0.00  0.00    +0.000 C 
ATOM      4  O   UNL     1      89.187  73.891  83.726  0.00  0.00    +0.000 OA
ATOM      5  O   UNL     1      90.900  72.409  83.432  0.00  0.00    +0.000 OA
ATOM      6  C   UNL     1      91.106  71.029  83.719  0.00  0.00    +0.000 C 
ENDROOT
BRANCH   1  10
ATOM      7  C   UNL     1      89.247  66.516  85.442  0.00  0.00    +0.000 A 
ATOM      8  C   UNL     1      88.945  66.928  84.144  0.00  0.00    +0.000 A 
ATOM      9  C   UNL     1      89.144  68.263  83.786  0.00  0.00    +0.000 A 
ATOM     10  C   UNL     1      89.637  69.190  84.718  0.00  0.00    +0.000 A 
ATOM     11  C   UNL     1      89.929  68.760  86.020  0.00  0.00    +0.000 A 
ATOM     12  C   UNL     1      89.724  67.427  86.388  0.00  0.00    +0.000 A 
BRANCH   7  14
ATOM     13  C   UNL     1      88.508  64.961  87.631  0.00  0.00    +0.000 C 
ATOM     14  S   UNL     1      88.966  64.827  85.923  0.00  0.00    +0.000 S 
ATOM     15  O   UNL     1      90.236  64.132  85.854  0.00  0.00    +0.000 OA
ATOM     16  O   UNL     1      87.815  64.355  85.178  0.00  0.00    +0.000 OA
ENDBRANCH   7  14
ENDBRANCH   1  10
BRANCH   2  17
ATOM     17  C   UNL     1      87.634  71.623  85.033  0.00  0.00    +0.000 A 
ATOM     18  C   UNL     1      86.520  71.969  84.251  0.00  0.00    +0.000 A 
ATOM     19  C   UNL     1      85.239  71.989  84.807  0.00  0.00    +0.000 A 
ATOM     20  C   UNL     1      85.056  71.662  86.148  0.00  0.00    +0.000 A 
ATOM     21  C   UNL     1      86.153  71.309  86.933  0.00  0.00    +0.000 A 
ATOM     22  C   UNL     1      87.434  71.285  86.376  0.00  0.00    +0.000 A 
ENDBRANCH   2  17
TORSDOF 3
ENDMDL
