MODEL 1
REMARK VINA RESULT:      -4.9      0.000      0.000
REMARK  Name = *****
REMARK  6 active torsions:
REMARK  status: ('A' for Active; 'I' for Inactive)
REMARK    1  A    between atoms: C_1  and  O_2
REMARK    2  A    between atoms: O_2  and  C_3
REMARK    3  A    between atoms: C_5  and  O_6
REMARK    4  A    between atoms: O_6  and  C_7
REMARK    5  A    between atoms: C_9  and  C_10
REMARK    6  A    between atoms: C_11  and  C_12
REMARK                            x       y       z     vdW  Elec       q    Type
REMARK                         _______ _______ _______ _____ _____    ______ ____
ROOT
ATOM      1  C   UNL     1     100.764 129.007  83.632  0.00  0.00    +0.000 A 
ATOM      2  C   UNL     1      99.403 128.766  83.423  0.00  0.00    +0.000 A 
ATOM      3  C   UNL     1      98.990 127.585  82.804  0.00  0.00    +0.000 A 
ATOM      4  C   UNL     1      99.944 126.649  82.390  0.00  0.00    +0.000 A 
ATOM      5  C   UNL     1     101.312 126.883  82.572  0.00  0.00    +0.000 A 
ATOM      6  C   UNL     1     101.707 128.065  83.209  0.00  0.00    +0.000 A 
ENDROOT
BRANCH   1   8
ATOM      7  C   UNL     1     102.687 130.072  84.550  0.00  0.00    +0.000 C 
ATOM      8  O   UNL     1     101.302 130.114  84.232  0.00  0.00    +0.000 OA
ENDBRANCH   1   8
BRANCH   3   9
ATOM      9  O   UNL     1      97.695 127.221  82.549  0.00  0.00    +0.000 OA
ATOM     10  C   UNL     1      96.889 126.865  83.665  0.00  0.00    +0.000 C 
ENDBRANCH   3   9
BRANCH   5  11
ATOM     11  C   UNL     1     102.341 125.910  82.177  0.00  0.00    +0.000 C 
ATOM     12  C   UNL     1     103.012 125.953  81.013  0.00  0.00    +0.000 C 
BRANCH  12  13
ATOM     13  C   UNL     1     104.052 124.988  80.631  0.00  0.00    +0.000 A 
ATOM     14  C   UNL     1     104.961 125.237  79.593  0.00  0.00    +0.000 A 
ATOM     15  C   UNL     1     105.957 124.307  79.282  0.00  0.00    +0.000 A 
ATOM     16  C   UNL     1     106.061 123.125  80.010  0.00  0.00    +0.000 A 
ATOM     17  C   UNL     1     105.175 122.873  81.054  0.00  0.00    +0.000 A 
ATOM     18  C   UNL     1     104.179 123.802  81.366  0.00  0.00    +0.000 A 
ENDBRANCH  12  13
ENDBRANCH   5  11
TORSDOF 4
ENDMDL
