MODEL 1
REMARK VINA RESULT:      -4.8      0.000      0.000
REMARK  Name = *****
REMARK  8 active torsions:
REMARK  status: ('A' for Active; 'I' for Inactive)
REMARK    1  A    between atoms: C_1  and  O_2
REMARK    2  A    between atoms: O_2  and  C_3
REMARK    3  A    between atoms: C_6  and  C_7
REMARK    4  A    between atoms: C_8  and  C_9
REMARK    5  A    between atoms: C_11  and  O_12
REMARK    6  A    between atoms: O_12  and  C_13
REMARK    7  A    between atoms: C_15  and  O_16
REMARK    8  A    between atoms: O_16  and  C_17
REMARK                            x       y       z     vdW  Elec       q    Type
REMARK                         _______ _______ _______ _____ _____    ______ ____
ROOT
ATOM      1  C   UNL     1     102.857 125.746  81.133  0.00  0.00    +0.000 C 
ATOM      2  C   UNL     1     102.505 126.093  82.383  0.00  0.00    +0.000 C 
ENDROOT
BRANCH   1   6
ATOM      3  C   UNL     1     106.171 123.147  80.311  0.00  0.00    +0.000 A 
ATOM      4  C   UNL     1     105.948 124.259  79.502  0.00  0.00    +0.000 A 
ATOM      5  C   UNL     1     104.864 125.111  79.756  0.00  0.00    +0.000 A 
ATOM      6  C   UNL     1     103.983 124.857  80.815  0.00  0.00    +0.000 A 
ATOM      7  C   UNL     1     104.224 123.749  81.634  0.00  0.00    +0.000 A 
ATOM      8  C   UNL     1     105.306 122.900  81.379  0.00  0.00    +0.000 A 
BRANCH   3  10
ATOM      9  C   UNL     1     107.241 121.190  81.132  0.00  0.00    +0.000 C 
ATOM     10  O   UNL     1     107.186 122.241  80.176  0.00  0.00    +0.000 OA
ENDBRANCH   3  10
ENDBRANCH   1   6
BRANCH   2  11
ATOM     11  C   UNL     1     101.388 126.996  82.700  0.00  0.00    +0.000 A 
ATOM     12  C   UNL     1     100.053 126.659  82.428  0.00  0.00    +0.000 A 
ATOM     13  C   UNL     1      99.019 127.532  82.774  0.00  0.00    +0.000 A 
ATOM     14  C   UNL     1      99.316 128.742  83.410  0.00  0.00    +0.000 A 
ATOM     15  C   UNL     1     100.635 129.083  83.703  0.00  0.00    +0.000 A 
ATOM     16  C   UNL     1     101.663 128.205  83.350  0.00  0.00    +0.000 A 
BRANCH  13  17
ATOM     17  O   UNL     1      97.683 127.320  82.556  0.00  0.00    +0.000 OA
ATOM     18  C   UNL     1      96.910 126.883  83.667  0.00  0.00    +0.000 C 
ENDBRANCH  13  17
BRANCH  15  19
ATOM     19  O   UNL     1     101.052 130.228  84.327  0.00  0.00    +0.000 OA
ATOM     20  C   UNL     1     102.441 130.335  84.613  0.00  0.00    +0.000 C 
ENDBRANCH  15  19
ENDBRANCH   2  11
TORSDOF 5
ENDMDL
