REMARK  Name = *****
REMARK  8 active torsions:
REMARK  status: ('A' for Active; 'I' for Inactive)
REMARK    1  A    between atoms: C_1  and  O_2
REMARK    2  A    between atoms: O_2  and  C_3
REMARK    3  A    between atoms: C_6  and  C_7
REMARK    4  A    between atoms: C_8  and  C_9
REMARK    5  A    between atoms: C_11  and  O_12
REMARK    6  A    between atoms: O_12  and  C_13
REMARK    7  A    between atoms: C_15  and  O_16
REMARK    8  A    between atoms: O_16  and  C_17
REMARK                            x       y       z     vdW  Elec       q    Type
REMARK                         _______ _______ _______ _____ _____    ______ ____
ROOT
ATOM      1  C   UNL     1       5.218   1.686   4.431  0.00  0.00    +0.000 C 
ATOM      2  C   UNL     1       4.805   1.574   5.704  0.00  0.00    +0.000 C 
ENDROOT
BRANCH   1   6
ATOM      3  C   UNL     1       3.120   0.197   0.996  0.00  0.00    +0.000 A 
ATOM      4  C   UNL     1       2.403   0.710   2.075  0.00  0.00    +0.000 A 
ATOM      5  C   UNL     1       3.077   1.193   3.205  0.00  0.00    +0.000 A 
ATOM      6  C   UNL     1       4.475   1.159   3.277  0.00  0.00    +0.000 A 
ATOM      7  C   UNL     1       5.188   0.658   2.183  0.00  0.00    +0.000 A 
ATOM      8  C   UNL     1       4.515   0.177   1.056  0.00  0.00    +0.000 A 
BRANCH   3  10
ATOM      9  C   UNL     1       1.171  -0.334  -0.255  0.00  0.00    +0.000 C 
ATOM     10  O   UNL     1       2.590  -0.303  -0.161  0.00  0.00    +0.000 OA
ENDBRANCH   3  10
ENDBRANCH   1   6
BRANCH   2  11
ATOM     11  C   UNL     1       5.558   2.087   6.859  0.00  0.00    +0.000 A 
ATOM     12  C   UNL     1       6.243   3.310   6.822  0.00  0.00    +0.000 A 
ATOM     13  C   UNL     1       6.920   3.776   7.951  0.00  0.00    +0.000 A 
ATOM     14  C   UNL     1       6.901   3.024   9.131  0.00  0.00    +0.000 A 
ATOM     15  C   UNL     1       6.208   1.816   9.190  0.00  0.00    +0.000 A 
ATOM     16  C   UNL     1       5.538   1.357   8.054  0.00  0.00    +0.000 A 
BRANCH  13  17
ATOM     17  O   UNL     1       7.627   4.946   8.037  0.00  0.00    +0.000 OA
ATOM     18  C   UNL     1       7.707   5.740   6.859  0.00  0.00    +0.000 C 
ENDBRANCH  13  17
BRANCH  15  19
ATOM     19  O   UNL     1       6.108   0.997  10.282  0.00  0.00    +0.000 OA
ATOM     20  C   UNL     1       6.769   1.425  11.467  0.00  0.00    +0.000 C 
ENDBRANCH  15  19
ENDBRANCH   2  11
TORSDOF 5
