REMARK  Name = *****
REMARK  12 active torsions:
REMARK  status: ('A' for Active; 'I' for Inactive)
REMARK    1  A    between atoms: C_1  and  O_2
REMARK    2  A    between atoms: O_2  and  C_3
REMARK    3  A    between atoms: C_5  and  C_6
REMARK    4  A    between atoms: C_7  and  C_8
REMARK    5  A    between atoms: C_12  and  O_13
REMARK    6  A    between atoms: O_13  and  C_14
REMARK    7  A    between atoms: C_15  and  O_16
REMARK    8  A    between atoms: O_16  and  C_17
REMARK    9  A    between atoms: C_17  and  C_19
REMARK   10  A    between atoms: C_22  and  O_23
REMARK   11  A    between atoms: O_23  and  C_24
REMARK   12  A    between atoms: C_24  and  C_26
REMARK                            x       y       z     vdW  Elec       q    Type
REMARK                         _______ _______ _______ _____ _____    ______ ____
ROOT
ATOM      1  C   UNL     1       3.065   0.931   4.651  0.00  0.00    +0.000 C 
ATOM      2  C   UNL     1       1.958   0.291   5.056  0.00  0.00    +0.000 C 
ENDROOT
BRANCH   1   5
ATOM      3  C   UNL     1       5.018   1.313   1.452  0.00  0.00    +0.000 A 
ATOM      4  C   UNL     1       4.681   1.022   2.777  0.00  0.00    +0.000 A 
ATOM      5  C   UNL     1       3.367   1.208   3.241  0.00  0.00    +0.000 A 
ATOM      6  C   UNL     1       2.392   1.718   2.373  0.00  0.00    +0.000 A 
ATOM      7  C   UNL     1       2.715   2.022   1.052  0.00  0.00    +0.000 A 
ATOM      8  C   UNL     1       4.016   1.802   0.603  0.00  0.00    +0.000 A 
BRANCH   3  10
ATOM      9  C   UNL     1       7.254   0.535   1.690  0.00  0.00    +0.000 C 
ATOM     10  O   UNL     1       6.264   1.180   0.899  0.00  0.00    +0.000 OA
ENDBRANCH   3  10
BRANCH   8  11
ATOM     11  O   UNL     1       4.331   2.156  -0.712  0.00  0.00    +0.000 OA
BRANCH  11  12
ATOM     12  C   UNL     1       4.202   1.091  -1.592  0.00  0.00    +0.000 C 
ATOM     13  O   UNL     1       3.785  -0.033  -1.343  0.00  0.00    +0.000 OA
ATOM     14  C   UNL     1       4.676   1.526  -2.948  0.00  0.00    +0.000 C 
ENDBRANCH  11  12
ENDBRANCH   8  11
ENDBRANCH   1   5
BRANCH   2  15
ATOM     15  C   UNL     1       1.666   0.056   6.475  0.00  0.00    +0.000 A 
ATOM     16  C   UNL     1       1.523  -1.260   6.922  0.00  0.00    +0.000 A 
ATOM     17  C   UNL     1       1.242  -1.523   8.265  0.00  0.00    +0.000 A 
ATOM     18  C   UNL     1       1.098  -0.474   9.180  0.00  0.00    +0.000 A 
ATOM     19  C   UNL     1       1.224   0.850   8.759  0.00  0.00    +0.000 A 
ATOM     20  C   UNL     1       1.491   1.098   7.402  0.00  0.00    +0.000 A 
BRANCH  19  21
ATOM     21  O   UNL     1       1.110   1.954   9.562  0.00  0.00    +0.000 OA
ATOM     22  C   UNL     1       0.790   1.730  10.929  0.00  0.00    +0.000 C 
ENDBRANCH  19  21
BRANCH  20  23
ATOM     23  O   UNL     1       1.628   2.430   6.986  0.00  0.00    +0.000 OA
BRANCH  23  24
ATOM     24  C   UNL     1       0.444   2.949   6.483  0.00  0.00    +0.000 C 
ATOM     25  O   UNL     1      -0.631   2.374   6.364  0.00  0.00    +0.000 OA
ATOM     26  C   UNL     1       0.683   4.372   6.072  0.00  0.00    +0.000 C 
ENDBRANCH  23  24
ENDBRANCH  20  23
ENDBRANCH   2  15
TORSDOF 8
