MODEL 1
REMARK VINA RESULT:      -4.9      0.000      0.000
REMARK  Name = *****
REMARK  7 active torsions:
REMARK  status: ('A' for Active; 'I' for Inactive)
REMARK    1  A    between atoms: C_1  and  O_2
REMARK    2  A    between atoms: O_2  and  C_3
REMARK    3  A    between atoms: N_9  and  C_10
REMARK    4  A    between atoms: C_18  and  O_19
REMARK    5  A    between atoms: O_19  and  C_20
REMARK    6  A    between atoms: C_24  and  O_25
REMARK    7  A    between atoms: O_25  and  C_26
REMARK                            x       y       z     vdW  Elec       q    Type
REMARK                         _______ _______ _______ _____ _____    ______ ____
ROOT
ATOM      1  C   UNL     1      87.400  70.631  90.337  0.00  0.00    +0.000 A 
ATOM      2  C   UNL     1      88.452  71.233  89.645  0.00  0.00    +0.000 A 
ATOM      3  C   UNL     1      88.887  70.708  88.420  0.00  0.00    +0.000 A 
ATOM      4  C   UNL     1      88.295  69.561  87.871  0.00  0.00    +0.000 A 
ATOM      5  C   UNL     1      88.764  69.088  86.560  0.00  0.00    +0.000 C 
ATOM      6  C   UNL     1      88.851  67.812  86.128  0.00  0.00    +0.000 C 
ATOM      7  N   UNL     1      89.420  67.511  84.884  0.00  0.00    +0.000 N 
ATOM      8  C   UNL     1      89.541  68.527  83.843  0.00  0.00    +0.000 C 
ATOM      9  C   UNL     1      89.962  66.255  84.584  0.00  0.00    +0.000 C 
ATOM     10  O   UNL     1      90.420  65.929  83.495  0.00  0.00    +0.000 OA
ATOM     11  C   UNL     1      90.014  65.258  85.732  0.00  0.00    +0.000 C 
ATOM     12  O   UNL     1      90.827  64.345  85.746  0.00  0.00    +0.000 OA
ATOM     13  C   UNL     1      89.025  65.418  86.801  0.00  0.00    +0.000 A 
ATOM     14  C   UNL     1      88.682  64.300  87.578  0.00  0.00    +0.000 A 
ATOM     15  C   UNL     1      87.664  64.400  88.517  0.00  0.00    +0.000 A 
ATOM     16  C   UNL     1      87.005  65.617  88.676  0.00  0.00    +0.000 A 
ATOM     17  C   UNL     1      87.371  66.738  87.911  0.00  0.00    +0.000 A 
ATOM     18  O   UNL     1      86.591  67.866  88.050  0.00  0.00    +0.000 OA
ATOM     19  C   UNL     1      87.247  68.955  88.567  0.00  0.00    +0.000 A 
ATOM     20  C   UNL     1      86.783  69.505  89.774  0.00  0.00    +0.000 A 
ATOM     21  C   UNL     1      88.416  66.667  86.972  0.00  0.00    +0.000 A 
ENDROOT
BRANCH   1  23
ATOM     22  C   UNL     1      86.270  72.342  91.555  0.00  0.00    +0.000 C 
ATOM     23  O   UNL     1      86.896  71.067  91.534  0.00  0.00    +0.000 OA
ENDBRANCH   1  23
BRANCH  16  24
ATOM     24  O   UNL     1      85.931  65.694  89.524  0.00  0.00    +0.000 OA
ATOM     25  C   UNL     1      86.308  65.315  90.849  0.00  0.00    +0.000 C 
ENDBRANCH  16  24
BRANCH  20  26
ATOM     26  O   UNL     1      85.764  68.880  90.455  0.00  0.00    +0.000 OA
ATOM     27  C   UNL     1      84.502  69.353  89.987  0.00  0.00    +0.000 C 
ENDBRANCH  20  26
TORSDOF 3
ENDMDL
