MODEL 1
REMARK VINA RESULT:      -4.8      0.000      0.000
REMARK  Name = *****
REMARK  10 active torsions:
REMARK  status: ('A' for Active; 'I' for Inactive)
REMARK    1  A    between atoms: C_1  and  O_2
REMARK    2  A    between atoms: O_2  and  C_3
REMARK    3  A    between atoms: C_5  and  O_6
REMARK    4  A    between atoms: O_6  and  C_7
REMARK    5  A    between atoms: C_9  and  C_10
REMARK    6  A    between atoms: C_11  and  C_12
REMARK    7  A    between atoms: C_15  and  O_16
REMARK    8  A    between atoms: O_16  and  C_17
REMARK    9  A    between atoms: C_18  and  O_19
REMARK   10  A    between atoms: O_19  and  C_20
REMARK                            x       y       z     vdW  Elec       q    Type
REMARK                         _______ _______ _______ _____ _____    ______ ____
ROOT
ATOM      1  C   UNL     1     102.411 126.227  82.068  0.00  0.00    +0.000 C 
ATOM      2  C   UNL     1     103.178 126.530  81.007  0.00  0.00    +0.000 C 
ENDROOT
BRANCH   1   7
ATOM      3  C   UNL     1     100.545 129.044  83.738  0.00  0.00    +0.000 A 
ATOM      4  C   UNL     1      99.214 128.669  83.541  0.00  0.00    +0.000 A 
ATOM      5  C   UNL     1      98.914 127.487  82.857  0.00  0.00    +0.000 A 
ATOM      6  C   UNL     1      99.953 126.686  82.370  0.00  0.00    +0.000 A 
ATOM      7  C   UNL     1     101.292 127.056  82.541  0.00  0.00    +0.000 A 
ATOM      8  C   UNL     1     101.572 128.235  83.241  0.00  0.00    +0.000 A 
BRANCH   3  10
ATOM      9  C   UNL     1     102.376 130.295  84.608  0.00  0.00    +0.000 C 
ATOM     10  O   UNL     1     100.977 130.166  84.394  0.00  0.00    +0.000 OA
ENDBRANCH   3  10
BRANCH   5  11
ATOM     11  O   UNL     1      97.660 127.001  82.605  0.00  0.00    +0.000 OA
ATOM     12  C   UNL     1      96.801 126.810  83.722  0.00  0.00    +0.000 C 
ENDBRANCH   5  11
ENDBRANCH   1   7
BRANCH   2  13
ATOM     13  C   UNL     1     104.308 125.710  80.545  0.00  0.00    +0.000 A 
ATOM     14  C   UNL     1     105.523 126.268  80.137  0.00  0.00    +0.000 A 
ATOM     15  C   UNL     1     106.582 125.451  79.719  0.00  0.00    +0.000 A 
ATOM     16  C   UNL     1     106.455 124.057  79.716  0.00  0.00    +0.000 A 
ATOM     17  C   UNL     1     105.255 123.492  80.180  0.00  0.00    +0.000 A 
ATOM     18  C   UNL     1     104.190 124.317  80.568  0.00  0.00    +0.000 A 
BRANCH  16  19
ATOM     19  O   UNL     1     107.431 123.203  79.279  0.00  0.00    +0.000 OA
ATOM     20  C   UNL     1     108.492 122.898  80.174  0.00  0.00    +0.000 C 
ENDBRANCH  16  19
BRANCH  17  21
ATOM     21  O   UNL     1     104.970 122.150  80.243  0.00  0.00    +0.000 OA
ATOM     22  C   UNL     1     104.755 121.643  81.556  0.00  0.00    +0.000 C 
ENDBRANCH  17  21
ENDBRANCH   2  13
TORSDOF 6
ENDMDL
