MODEL 1
REMARK VINA RESULT:      -5.4      0.000      0.000
REMARK  Name = *****
REMARK  5 active torsions:
REMARK  status: ('A' for Active; 'I' for Inactive)
REMARK    1  A    between atoms: C_1  and  C_2
REMARK    2  A    between atoms: C_2  and  C_3
REMARK    3  A    between atoms: C_9  and  O_10
REMARK    4  A    between atoms: C_13  and  C_14
REMARK    5  A    between atoms: C_19  and  O_20
REMARK                            x       y       z     vdW  Elec       q    Type
REMARK                         _______ _______ _______ _____ _____    ______ ____
ROOT
ATOM      1  C   UNL     1      87.122  72.187  84.365  0.00  0.00    +0.000 C 
ATOM      2  C   UNL     1      85.977  71.292  84.855  0.00  0.00    +0.000 C 
ATOM      3  C   UNL     1      85.418  70.482  83.679  0.00  0.00    +0.000 C 
ATOM      4  O   UNL     1      86.530  70.320  85.763  0.00  0.00    +0.000 OA
ATOM      5  C   UNL     1      86.482  70.575  87.112  0.00  0.00    +0.000 A 
ATOM      6  C   UNL     1      85.611  71.535  87.660  0.00  0.00    +0.000 A 
ATOM      7  C   UNL     1      84.688  72.238  86.770  0.00  0.00    +0.000 C 
ATOM      8  C   UNL     1      84.875  72.130  85.451  0.00  0.00    +0.000 C 
ATOM      9  C   UNL     1      85.634  71.746  89.047  0.00  0.00    +0.000 A 
ATOM     10  C   UNL     1      86.469  70.998  89.872  0.00  0.00    +0.000 A 
ATOM     11  C   UNL     1      87.312  70.035  89.321  0.00  0.00    +0.000 A 
ATOM     12  C   UNL     1      87.335  69.812  87.936  0.00  0.00    +0.000 A 
ENDROOT
BRANCH  12  13
ATOM     13  C   UNL     1      88.239  68.770  87.399  0.00  0.00    +0.000 C 
ATOM     14  C   UNL     1      87.860  67.483  87.354  0.00  0.00    +0.000 C 
ATOM     15  C   UNL     1      88.805  66.520  86.804  0.00  0.00    +0.000 A 
ATOM     16  C   UNL     1      88.579  65.143  86.911  0.00  0.00    +0.000 A 
ATOM     17  C   UNL     1      89.475  64.237  86.336  0.00  0.00    +0.000 A 
ATOM     18  C   UNL     1      90.585  64.714  85.645  0.00  0.00    +0.000 A 
ATOM     19  C   UNL     1      90.819  66.080  85.524  0.00  0.00    +0.000 A 
ATOM     20  C   UNL     1      89.935  66.980  86.116  0.00  0.00    +0.000 A 
ATOM     21  O   UNL     1      90.199  68.313  85.939  0.00  0.00    +0.000 OA
ATOM     22  C   UNL     1      89.609  69.187  86.922  0.00  0.00    +0.000 C 
BRANCH  18  23
ATOM     23  O   UNL     1      91.477  63.862  85.062  0.00  0.00    +0.000 OA
ATOM     24  H   UNL     1      91.854  64.076  84.232  0.00  0.00    +0.000 HD
ENDBRANCH  18  23
ENDBRANCH  12  13
BRANCH   9  25
ATOM     25  O   UNL     1      84.869  72.687  89.680  0.00  0.00    +0.000 OA
ATOM     26  H   UNL     1      83.949  72.546  89.789  0.00  0.00    +0.000 HD
ENDBRANCH   9  25
TORSDOF 3
ENDMDL
