MODEL 1
REMARK VINA RESULT:      -4.6      0.000      0.000
REMARK  Name = *****
REMARK  13 active torsions:
REMARK  status: ('A' for Active; 'I' for Inactive)
REMARK    1  A    between atoms: C_1  and  O_2
REMARK    2  A    between atoms: O_2  and  C_3
REMARK    3  A    between atoms: C_5  and  C_6
REMARK    4  A    between atoms: C_7  and  C_8
REMARK    5  A    between atoms: C_10  and  C_11
REMARK    6  A    between atoms: C_14  and  O_15
REMARK    7  A    between atoms: O_15  and  C_16
REMARK    8  A    between atoms: C_17  and  O_18
REMARK    9  A    between atoms: O_18  and  C_19
REMARK   10  A    between atoms: C_19  and  C_21
REMARK   11  A    between atoms: C_24  and  O_25
REMARK   12  A    between atoms: O_25  and  C_26
REMARK   13  A    between atoms: C_26  and  C_28
REMARK                            x       y       z     vdW  Elec       q    Type
REMARK                         _______ _______ _______ _____ _____    ______ ____
ROOT
ATOM      1  C   UNL     1     102.085 125.778  81.819  0.00  0.00    +0.000 C 
ATOM      2  C   UNL     1     103.328 125.501  82.240  0.00  0.00    +0.000 C 
ENDROOT
BRANCH   1   5
ATOM      3  C   UNL     1      98.979 127.616  82.900  0.00  0.00    +0.000 A 
ATOM      4  C   UNL     1      99.831 126.662  82.336  0.00  0.00    +0.000 A 
ATOM      5  C   UNL     1     101.226 126.788  82.452  0.00  0.00    +0.000 A 
ATOM      6  C   UNL     1     101.768 127.903  83.108  0.00  0.00    +0.000 A 
ATOM      7  C   UNL     1     100.930 128.867  83.666  0.00  0.00    +0.000 A 
ATOM      8  C   UNL     1      99.549 128.706  83.570  0.00  0.00    +0.000 A 
BRANCH   3  10
ATOM      9  C   UNL     1      96.940 126.703  83.710  0.00  0.00    +0.000 C 
ATOM     10  O   UNL     1      97.611 127.596  82.830  0.00  0.00    +0.000 OA
ENDBRANCH   3  10
BRANCH   8  11
ATOM     11  O   UNL     1      98.734 129.707  84.105  0.00  0.00    +0.000 OA
BRANCH  11  12
ATOM     12  C   UNL     1      98.663 129.648  85.491  0.00  0.00    +0.000 C 
ATOM     13  O   UNL     1      98.657 128.644  86.192  0.00  0.00    +0.000 OA
ATOM     14  C   UNL     1      98.649 131.049  86.029  0.00  0.00    +0.000 C 
ENDBRANCH  11  12
ENDBRANCH   8  11
ENDBRANCH   1   5
BRANCH   2  15
ATOM     15  C   UNL     1     104.173 124.492  81.587  0.00  0.00    +0.000 A 
ATOM     16  C   UNL     1     104.293 123.235  82.187  0.00  0.00    +0.000 A 
ATOM     17  C   UNL     1     105.094 122.254  81.594  0.00  0.00    +0.000 A 
ATOM     18  C   UNL     1     105.790 122.508  80.403  0.00  0.00    +0.000 A 
ATOM     19  C   UNL     1     105.698 123.761  79.799  0.00  0.00    +0.000 A 
ATOM     20  C   UNL     1     104.899 124.744  80.409  0.00  0.00    +0.000 A 
BRANCH  17  21
ATOM     21  C   UNL     1     105.197 120.928  82.235  0.00  0.00    +0.000 C 
ATOM     22  O   UNL     1     104.591 120.657  83.265  0.00  0.00    +0.000 OA
ENDBRANCH  17  21
BRANCH  19  23
ATOM     23  O   UNL     1     106.326 124.129  78.638  0.00  0.00    +0.000 OA
ATOM     24  C   UNL     1     107.746 124.048  78.616  0.00  0.00    +0.000 C 
ENDBRANCH  19  23
BRANCH  20  25
ATOM     25  O   UNL     1     104.805 125.998  79.787  0.00  0.00    +0.000 OA
BRANCH  25  26
ATOM     26  C   UNL     1     105.609 126.946  80.404  0.00  0.00    +0.000 C 
ATOM     27  O   UNL     1     106.733 126.783  80.860  0.00  0.00    +0.000 OA
ATOM     28  C   UNL     1     104.858 128.244  80.463  0.00  0.00    +0.000 C 
ENDBRANCH  25  26
ENDBRANCH  20  25
ENDBRANCH   2  15
TORSDOF 9
ENDMDL
