MODEL 1
REMARK VINA RESULT:      -5.1      0.000      0.000
REMARK  Name = *****
REMARK  6 active torsions:
REMARK  status: ('A' for Active; 'I' for Inactive)
REMARK    1  A    between atoms: C_1  and  O_2
REMARK    2  A    between atoms: O_2  and  C_3
REMARK    3  A    between atoms: C_7  and  O_8
REMARK    4  A    between atoms: C_13  and  C_14
REMARK    5  A    between atoms: C_22  and  O_23
REMARK    6  A    between atoms: O_23  and  C_24
REMARK                            x       y       z     vdW  Elec       q    Type
REMARK                         _______ _______ _______ _____ _____    ______ ____
ROOT
ATOM      1  C   UNL     1     102.421 125.600  83.813  0.00  0.00    +0.000 C 
ATOM      2  O   UNL     1     103.168 124.484  83.293  0.00  0.00    +0.000 OA
ATOM      3  C   UNL     1     103.759 124.613  82.068  0.00  0.00    +0.000 A 
ATOM      4  C   UNL     1     104.548 123.535  81.659  0.00  0.00    +0.000 A 
ATOM      5  C   UNL     1     105.186 123.583  80.426  0.00  0.00    +0.000 A 
ATOM      6  C   UNL     1     105.047 124.688  79.594  0.00  0.00    +0.000 A 
ATOM      7  C   UNL     1     104.257 125.764  80.001  0.00  0.00    +0.000 A 
ATOM      8  C   UNL     1     103.608 125.732  81.242  0.00  0.00    +0.000 A 
ATOM      9  C   UNL     1     102.763 126.839  81.661  0.00  0.00    +0.000 C 
ATOM     10  C   UNL     1     102.198 126.771  82.875  0.00  0.00    +0.000 C 
ENDROOT
BRANCH  10  11
ATOM     11  C   UNL     1     101.283 127.842  83.313  0.00  0.00    +0.000 A 
ATOM     12  C   UNL     1     101.798 128.924  84.045  0.00  0.00    +0.000 A 
ATOM     13  C   UNL     1     100.920 129.898  84.476  0.00  0.00    +0.000 A 
ATOM     14  O   UNL     1     101.252 130.999  85.203  0.00  0.00    +0.000 OA
ATOM     15  C   UNL     1      99.956 131.609  85.381  0.00  0.00    +0.000 C 
ATOM     16  O   UNL     1      98.889 130.885  84.732  0.00  0.00    +0.000 OA
ATOM     17  C   UNL     1      99.573 129.835  84.208  0.00  0.00    +0.000 A 
ATOM     18  C   UNL     1      99.026 128.798  83.485  0.00  0.00    +0.000 A 
ATOM     19  C   UNL     1      99.897 127.808  83.019  0.00  0.00    +0.000 A 
BRANCH  19  20
ATOM     20  O   UNL     1      99.351 126.764  82.311  0.00  0.00    +0.000 OA
ATOM     21  C   UNL     1      98.085 126.401  82.864  0.00  0.00    +0.000 C 
ENDBRANCH  19  20
ENDBRANCH  10  11
BRANCH   1  23
ATOM     22  C   UNL     1     104.346 126.361  85.016  0.00  0.00    +0.000 C 
ATOM     23  O   UNL     1     102.961 126.050  85.067  0.00  0.00    +0.000 OA
ENDBRANCH   1  23
BRANCH   5  24
ATOM     24  O   UNL     1     105.965 122.553  79.987  0.00  0.00    +0.000 OA
ATOM     25  H   UNL     1     106.898 122.612  80.052  0.00  0.00    +0.000 HD
ENDBRANCH   5  24
TORSDOF 4
ENDMDL
