MODEL 1
REMARK VINA RESULT:      -4.6      0.000      0.000
REMARK  Name = *****
REMARK  13 active torsions:
REMARK  status: ('A' for Active; 'I' for Inactive)
REMARK    1  A    between atoms: C_1  and  O_2
REMARK    2  A    between atoms: O_2  and  C_3
REMARK    3  A    between atoms: C_5  and  C_6
REMARK    4  A    between atoms: C_7  and  C_8
REMARK    5  A    between atoms: C_10  and  C_11
REMARK    6  A    between atoms: C_14  and  O_15
REMARK    7  A    between atoms: O_15  and  C_16
REMARK    8  A    between atoms: C_17  and  O_18
REMARK    9  A    between atoms: O_18  and  C_19
REMARK   10  A    between atoms: C_19  and  C_21
REMARK   11  A    between atoms: C_24  and  O_25
REMARK   12  A    between atoms: O_25  and  C_26
REMARK   13  A    between atoms: C_26  and  C_28
REMARK                            x       y       z     vdW  Elec       q    Type
REMARK                         _______ _______ _______ _____ _____    ______ ____
ROOT
ATOM      1  C   UNL     1     103.137 125.684  82.368  0.00  0.00    +0.000 C 
ATOM      2  C   UNL     1     103.392 125.249  81.125  0.00  0.00    +0.000 C 
ENDROOT
BRANCH   1   5
ATOM      3  C   UNL     1      99.706 127.280  82.587  0.00  0.00    +0.000 A 
ATOM      4  C   UNL     1     100.719 126.354  82.316  0.00  0.00    +0.000 A 
ATOM      5  C   UNL     1     102.048 126.611  82.700  0.00  0.00    +0.000 A 
ATOM      6  C   UNL     1     102.361 127.814  83.345  0.00  0.00    +0.000 A 
ATOM      7  C   UNL     1     101.362 128.744  83.626  0.00  0.00    +0.000 A 
ATOM      8  C   UNL     1     100.048 128.461  83.259  0.00  0.00    +0.000 A 
BRANCH   3  10
ATOM      9  C   UNL     1      97.571 126.344  83.073  0.00  0.00    +0.000 C 
ATOM     10  O   UNL     1      98.390 127.148  82.234  0.00  0.00    +0.000 OA
ENDBRANCH   3  10
BRANCH   8  11
ATOM     11  O   UNL     1      99.072 129.433  83.497  0.00  0.00    +0.000 OA
BRANCH  11  12
ATOM     12  C   UNL     1      98.787 129.579  84.847  0.00  0.00    +0.000 C 
ATOM     13  O   UNL     1      98.459 128.703  85.636  0.00  0.00    +0.000 OA
ATOM     14  C   UNL     1      98.960 131.023  85.219  0.00  0.00    +0.000 C 
ENDBRANCH  11  12
ENDBRANCH   8  11
ENDBRANCH   1   5
BRANCH   2  15
ATOM     15  C   UNL     1     104.504 124.333  80.854  0.00  0.00    +0.000 A 
ATOM     16  C   UNL     1     104.456 123.028  81.355  0.00  0.00    +0.000 A 
ATOM     17  C   UNL     1     105.505 122.143  81.090  0.00  0.00    +0.000 A 
ATOM     18  C   UNL     1     106.609 122.539  80.321  0.00  0.00    +0.000 A 
ATOM     19  C   UNL     1     106.675 123.836  79.814  0.00  0.00    +0.000 A 
ATOM     20  C   UNL     1     105.624 124.726  80.103  0.00  0.00    +0.000 A 
BRANCH  17  21
ATOM     21  C   UNL     1     105.437 120.770  81.627  0.00  0.00    +0.000 C 
ATOM     22  O   UNL     1     106.393 120.007  81.580  0.00  0.00    +0.000 OA
ENDBRANCH  17  21
BRANCH  19  23
ATOM     23  O   UNL     1     107.688 124.333  79.037  0.00  0.00    +0.000 OA
ATOM     24  C   UNL     1     108.629 123.398  78.522  0.00  0.00    +0.000 C 
ENDBRANCH  19  23
BRANCH  20  25
ATOM     25  O   UNL     1     105.676 126.018  79.563  0.00  0.00    +0.000 OA
BRANCH  25  26
ATOM     26  C   UNL     1     106.139 126.946  80.484  0.00  0.00    +0.000 C 
ATOM     27  O   UNL     1     107.032 126.786  81.308  0.00  0.00    +0.000 OA
ATOM     28  C   UNL     1     105.328 128.200  80.355  0.00  0.00    +0.000 C 
ENDBRANCH  25  26
ENDBRANCH  20  25
ENDBRANCH   2  15
TORSDOF 9
ENDMDL
