REMARK  Name = *****
REMARK  7 active torsions:
REMARK  status: ('A' for Active; 'I' for Inactive)
REMARK    1  A    between atoms: C_1  and  O_2
REMARK    2  A    between atoms: O_2  and  C_3
REMARK    3  A    between atoms: C_6  and  C_7
REMARK    4  A    between atoms: C_8  and  C_9
REMARK    5  A    between atoms: C_11  and  O_12
REMARK    6  A    between atoms: O_12  and  C_13
REMARK    7  A    between atoms: C_21  and  O_22
REMARK                            x       y       z     vdW  Elec       q    Type
REMARK                         _______ _______ _______ _____ _____    ______ ____
ROOT
ATOM      1  C   UNL     1       5.556   4.860  -0.211  0.00  0.00    +0.000 C 
ATOM      2  C   UNL     1       5.098   6.104   0.006  0.00  0.00    +0.000 C 
ENDROOT
BRANCH   2   3
ATOM      3  C   UNL     1       5.935   7.312  -0.067  0.00  0.00    +0.000 A 
ATOM      4  C   UNL     1       5.356   8.505  -0.563  0.00  0.00    +0.000 A 
ATOM      5  C   UNL     1       6.091   9.697  -0.633  0.00  0.00    +0.000 A 
ATOM      6  C   UNL     1       7.401   9.658  -0.187  0.00  0.00    +0.000 A 
ATOM      7  O   UNL     1       8.279  10.702  -0.168  0.00  0.00    +0.000 OA
ATOM      8  C   UNL     1       9.446  10.075   0.393  0.00  0.00    +0.000 C 
ATOM      9  O   UNL     1       9.255   8.680   0.703  0.00  0.00    +0.000 OA
ATOM     10  C   UNL     1       7.964   8.506   0.309  0.00  0.00    +0.000 A 
ATOM     11  C   UNL     1       7.260   7.323   0.389  0.00  0.00    +0.000 A 
BRANCH   5  12
ATOM     12  O   UNL     1       5.638  10.897  -1.098  0.00  0.00    +0.000 OA
ATOM     13  C   UNL     1       4.293  10.951  -1.553  0.00  0.00    +0.000 C 
ENDBRANCH   5  12
ENDBRANCH   2   3
BRANCH   1  17
ATOM     14  C   UNL     1       3.152   1.308  -0.016  0.00  0.00    +0.000 A 
ATOM     15  C   UNL     1       2.663   2.449  -0.655  0.00  0.00    +0.000 A 
ATOM     16  C   UNL     1       3.437   3.615  -0.716  0.00  0.00    +0.000 A 
ATOM     17  C   UNL     1       4.709   3.663  -0.133  0.00  0.00    +0.000 A 
ATOM     18  C   UNL     1       5.209   2.516   0.494  0.00  0.00    +0.000 A 
ATOM     19  C   UNL     1       4.431   1.357   0.555  0.00  0.00    +0.000 A 
BRANCH  14  21
ATOM     20  C   UNL     1       1.190   0.039  -0.486  0.00  0.00    +0.000 C 
ATOM     21  O   UNL     1       2.480   0.121   0.101  0.00  0.00    +0.000 OA
ENDBRANCH  14  21
BRANCH  19  22
ATOM     22  O   UNL     1       4.924   0.242   1.182  0.00  0.00    +0.000 OA
ATOM     23  H   UNL     1       4.407  -0.538   1.225  0.00  0.00    +0.000 HD
ENDBRANCH  19  22
ENDBRANCH   1  17
TORSDOF 5
