MODEL 1
REMARK VINA RESULT:      -5.2      0.000      0.000
REMARK  Name = *****
REMARK  9 active torsions:
REMARK  status: ('A' for Active; 'I' for Inactive)
REMARK    1  A    between atoms: C_1  and  O_2
REMARK    2  A    between atoms: O_2  and  C_3
REMARK    3  A    between atoms: C_5  and  O_6
REMARK    4  A    between atoms: C_9  and  C_10
REMARK    5  A    between atoms: C_15  and  O_16
REMARK    6  A    between atoms: C_17  and  C_18
REMARK    7  A    between atoms: C_18  and  C_19
REMARK    8  A    between atoms: C_20  and  C_21
REMARK    9  A    between atoms: C_20  and  C_22
REMARK                            x       y       z     vdW  Elec       q    Type
REMARK                         _______ _______ _______ _____ _____    ______ ____
ROOT
ATOM      1  C   UNL     1      86.885  65.827  88.451  0.00  0.00    +0.000 C 
ATOM      2  C   UNL     1      87.880  65.899  87.558  0.00  0.00    +0.000 C 
ATOM      3  C   UNL     1      88.394  67.218  87.214  0.00  0.00    +0.000 A 
ATOM      4  C   UNL     1      89.498  67.336  86.364  0.00  0.00    +0.000 A 
ATOM      5  C   UNL     1      89.982  68.594  86.009  0.00  0.00    +0.000 A 
ATOM      6  C   UNL     1      89.356  69.737  86.503  0.00  0.00    +0.000 A 
ATOM      7  C   UNL     1      88.249  69.652  87.361  0.00  0.00    +0.000 A 
ATOM      8  C   UNL     1      87.775  68.373  87.715  0.00  0.00    +0.000 A 
ATOM      9  O   UNL     1      86.682  68.320  88.539  0.00  0.00    +0.000 OA
ATOM     10  C   UNL     1      86.288  67.053  89.085  0.00  0.00    +0.000 C 
ENDROOT
BRANCH   1  16
ATOM     11  C   UNL     1      86.837  63.792  89.957  0.00  0.00    +0.000 A 
ATOM     12  C   UNL     1      86.280  62.548  90.278  0.00  0.00    +0.000 A 
ATOM     13  C   UNL     1      85.237  62.036  89.509  0.00  0.00    +0.000 A 
ATOM     14  C   UNL     1      84.734  62.738  88.423  0.00  0.00    +0.000 A 
ATOM     15  C   UNL     1      85.283  63.975  88.092  0.00  0.00    +0.000 A 
ATOM     16  C   UNL     1      86.339  64.514  88.848  0.00  0.00    +0.000 A 
BRANCH  11  18
ATOM     17  C   UNL     1      89.150  63.815  90.575  0.00  0.00    +0.000 C 
ATOM     18  O   UNL     1      87.853  64.389  90.660  0.00  0.00    +0.000 OA
ENDBRANCH  11  18
BRANCH  13  19
ATOM     19  O   UNL     1      84.669  60.828  89.794  0.00  0.00    +0.000 OA
ATOM     20  H   UNL     1      85.196  60.054  89.807  0.00  0.00    +0.000 HD
ENDBRANCH  13  19
ENDBRANCH   1  16
BRANCH   6  21
ATOM     21  O   UNL     1      89.824  70.972  86.143  0.00  0.00    +0.000 OA
ATOM     22  H   UNL     1      89.342  71.741  86.377  0.00  0.00    +0.000 HD
ENDBRANCH   6  21
BRANCH   7  23
ATOM     23  C   UNL     1      87.556  70.903  87.858  0.00  0.00    +0.000 C 
BRANCH  23  24
ATOM     24  C   UNL     1      86.505  71.398  86.896  0.00  0.00    +0.000 C 
ATOM     25  C   UNL     1      85.298  71.933  87.172  0.00  0.00    +0.000 C 
ATOM     26  C   UNL     1      84.732  72.135  88.549  0.00  0.00    +0.000 C 
ATOM     27  C   UNL     1      84.385  72.369  86.057  0.00  0.00    +0.000 C 
ENDBRANCH  23  24
ENDBRANCH   7  23
TORSDOF 6
ENDMDL
