REMARK  Name = *****
REMARK  3 active torsions:
REMARK  status: ('A' for Active; 'I' for Inactive)
REMARK    1  A    between atoms: C_6  and  N_7
REMARK    2  A    between atoms: C_8  and  O_9
REMARK    3  A    between atoms: O_9  and  C_10
REMARK                            x       y       z     vdW  Elec       q    Type
REMARK                         _______ _______ _______ _____ _____    ______ ____
ROOT
ATOM      1  O   UNL     1       5.825   0.905   1.158  0.00  0.00    +0.000 OA
ENDROOT
BRANCH   1   2
ATOM      2  C   UNL     1       6.479   2.138   1.082  0.00  0.00    +0.000 A 
ATOM      3  C   UNL     1       6.081   3.222   1.853  0.00  0.00    +0.000 A 
ATOM      4  C   UNL     1       6.822   4.391   1.768  0.00  0.00    +0.000 A 
ATOM      5  N   UNL     1       7.915   4.539   0.986  0.00  0.00    +0.000 NA
ATOM      6  C   UNL     1       8.284   3.454   0.265  0.00  0.00    +0.000 A 
ATOM      7  C   UNL     1       7.608   2.244   0.284  0.00  0.00    +0.000 A 
ATOM      8  F   UNL     1       8.026   1.209  -0.456  0.00  0.00    +0.000 F 
ATOM      9  F   UNL     1       9.369   3.578  -0.513  0.00  0.00    +0.000 F 
ATOM     10  F   UNL     1       6.440   5.451   2.494  0.00  0.00    +0.000 F 
ATOM     11  F   UNL     1       5.004   3.143   2.646  0.00  0.00    +0.000 F 
ENDBRANCH   1   2
BRANCH   1  13
ATOM     12  N   UNL     1       3.798  -0.141   0.847  0.00  0.00    +0.000 NA
ATOM     13  C   UNL     1       4.514   0.923   0.751  0.00  0.00    +0.000 C 
BRANCH  12  19
ATOM     14  C   UNL     1       1.492   0.524   1.239  0.00  0.00    +0.000 A 
ATOM     15  C   UNL     1       0.170   0.630   0.797  0.00  0.00    +0.000 A 
ATOM     16  C   UNL     1      -0.170   0.179  -0.478  0.00  0.00    +0.000 A 
ATOM     17  C   UNL     1       0.798  -0.381  -1.309  0.00  0.00    +0.000 A 
ATOM     18  C   UNL     1       2.118  -0.484  -0.863  0.00  0.00    +0.000 A 
ATOM     19  C   UNL     1       2.475  -0.020   0.406  0.00  0.00    +0.000 A 
ATOM     20 CL   UNL     1      -1.795   0.309  -1.024  0.00  0.00    +0.000 Cl
ENDBRANCH  12  19
ENDBRANCH   1  13
TORSDOF 3
