REMARK  Name = *****
REMARK  5 active torsions:
REMARK  status: ('A' for Active; 'I' for Inactive)
REMARK    1  A    between atoms: C_1  and  C_2
REMARK    2  A    between atoms: C_5  and  C_8
REMARK    3  A    between atoms: C_10  and  C_11
REMARK    4  A    between atoms: C_14  and  O_17
REMARK    5  A    between atoms: O_17  and  C_18
REMARK                            x       y       z     vdW  Elec       q    Type
REMARK                         _______ _______ _______ _____ _____    ______ ____
ROOT
ATOM      1  C   UNL     1      -3.153   0.296   0.075  0.00  0.00    +0.000 C 
ATOM      2  C   UNL     1      -3.996   1.026  -0.938  0.00  0.00    +0.000 C 
ATOM      3  C   UNL     1      -3.724   1.671   0.397  0.00  0.00    +0.000 C 
ENDROOT
BRANCH   1   8
ATOM      4  C   UNL     1       2.601  -0.409  -0.704  0.00  0.00    +0.000 C 
ATOM      5  C   UNL     1       1.128  -0.205  -0.506  0.00  0.00    +0.000 A 
ATOM      6  C   UNL     1       0.633   0.382   0.660  0.00  0.00    +0.000 A 
ATOM      7  C   UNL     1      -0.744   0.548   0.839  0.00  0.00    +0.000 A 
ATOM      8  C   UNL     1      -1.666   0.136  -0.136  0.00  0.00    +0.000 A 
ATOM      9  C   UNL     1      -1.152  -0.466  -1.294  0.00  0.00    +0.000 A 
ATOM     10  C   UNL     1       0.224  -0.635  -1.480  0.00  0.00    +0.000 A 
ENDBRANCH   1   8
BRANCH   3  11
ATOM     11  C   UNL     1      -4.819   1.796   1.429  0.00  0.00    +0.000 A 
ATOM     12  C   UNL     1      -4.642   1.321   2.739  0.00  0.00    +0.000 A 
ATOM     13  C   UNL     1      -5.642   1.447   3.711  0.00  0.00    +0.000 A 
ATOM     14  C   UNL     1      -6.850   2.063   3.393  0.00  0.00    +0.000 A 
ATOM     15  C   UNL     1      -7.042   2.548   2.100  0.00  0.00    +0.000 A 
ATOM     16  C   UNL     1      -6.039   2.420   1.134  0.00  0.00    +0.000 A 
BRANCH  14  17
ATOM     17  O   UNL     1      -7.906   2.253   4.241  0.00  0.00    +0.000 OA
ATOM     18  C   UNL     1      -7.748   1.788   5.576  0.00  0.00    +0.000 C 
ENDBRANCH  14  17
ENDBRANCH   3  11
TORSDOF 3
