REMARK  Name = *****
REMARK  4 active torsions:
REMARK  status: ('A' for Active; 'I' for Inactive)
REMARK    1  A    between atoms: C_6  and  C_7
REMARK    2  A    between atoms: C_7  and  N_8
REMARK    3  A    between atoms: N_8  and  C_9
REMARK    4  A    between atoms: C_9  and  C_11
REMARK                            x       y       z     vdW  Elec       q    Type
REMARK                         _______ _______ _______ _____ _____    ______ ____
ROOT
ATOM      1  N   UNL     1      -4.047   1.420  -0.020  0.00  0.00    +0.000 N 
ATOM      2  H   UNL     1      -3.546   2.252   0.144  0.00  0.00    +0.000 HD
ENDROOT
BRANCH   1   3
ATOM      3  C   UNL     1      -5.412   1.551  -0.222  0.00  0.00    +0.000 C 
ATOM      4  S   UNL     1      -6.466   0.283  -0.534  0.00  0.00    +0.000 S 
BRANCH   3   5
ATOM      5  C   UNL     1      -5.884   2.967  -0.157  0.00  0.00    +0.000 A 
ATOM      6  C   UNL     1      -5.227   3.943  -0.923  0.00  0.00    +0.000 A 
ATOM      7  C   UNL     1      -5.646   5.273  -0.865  0.00  0.00    +0.000 A 
ATOM      8  C   UNL     1      -6.716   5.620  -0.047  0.00  0.00    +0.000 A 
ATOM      9  C   UNL     1      -7.377   4.663   0.716  0.00  0.00    +0.000 A 
ATOM     10  C   UNL     1      -6.962   3.330   0.664  0.00  0.00    +0.000 A 
ATOM     11  F   UNL     1      -7.116   6.897   0.007  0.00  0.00    +0.000 F 
ENDBRANCH   3   5
ENDBRANCH   1   3
BRANCH   1  12
ATOM     12  C   UNL     1      -3.273   0.185  -0.025  0.00  0.00    +0.000 C 
BRANCH  12  18
ATOM     13  C   UNL     1      -2.821   0.318   2.475  0.00  0.00    +0.000 A 
ATOM     14  C   UNL     1      -2.670  -0.292   3.721  0.00  0.00    +0.000 A 
ATOM     15  C   UNL     1      -2.843  -1.666   3.839  0.00  0.00    +0.000 A 
ATOM     16  C   UNL     1      -3.168  -2.441   2.734  0.00  0.00    +0.000 A 
ATOM     17  C   UNL     1      -3.324  -1.832   1.488  0.00  0.00    +0.000 A 
ATOM     18  C   UNL     1      -3.159  -0.444   1.343  0.00  0.00    +0.000 A 
ATOM     19  F   UNL     1      -2.688  -2.250   5.034  0.00  0.00    +0.000 F 
ENDBRANCH  12  18
ENDBRANCH   1  12
TORSDOF 4
