REMARK  Name = *****
REMARK  2 active torsions:
REMARK  status: ('A' for Active; 'I' for Inactive)
REMARK    1  A    between atoms: C_6  and  C_7
REMARK    2  A    between atoms: C_8  and  C_9
REMARK                            x       y       z     vdW  Elec       q    Type
REMARK                         _______ _______ _______ _____ _____    ______ ____
ROOT
ATOM      1  C   UNL     1      -3.394   0.003  -0.073  0.00  0.00    +0.000 C 
ATOM      2  C   UNL     1      -4.188   1.086  -0.017  0.00  0.00    +0.000 C 
ENDROOT
BRANCH   2   3
ATOM      3  C   UNL     1      -5.660   1.052  -0.057  0.00  0.00    +0.000 A 
ATOM      4  C   UNL     1      -6.389   2.092   0.542  0.00  0.00    +0.000 A 
ATOM      5  C   UNL     1      -7.784   2.123   0.510  0.00  0.00    +0.000 A 
ATOM      6  C   UNL     1      -8.479   1.107  -0.139  0.00  0.00    +0.000 A 
ATOM      7  C   UNL     1      -7.768   0.081  -0.751  0.00  0.00    +0.000 A 
ATOM      8  C   UNL     1      -6.375   0.047  -0.723  0.00  0.00    +0.000 A 
ATOM      9  F   UNL     1      -8.435  -0.891  -1.388  0.00  0.00    +0.000 F 
ATOM     10  F   UNL     1      -5.748   3.091   1.168  0.00  0.00    +0.000 F 
ENDBRANCH   2   3
BRANCH   1  16
ATOM     11  C   UNL     1      -1.189   1.081  -0.636  0.00  0.00    +0.000 A 
ATOM     12  C   UNL     1       0.207   1.082  -0.583  0.00  0.00    +0.000 A 
ATOM     13  C   UNL     1       0.868   0.059   0.085  0.00  0.00    +0.000 A 
ATOM     14  C   UNL     1       0.161  -0.968   0.697  0.00  0.00    +0.000 A 
ATOM     15  C   UNL     1      -1.235  -0.969   0.644  0.00  0.00    +0.000 A 
ATOM     16  C   UNL     1      -1.925   0.062  -0.012  0.00  0.00    +0.000 A 
ATOM     17  F   UNL     1       2.207   0.059   0.134  0.00  0.00    +0.000 F 
ENDBRANCH   1  16
TORSDOF 2
