REMARK  Name = *****
REMARK  3 active torsions:
REMARK  status: ('A' for Active; 'I' for Inactive)
REMARK    1  A    between atoms: C_1  and  C_2
REMARK    2  A    between atoms: C_8  and  C_9
REMARK    3  A    between atoms: C_9  and  C_10
REMARK                            x       y       z     vdW  Elec       q    Type
REMARK                         _______ _______ _______ _____ _____    ______ ____
ROOT
ATOM      1  C   UNL     1       0.821  -0.107  -0.051  0.00  0.00    +0.000 C 
ATOM      2  C   UNL     1       2.348  -0.028  -0.143  0.00  0.00    +0.000 C 
ATOM      3  C   UNL     1       2.811   1.096  -1.085  0.00  0.00    +0.000 C 
ATOM      4  C   UNL     1       2.606   0.767  -2.564  0.00  0.00    +0.000 C 
ATOM      5  C   UNL     1       3.254  -0.566  -2.931  0.00  0.00    +0.000 C 
ATOM      6  C   UNL     1       2.767  -1.703  -2.033  0.00  0.00    +0.000 C 
ATOM      7  C   UNL     1       2.946  -1.362  -0.570  0.00  0.00    +0.000 C 
ATOM      8  C   UNL     1       3.580  -2.146   0.326  0.00  0.00    +0.000 C 
ENDROOT
BRANCH   8   9
ATOM      9  C   UNL     1       4.253  -3.469   0.080  0.00  0.00    +0.000 C 
BRANCH   9  10
ATOM     10  C   UNL     1       3.326  -4.650   0.241  0.00  0.00    +0.000 A 
ATOM     11  C   UNL     1       3.014  -5.464  -0.858  0.00  0.00    +0.000 A 
ATOM     12  C   UNL     1       2.160  -6.558  -0.712  0.00  0.00    +0.000 A 
ATOM     13  C   UNL     1       1.608  -6.852   0.533  0.00  0.00    +0.000 A 
ATOM     14  C   UNL     1       1.910  -6.052   1.634  0.00  0.00    +0.000 A 
ATOM     15  C   UNL     1       2.766  -4.959   1.490  0.00  0.00    +0.000 A 
ENDBRANCH   9  10
ENDBRANCH   8   9
TORSDOF 2
