REMARK  Name = *****
REMARK  4 active torsions:
REMARK  status: ('A' for Active; 'I' for Inactive)
REMARK    1  A    between atoms: C_1  and  C_2
REMARK    2  A    between atoms: C_3  and  C_16
REMARK    3  A    between atoms: C_5  and  C_8
REMARK    4  A    between atoms: N_9  and  C_10
REMARK                            x       y       z     vdW  Elec       q    Type
REMARK                         _______ _______ _______ _____ _____    ______ ____
ROOT
ATOM      1  C   UNL     1       1.878   1.434   0.135  0.00  0.00    +0.000 C 
ATOM      2  C   UNL     1       0.566   0.700   0.075  0.00  0.00    +0.000 A 
ATOM      3  C   UNL     1       0.508  -0.680  -0.212  0.00  0.00    +0.000 A 
ATOM      4  C   UNL     1      -0.741  -1.322  -0.258  0.00  0.00    +0.000 A 
ATOM      5  C   UNL     1      -1.916  -0.605  -0.012  0.00  0.00    +0.000 A 
ATOM      6  C   UNL     1      -1.859   0.756   0.279  0.00  0.00    +0.000 A 
ATOM      7  C   UNL     1      -0.624   1.404   0.322  0.00  0.00    +0.000 A 
ATOM      8  C   UNL     1       1.756  -1.477  -0.481  0.00  0.00    +0.000 C 
ENDROOT
BRANCH   5   9
ATOM      9  C   UNL     1      -3.209  -1.314  -0.067  0.00  0.00    +0.000 C 
ATOM     10  N   UNL     1      -4.332  -0.715   0.174  0.00  0.00    +0.000 NA
BRANCH  10  11
ATOM     11  C   UNL     1      -5.481  -1.514   0.086  0.00  0.00    +0.000 A 
ATOM     12  C   UNL     1      -5.889  -2.298   1.169  0.00  0.00    +0.000 A 
ATOM     13  C   UNL     1      -7.041  -3.082   1.079  0.00  0.00    +0.000 A 
ATOM     14  C   UNL     1      -7.798  -3.076  -0.092  0.00  0.00    +0.000 A 
ATOM     15  C   UNL     1      -7.407  -2.282  -1.170  0.00  0.00    +0.000 A 
ATOM     16  C   UNL     1      -6.254  -1.500  -1.077  0.00  0.00    +0.000 A 
ENDBRANCH  10  11
ENDBRANCH   5   9
TORSDOF 2
