REMARK  Name = *****
REMARK  6 active torsions:
REMARK  status: ('A' for Active; 'I' for Inactive)
REMARK    1  A    between atoms: C_1  and  C_2
REMARK    2  A    between atoms: C_2  and  C_3
REMARK    3  A    between atoms: C_3  and  C_4
REMARK    4  A    between atoms: C_4  and  C_5
REMARK    5  A    between atoms: C_6  and  C_9
REMARK    6  A    between atoms: C_10  and  C_11
REMARK                            x       y       z     vdW  Elec       q    Type
REMARK                         _______ _______ _______ _____ _____    ______ ____
ROOT
ATOM      1  C   UNL     1       5.083   2.946  -0.130  0.00  0.00    +0.000 C 
ATOM      2  C   UNL     1       4.488   4.155  -0.101  0.00  0.00    +0.000 C 
ATOM      3  C   UNL     1       5.732   4.901  -0.515  0.00  0.00    +0.000 C 
ATOM      4  C   UNL     1       6.422   3.525  -0.553  0.00  0.00    +0.000 C 
ENDROOT
BRANCH   2   5
ATOM      5  C   UNL     1       3.093   4.601   0.228  0.00  0.00    +0.000 C 
ATOM      6  C   UNL     1       1.977   4.955   0.494  0.00  0.00    +0.000 C 
BRANCH   6   7
ATOM      7  C   UNL     1       0.647   5.373   0.815  0.00  0.00    +0.000 A 
ATOM      8  C   UNL     1      -0.358   4.421   1.006  0.00  0.00    +0.000 A 
ATOM      9  C   UNL     1      -1.656   4.829   1.320  0.00  0.00    +0.000 A 
ATOM     10  C   UNL     1      -1.950   6.187   1.443  0.00  0.00    +0.000 A 
ATOM     11  C   UNL     1      -0.948   7.139   1.252  0.00  0.00    +0.000 A 
ATOM     12  C   UNL     1       0.350   6.732   0.938  0.00  0.00    +0.000 A 
ENDBRANCH   6   7
ENDBRANCH   2   5
BRANCH   1  13
ATOM     13  C   UNL     1       4.593   1.534   0.153  0.00  0.00    +0.000 C 
BRANCH  13  14
ATOM     14  C   UNL     1       5.689   0.484   0.085  0.00  0.00    +0.000 C 
BRANCH  14  16
ATOM     15  C   UNL     1       6.235  -1.966   0.316  0.00  0.00    +0.000 C 
ATOM     16  C   UNL     1       5.139  -0.913   0.372  0.00  0.00    +0.000 C 
ENDBRANCH  14  16
ENDBRANCH  13  14
ENDBRANCH   1  13
TORSDOF 5
