REMARK  Name = *****
REMARK  3 active torsions:
REMARK  status: ('A' for Active; 'I' for Inactive)
REMARK    1  A    between atoms: C_4  and  C_7
REMARK    2  A    between atoms: N_8  and  C_9
REMARK    3  A    between atoms: C_12  and  S_15
REMARK                            x       y       z     vdW  Elec       q    Type
REMARK                         _______ _______ _______ _____ _____    ______ ____
ROOT
ATOM      1  C   UNL     1      -2.896   0.292  -0.156  0.00  0.00    +0.000 C 
ATOM      2  N   UNL     1      -3.653  -0.531  -0.813  0.00  0.00    +0.000 NA
ENDROOT
BRANCH   1   6
ATOM      3  C   UNL     1       1.328  -0.202   0.134  0.00  0.00    +0.000 A 
ATOM      4  C   UNL     1       0.573  -1.134  -0.580  0.00  0.00    +0.000 A 
ATOM      5  C   UNL     1      -0.810  -0.981  -0.681  0.00  0.00    +0.000 A 
ATOM      6  C   UNL     1      -1.435   0.107  -0.065  0.00  0.00    +0.000 A 
ATOM      7  C   UNL     1      -0.681   1.041   0.652  0.00  0.00    +0.000 A 
ATOM      8  C   UNL     1       0.703   0.883   0.749  0.00  0.00    +0.000 A 
ENDBRANCH   1   6
BRANCH   2   9
ATOM      9  C   UNL     1      -5.022  -0.232  -0.815  0.00  0.00    +0.000 A 
ATOM     10  C   UNL     1      -5.565   0.583  -1.811  0.00  0.00    +0.000 A 
ATOM     11  C   UNL     1      -6.933   0.871  -1.822  0.00  0.00    +0.000 A 
ATOM     12  C   UNL     1      -7.771   0.333  -0.842  0.00  0.00    +0.000 A 
ATOM     13  C   UNL     1      -7.232  -0.490   0.150  0.00  0.00    +0.000 A 
ATOM     14  C   UNL     1      -5.863  -0.776   0.157  0.00  0.00    +0.000 A 
BRANCH  12  15
ATOM     15  S   UNL     1      -9.512   0.697  -0.840  0.00  0.00    +0.000 S 
ATOM     16  H   UNL     1      -9.807   1.510  -1.890  0.00  0.00    +0.000 HD
ENDBRANCH  12  15
ENDBRANCH   2   9
TORSDOF 3
