REMARK  Name = *****
REMARK  2 active torsions:
REMARK  status: ('A' for Active; 'I' for Inactive)
REMARK    1  A    between atoms: C_2  and  C_10
REMARK    2  A    between atoms: C_10  and  C_11
REMARK                            x       y       z     vdW  Elec       q    Type
REMARK                         _______ _______ _______ _____ _____    ______ ____
ROOT
ATOM      1  C   UNL     1      -2.547  -0.698   0.209  0.00  0.00    +0.000 C 
ATOM      2  C   UNL     1      -1.928   0.709   0.055  0.00  0.00    +0.000 C 
ATOM      3  C   UNL     1      -0.425   0.514   0.096  0.00  0.00    +0.000 A 
ATOM      4  C   UNL     1       0.531   1.504   0.317  0.00  0.00    +0.000 A 
ATOM      5  C   UNL     1       1.887   1.171   0.266  0.00  0.00    +0.000 A 
ATOM      6  C   UNL     1       2.287  -0.139  -0.022  0.00  0.00    +0.000 A 
ATOM      7  C   UNL     1       1.334  -1.127  -0.266  0.00  0.00    +0.000 A 
ATOM      8  C   UNL     1      -0.010  -0.788  -0.206  0.00  0.00    +0.000 A 
ATOM      9  S   UNL     1      -1.366  -1.885  -0.495  0.00  0.00    +0.000 S 
ENDROOT
BRANCH   2  10
ATOM     10  C   UNL     1      -2.458   1.679   1.127  0.00  0.00    +0.000 C 
BRANCH  10  11
ATOM     11  C   UNL     1      -3.955   1.877   1.074  0.00  0.00    +0.000 A 
ATOM     12  C   UNL     1      -4.777   1.348   2.078  0.00  0.00    +0.000 A 
ATOM     13  C   UNL     1      -6.161   1.526   2.026  0.00  0.00    +0.000 A 
ATOM     14  C   UNL     1      -6.734   2.234   0.971  0.00  0.00    +0.000 A 
ATOM     15  C   UNL     1      -5.925   2.765  -0.031  0.00  0.00    +0.000 A 
ATOM     16  C   UNL     1      -4.542   2.588   0.019  0.00  0.00    +0.000 A 
ENDBRANCH  10  11
ENDBRANCH   2  10
TORSDOF 2
