REMARK  Name = *****
REMARK  0 active torsions:
REMARK  status: ('A' for Active; 'I' for Inactive)
REMARK                            x       y       z     vdW  Elec       q    Type
REMARK                         _______ _______ _______ _____ _____    ______ ____
ROOT
ATOM      1  C   UNL     1      -2.581   0.342   0.310  0.00  0.00    +0.000 C 
ATOM      2  C   UNL     1      -2.297  -0.727  -0.737  0.00  0.00    +0.000 C 
ATOM      3  C   UNL     1      -1.073  -1.564  -0.368  0.00  0.00    +0.000 C 
ATOM      4  C   UNL     1       0.204  -0.720  -0.114  0.00  0.00    +0.000 C 
ATOM      5  C   UNL     1      -0.132   0.376   0.935  0.00  0.00    +0.000 C 
ATOM      6  C   UNL     1      -1.360   1.214   0.578  0.00  0.00    +0.000 C 
ATOM      7  C   UNL     1       1.303  -1.662   0.445  0.00  0.00    +0.000 C 
ATOM      8  C   UNL     1       2.676  -0.999   0.555  0.00  0.00    +0.000 C 
ATOM      9  C   UNL     1       3.162  -0.389  -0.773  0.00  0.00    +0.000 C 
ATOM     10  C   UNL     1       2.084   0.548  -1.342  0.00  0.00    +0.000 C 
ATOM     11  C   UNL     1       0.704  -0.104  -1.448  0.00  0.00    +0.000 C 
ATOM     12  C   UNL     1       3.538  -1.478  -1.809  0.00  0.00    +0.000 C 
ATOM     13  O   UNL     1       4.577  -2.346  -1.342  0.00  0.00    +0.000 OA
ATOM     14  O   UNL     1       5.626  -1.506  -0.762  0.00  0.00    +0.000 OA
ATOM     15  O   UNL     1       5.458  -0.108  -1.120  0.00  0.00    +0.000 OA
ATOM     16  O   UNL     1       4.295   0.447  -0.446  0.00  0.00    +0.000 OA
ENDROOT
TORSDOF 0
