REMARK  Name = *****
REMARK  3 active torsions:
REMARK  status: ('A' for Active; 'I' for Inactive)
REMARK    1  A    between atoms: C_2  and  C_3
REMARK    2  A    between atoms: C_6  and  C_9
REMARK    3  A    between atoms: C_10  and  C_11
REMARK                            x       y       z     vdW  Elec       q    Type
REMARK                         _______ _______ _______ _____ _____    ______ ____
ROOT
ATOM      1  C   UNL     1       3.947   0.045   0.153  0.00  0.00    +0.000 A 
ATOM      2  C   UNL     1       4.624   1.265   0.041  0.00  0.00    +0.000 A 
ATOM      3  C   UNL     1       6.003   1.284  -0.188  0.00  0.00    +0.000 A 
ATOM      4  C   UNL     1       6.710   0.085  -0.308  0.00  0.00    +0.000 A 
ATOM      5  C   UNL     1       6.038  -1.134  -0.189  0.00  0.00    +0.000 A 
ATOM      6  C   UNL     1       4.659  -1.155   0.041  0.00  0.00    +0.000 A 
ENDROOT
BRANCH   1   8
ATOM      7  C   UNL     1       1.349   0.007   0.554  0.00  0.00    +0.000 C 
ATOM      8  C   UNL     1       2.529   0.024   0.374  0.00  0.00    +0.000 C 
ENDBRANCH   1   8
BRANCH   4   9
ATOM      9  C   UNL     1       8.115   0.106  -0.574  0.00  0.00    +0.000 C 
ATOM     10  C   UNL     1       9.289   0.126  -0.829  0.00  0.00    +0.000 C 
BRANCH  10  11
ATOM     11  C   UNL     1      10.678   0.153  -1.166  0.00  0.00    +0.000 A 
ATOM     12  C   UNL     1      11.334   1.375  -1.333  0.00  0.00    +0.000 A 
ATOM     13  C   UNL     1      12.686   1.401  -1.684  0.00  0.00    +0.000 A 
ATOM     14  C   UNL     1      13.382   0.206  -1.867  0.00  0.00    +0.000 A 
ATOM     15  C   UNL     1      12.729  -1.015  -1.698  0.00  0.00    +0.000 A 
ATOM     16  C   UNL     1      11.378  -1.043  -1.347  0.00  0.00    +0.000 A 
ENDBRANCH  10  11
ENDBRANCH   4   9
TORSDOF 3
