REMARK  Name = *****
REMARK  4 active torsions:
REMARK  status: ('A' for Active; 'I' for Inactive)
REMARK    1  A    between atoms: C_4  and  N_7
REMARK    2  A    between atoms: N_7  and  P_8
REMARK    3  A    between atoms: P_8  and  N_9
REMARK    4  A    between atoms: N_9  and  C_10
REMARK                            x       y       z     vdW  Elec       q    Type
REMARK                         _______ _______ _______ _____ _____    ______ ____
ROOT
ATOM      1  N   UNL     1      -2.895  -0.159  -0.163  0.00  0.00    +0.000 N 
ATOM      2  H   UNL     1      -3.358   0.578   0.297  0.00  0.00    +0.000 HD
ENDROOT
BRANCH   1   6
ATOM      3  C   UNL     1       1.322   0.183  -0.124  0.00  0.00    +0.000 A 
ATOM      4  C   UNL     1       0.731  -0.895  -0.778  0.00  0.00    +0.000 A 
ATOM      5  C   UNL     1      -0.663  -1.025  -0.798  0.00  0.00    +0.000 A 
ATOM      6  C   UNL     1      -1.493  -0.091  -0.164  0.00  0.00    +0.000 A 
ATOM      7  C   UNL     1      -0.872   0.992   0.482  0.00  0.00    +0.000 A 
ATOM      8  C   UNL     1       0.520   1.129   0.506  0.00  0.00    +0.000 A 
ENDBRANCH   1   6
BRANCH   1   9
ATOM      9  P   UNL     1      -3.887  -1.332  -0.842  0.00  0.00    +0.000 P 
BRANCH   9  10
ATOM     10  N   UNL     1      -5.148  -0.682  -0.265  0.00  0.00    +0.000 NA
BRANCH  10  11
ATOM     11  C   UNL     1      -6.305  -1.323  -0.554  0.00  0.00    +0.000 A 
ATOM     12  C   UNL     1      -6.804  -2.361   0.257  0.00  0.00    +0.000 A 
ATOM     13  C   UNL     1      -8.036  -2.972  -0.003  0.00  0.00    +0.000 A 
ATOM     14  C   UNL     1      -8.814  -2.542  -1.074  0.00  0.00    +0.000 A 
ATOM     15  C   UNL     1      -8.361  -1.500  -1.878  0.00  0.00    +0.000 A 
ATOM     16  C   UNL     1      -7.128  -0.894  -1.613  0.00  0.00    +0.000 A 
ENDBRANCH  10  11
ENDBRANCH   9  10
ENDBRANCH   1   9
TORSDOF 4
