REMARK  Name = *****
REMARK  4 active torsions:
REMARK  status: ('A' for Active; 'I' for Inactive)
REMARK    1  A    between atoms: C_1  and  N_2
REMARK    2  A    between atoms: N_2  and  C_3
REMARK    3  A    between atoms: N_2  and  C_10
REMARK    4  A    between atoms: C_3  and  C_4
REMARK                            x       y       z     vdW  Elec       q    Type
REMARK                         _______ _______ _______ _____ _____    ______ ____
ROOT
ATOM      1  C   UNL     1       1.130  -0.327   0.075  0.00  0.00    +0.000 C 
ATOM      2  N   UNL     1       2.537   0.043  -0.030  0.00  0.00    +0.000 N 
ENDROOT
BRANCH   2   3
ATOM      3  C   UNL     1       3.289   0.308   1.113  0.00  0.00    +0.000 A 
ATOM      4  C   UNL     1       2.785   0.099   2.410  0.00  0.00    +0.000 A 
ATOM      5  C   UNL     1       3.542   0.379   3.556  0.00  0.00    +0.000 A 
ATOM      6  C   UNL     1       4.826   0.890   3.429  0.00  0.00    +0.000 A 
ATOM      7  C   UNL     1       5.354   1.125   2.168  0.00  0.00    +0.000 A 
ATOM      8  C   UNL     1       4.589   0.839   1.029  0.00  0.00    +0.000 A 
ATOM      9 CL   UNL     1       5.758   1.236   4.832  0.00  0.00    +0.000 Cl
ENDBRANCH   2   3
BRANCH   2  10
ATOM     10  C   UNL     1       3.215  -0.362  -1.272  0.00  0.00    +0.000 C 
BRANCH  10  11
ATOM     11  C   UNL     1       3.377   0.761  -2.279  0.00  0.00    +0.000 A 
ATOM     12  C   UNL     1       2.831   2.041  -2.099  0.00  0.00    +0.000 A 
ATOM     13  C   UNL     1       3.003   3.035  -3.066  0.00  0.00    +0.000 A 
ATOM     14  C   UNL     1       3.720   2.763  -4.229  0.00  0.00    +0.000 A 
ATOM     15  C   UNL     1       4.266   1.498  -4.427  0.00  0.00    +0.000 A 
ATOM     16  C   UNL     1       4.095   0.504  -3.460  0.00  0.00    +0.000 A 
ENDBRANCH  10  11
ENDBRANCH   2  10
TORSDOF 3
