REMARK  Name = *****
REMARK  3 active torsions:
REMARK  status: ('A' for Active; 'I' for Inactive)
REMARK    1  A    between atoms: C_3  and  C_8
REMARK    2  A    between atoms: C_8  and  O_10
REMARK    3  A    between atoms: O_10  and  C_11
REMARK                            x       y       z     vdW  Elec       q    Type
REMARK                         _______ _______ _______ _____ _____    ______ ____
ROOT
ATOM      1  C   UNL     1      -1.651   2.322  -0.894  0.00  0.00    +0.000 C 
ATOM      2  O   UNL     1      -2.849   2.427  -1.105  0.00  0.00    +0.000 OA
ENDROOT
BRANCH   1   5
ATOM      3  C   UNL     1      -1.360  -1.151   0.561  0.00  0.00    +0.000 A 
ATOM      4  C   UNL     1      -1.880   0.020   0.003  0.00  0.00    +0.000 A 
ATOM      5  C   UNL     1      -1.036   1.101  -0.303  0.00  0.00    +0.000 A 
ATOM      6  C   UNL     1       0.336   0.996  -0.045  0.00  0.00    +0.000 A 
ATOM      7  C   UNL     1       0.838  -0.177   0.511  0.00  0.00    +0.000 A 
ATOM      8  C   UNL     1       0.006  -1.248   0.816  0.00  0.00    +0.000 A 
ATOM      9  F   UNL     1       2.151  -0.274   0.758  0.00  0.00    +0.000 F 
ENDBRANCH   1   5
BRANCH   1  10
ATOM     10  O   UNL     1      -0.671   3.263  -1.145  0.00  0.00    +0.000 OA
BRANCH  10  11
ATOM     11  C   UNL     1      -1.160   4.445  -1.710  0.00  0.00    +0.000 A 
ATOM     12  C   UNL     1      -1.501   4.487  -3.061  0.00  0.00    +0.000 A 
ATOM     13  C   UNL     1      -1.936   5.693  -3.603  0.00  0.00    +0.000 A 
ATOM     14  C   UNL     1      -2.014   6.842  -2.812  0.00  0.00    +0.000 A 
ATOM     15  C   UNL     1      -1.649   6.788  -1.464  0.00  0.00    +0.000 A 
ATOM     16  C   UNL     1      -1.213   5.585  -0.910  0.00  0.00    +0.000 A 
ATOM     17 CL   UNL     1      -2.373   5.773  -5.266  0.00  0.00    +0.000 Cl
ENDBRANCH  10  11
ENDBRANCH   1  10
TORSDOF 3
