REMARK  Name = *****
REMARK  3 active torsions:
REMARK  status: ('A' for Active; 'I' for Inactive)
REMARK    1  A    between atoms: C_3  and  C_8
REMARK    2  A    between atoms: C_8  and  C_9
REMARK    3  A    between atoms: C_9  and  C_10
REMARK                            x       y       z     vdW  Elec       q    Type
REMARK                         _______ _______ _______ _____ _____    ______ ____
ROOT
ATOM      1  C   UNL     1      -1.945   2.491   0.015  0.00  0.00    +0.000 C 
ENDROOT
BRANCH   1   4
ATOM      2  C   UNL     1      -0.105  -0.601   1.286  0.00  0.00    +0.000 A 
ATOM      3  C   UNL     1      -0.827   0.596   1.261  0.00  0.00    +0.000 A 
ATOM      4  C   UNL     1      -1.185   1.188   0.040  0.00  0.00    +0.000 A 
ATOM      5  C   UNL     1      -0.799   0.567  -1.155  0.00  0.00    +0.000 A 
ATOM      6  C   UNL     1      -0.081  -0.624  -1.117  0.00  0.00    +0.000 A 
ATOM      7  C   UNL     1       0.269  -1.213   0.092  0.00  0.00    +0.000 A 
ATOM      8  F   UNL     1       0.282  -1.211  -2.266  0.00  0.00    +0.000 F 
ENDBRANCH   1   4
BRANCH   1   9
ATOM      9  C   UNL     1      -1.000   3.696   0.026  0.00  0.00    +0.000 C 
BRANCH   9  10
ATOM     10  C   UNL     1      -1.759   4.999   0.001  0.00  0.00    +0.000 A 
ATOM     11  C   UNL     1      -2.143   5.621   1.196  0.00  0.00    +0.000 A 
ATOM     12  C   UNL     1      -2.858   6.814   1.159  0.00  0.00    +0.000 A 
ATOM     13  C   UNL     1      -3.207   7.404  -0.049  0.00  0.00    +0.000 A 
ATOM     14  C   UNL     1      -2.834   6.792  -1.244  0.00  0.00    +0.000 A 
ATOM     15  C   UNL     1      -2.116   5.593  -1.219  0.00  0.00    +0.000 A 
ATOM     16  F   UNL     1      -3.219   7.401   2.308  0.00  0.00    +0.000 F 
ENDBRANCH   9  10
ENDBRANCH   1   9
TORSDOF 3
