REMARK  Name = *****
REMARK  4 active torsions:
REMARK  status: ('A' for Active; 'I' for Inactive)
REMARK    1  A    between atoms: C_7  and  O_8
REMARK    2  A    between atoms: O_8  and  C_9
REMARK    3  A    between atoms: C_9  and  C_11
REMARK    4  A    between atoms: C_11  and  C_12
REMARK                            x       y       z     vdW  Elec       q    Type
REMARK                         _______ _______ _______ _____ _____    ______ ____
ROOT
ATOM      1  C   UNL     1       3.903   0.125  -0.627  0.00  0.00    +0.000 C 
ATOM      2  O   UNL     1       3.835   0.175  -1.849  0.00  0.00    +0.000 OA
ENDROOT
BRANCH   1   3
ATOM      3  O   UNL     1       2.843   0.227   0.225  0.00  0.00    +0.000 OA
BRANCH   3  10
ATOM      4  C   UNL     1      -1.326   0.030  -0.558  0.00  0.00    +0.000 C 
ATOM      5  C   UNL     1      -0.736   1.333   0.000  0.00  0.00    +0.000 C 
ATOM      6  C   UNL     1       0.556   0.860   0.685  0.00  0.00    +0.000 C 
ATOM      7  C   UNL     1       0.125  -0.495   1.254  0.00  0.00    +0.000 C 
ATOM      8  C   UNL     1      -0.308  -1.032  -0.108  0.00  0.00    +0.000 C 
ATOM      9  C   UNL     1       0.982  -0.873  -0.934  0.00  0.00    +0.000 C 
ATOM     10  C   UNL     1       1.572   0.449  -0.402  0.00  0.00    +0.000 C 
ENDBRANCH   3  10
ENDBRANCH   1   3
BRANCH   1  11
ATOM     11  C   UNL     1       5.186  -0.067   0.144  0.00  0.00    +0.000 C 
BRANCH  11  12
ATOM     12  C   UNL     1       5.668   1.198   0.804  0.00  0.00    +0.000 A 
ATOM     13  C   UNL     1       5.374   1.457   2.150  0.00  0.00    +0.000 A 
ATOM     14  C   UNL     1       5.805   2.640   2.752  0.00  0.00    +0.000 A 
ATOM     15  C   UNL     1       6.527   3.576   2.015  0.00  0.00    +0.000 A 
ATOM     16  C   UNL     1       6.817   3.333   0.674  0.00  0.00    +0.000 A 
ATOM     17  C   UNL     1       6.388   2.150   0.069  0.00  0.00    +0.000 A 
ENDBRANCH  11  12
ENDBRANCH   1  11
TORSDOF 4
