REMARK  Name = *****
REMARK  2 active torsions:
REMARK  status: ('A' for Active; 'I' for Inactive)
REMARK    1  A    between atoms: C_4  and  O_7
REMARK    2  A    between atoms: O_7  and  C_8
REMARK                            x       y       z     vdW  Elec       q    Type
REMARK                         _______ _______ _______ _____ _____    ______ ____
ROOT
ATOM      1  C   UNL     1      -3.868  -0.624  -0.114  0.00  0.00    +0.000 A 
ATOM      2  N   UNL     1      -4.096  -1.792   0.452  0.00  0.00    +0.000 NA
ATOM      3  C   UNL     1      -5.284  -2.181  -0.107  0.00  0.00    +0.000 A 
ATOM      4  C   UNL     1      -5.729  -1.213  -0.996  0.00  0.00    +0.000 A 
ATOM      5  O   UNL     1      -4.816  -0.199  -1.000  0.00  0.00    +0.000 OA
ATOM      6  C   UNL     1      -6.902  -1.292  -1.736  0.00  0.00    +0.000 A 
ATOM      7  C   UNL     1      -7.656  -2.452  -1.535  0.00  0.00    +0.000 A 
ATOM      8  C   UNL     1      -7.250  -3.457  -0.647  0.00  0.00    +0.000 A 
ATOM      9  C   UNL     1      -6.055  -3.335   0.081  0.00  0.00    +0.000 A 
ATOM     10 CL   UNL     1      -9.130  -2.650  -2.407  0.00  0.00    +0.000 Cl
ENDROOT
BRANCH   1  11
ATOM     11  O   UNL     1      -2.861   0.220   0.074  0.00  0.00    +0.000 OA
BRANCH  11  15
ATOM     12  C   UNL     1       0.535  -0.630   2.327  0.00  0.00    +0.000 A 
ATOM     13  C   UNL     1       0.015  -1.620   1.493  0.00  0.00    +0.000 A 
ATOM     14  C   UNL     1      -1.130  -1.367   0.734  0.00  0.00    +0.000 A 
ATOM     15  C   UNL     1      -1.764  -0.126   0.822  0.00  0.00    +0.000 A 
ATOM     16  C   UNL     1      -1.229   0.872   1.641  0.00  0.00    +0.000 A 
ATOM     17  C   UNL     1      -0.085   0.617   2.399  0.00  0.00    +0.000 A 
ENDBRANCH  11  15
ENDBRANCH   1  11
TORSDOF 2
