REMARK  Name = *****
REMARK  2 active torsions:
REMARK  status: ('A' for Active; 'I' for Inactive)
REMARK    1  A    between atoms: C_4  and  C_7
REMARK    2  A    between atoms: C_8  and  C_11
REMARK                            x       y       z     vdW  Elec       q    Type
REMARK                         _______ _______ _______ _____ _____    ______ ____
ROOT
ATOM      1  C   UNL     1      -2.850   0.425  -0.202  0.00  0.00    +0.000 C 
ATOM      2  C   UNL     1      -3.848  -0.085   0.832  0.00  0.00    +0.000 C 
ATOM      3  C   UNL     1      -3.819  -0.670  -0.555  0.00  0.00    +0.000 C 
ATOM      4 CL   UNL     1      -3.348  -2.340  -0.741  0.00  0.00    +0.000 Cl
ENDROOT
BRANCH   1   8
ATOM      5  C   UNL     1       1.411  -0.188   0.346  0.00  0.00    +0.000 A 
ATOM      6  C   UNL     1       0.816  -0.466  -0.881  0.00  0.00    +0.000 A 
ATOM      7  C   UNL     1      -0.557  -0.272  -1.051  0.00  0.00    +0.000 A 
ATOM      8  C   UNL     1      -1.371   0.189  -0.002  0.00  0.00    +0.000 A 
ATOM      9  C   UNL     1      -0.740   0.474   1.222  0.00  0.00    +0.000 A 
ATOM     10  C   UNL     1       0.633   0.284   1.398  0.00  0.00    +0.000 A 
ENDBRANCH   1   8
BRANCH   2  11
ATOM     11  C   UNL     1      -5.002   0.792   1.259  0.00  0.00    +0.000 A 
ATOM     12  C   UNL     1      -6.327   0.327   1.209  0.00  0.00    +0.000 A 
ATOM     13  C   UNL     1      -7.396   1.130   1.614  0.00  0.00    +0.000 A 
ATOM     14  C   UNL     1      -7.159   2.418   2.087  0.00  0.00    +0.000 A 
ATOM     15  C   UNL     1      -5.855   2.898   2.158  0.00  0.00    +0.000 A 
ATOM     16  C   UNL     1      -4.790   2.090   1.751  0.00  0.00    +0.000 A 
ENDBRANCH   2  11
TORSDOF 2
