REMARK  Name = *****
REMARK  2 active torsions:
REMARK  status: ('A' for Active; 'I' for Inactive)
REMARK    1  A    between atoms: C_6  and  C_7
REMARK    2  A    between atoms: C_8  and  C_9
REMARK                            x       y       z     vdW  Elec       q    Type
REMARK                         _______ _______ _______ _____ _____    ______ ____
ROOT
ATOM      1  C   UNL     1       5.135   1.226  -0.066  0.00  0.00    +0.000 A 
ATOM      2  C   UNL     1       5.781   2.328  -0.649  0.00  0.00    +0.000 A 
ATOM      3  C   UNL     1       7.171   2.423  -0.680  0.00  0.00    +0.000 A 
ATOM      4  C   UNL     1       7.948   1.423  -0.119  0.00  0.00    +0.000 A 
ATOM      5  C   UNL     1       7.336   0.333   0.479  0.00  0.00    +0.000 A 
ATOM      6  C   UNL     1       5.945   0.237   0.511  0.00  0.00    +0.000 A 
ATOM      7  F   UNL     1       5.398  -0.823   1.125  0.00  0.00    +0.000 F 
ATOM      8  F   UNL     1       8.084  -0.631   1.035  0.00  0.00    +0.000 F 
ATOM      9  F   UNL     1       9.284   1.514  -0.146  0.00  0.00    +0.000 F 
ATOM     10  F   UNL     1       7.755   3.486  -1.251  0.00  0.00    +0.000 F 
ATOM     11  F   UNL     1       5.056   3.317  -1.195  0.00  0.00    +0.000 F 
ENDROOT
BRANCH   1  13
ATOM     12  C   UNL     1       2.905   0.089  -0.012  0.00  0.00    +0.000 C 
ATOM     13  C   UNL     1       3.660   1.200  -0.045  0.00  0.00    +0.000 C 
BRANCH  12  19
ATOM     14  C   UNL     1       0.686   1.062   0.664  0.00  0.00    +0.000 A 
ATOM     15  C   UNL     1      -0.697   0.975   0.630  0.00  0.00    +0.000 A 
ATOM     16  N   UNL     1      -1.374   0.004  -0.018  0.00  0.00    +0.000 NA
ATOM     17  C   UNL     1      -0.633  -0.926  -0.655  0.00  0.00    +0.000 A 
ATOM     18  C   UNL     1       0.753  -0.925  -0.678  0.00  0.00    +0.000 A 
ATOM     19  C   UNL     1       1.434   0.099  -0.017  0.00  0.00    +0.000 A 
ENDBRANCH  12  19
ENDBRANCH   1  13
TORSDOF 2
