REMARK  Name = *****
REMARK  4 active torsions:
REMARK  status: ('A' for Active; 'I' for Inactive)
REMARK    1  A    between atoms: C_4  and  C_8
REMARK    2  A    between atoms: C_8  and  O_10
REMARK    3  A    between atoms: O_10  and  C_11
REMARK    4  A    between atoms: C_11  and  C_12
REMARK                            x       y       z     vdW  Elec       q    Type
REMARK                         _______ _______ _______ _____ _____    ______ ____
ROOT
ATOM      1  C   UNL     1       2.588   1.342   0.230  0.00  0.00    +0.000 C 
ATOM      2  O   UNL     1       2.626   2.475   0.688  0.00  0.00    +0.000 OA
ENDROOT
BRANCH   1   6
ATOM      3  C   UNL     1      -0.398   1.096   1.155  0.00  0.00    +0.000 C 
ATOM      4  C   UNL     1      -0.483  -0.370   0.731  0.00  0.00    +0.000 C 
ATOM      5  C   UNL     1       0.972  -0.634   0.286  0.00  0.00    +0.000 C 
ATOM      6  C   UNL     1       1.372   0.705  -0.408  0.00  0.00    +0.000 C 
ATOM      7  C   UNL     1       0.100   1.568  -0.217  0.00  0.00    +0.000 C 
ATOM      8  C   UNL     1      -0.988   0.959  -1.076  0.00  0.00    +0.000 C 
ATOM      9  C   UNL     1      -1.330  -0.209  -0.510  0.00  0.00    +0.000 C 
ENDBRANCH   1   6
BRANCH   1  10
ATOM     10  O   UNL     1       3.641   0.480   0.174  0.00  0.00    +0.000 OA
BRANCH  10  11
ATOM     11  C   UNL     1       4.846   0.929   0.805  0.00  0.00    +0.000 C 
BRANCH  11  12
ATOM     12  C   UNL     1       4.901   0.389   2.210  0.00  0.00    +0.000 A 
ATOM     13  C   UNL     1       5.339  -0.921   2.453  0.00  0.00    +0.000 A 
ATOM     14  C   UNL     1       5.366  -1.427   3.754  0.00  0.00    +0.000 A 
ATOM     15  C   UNL     1       4.946  -0.635   4.821  0.00  0.00    +0.000 A 
ATOM     16  C   UNL     1       4.496   0.664   4.588  0.00  0.00    +0.000 A 
ATOM     17  C   UNL     1       4.470   1.172   3.289  0.00  0.00    +0.000 A 
ENDBRANCH  11  12
ENDBRANCH  10  11
ENDBRANCH   1  10
TORSDOF 4
