REMARK  Name = *****
REMARK  4 active torsions:
REMARK  status: ('A' for Active; 'I' for Inactive)
REMARK    1  A    between atoms: C_3  and  C_11
REMARK    2  A    between atoms: C_5  and  C_7
REMARK    3  A    between atoms: C_11  and  O_13
REMARK    4  A    between atoms: O_13  and  C_14
REMARK                            x       y       z     vdW  Elec       q    Type
REMARK                         _______ _______ _______ _____ _____    ______ ____
ROOT
ATOM      1  C   UNL     1      -1.476  -2.105  -0.782  0.00  0.00    +0.000 C 
ATOM      2  O   UNL     1      -2.683  -2.003  -0.933  0.00  0.00    +0.000 OA
ENDROOT
BRANCH   1   5
ATOM      3  C   UNL     1       1.498  -0.066   0.448  0.00  0.00    +0.000 A 
ATOM      4  C   UNL     1       0.749  -1.143  -0.031  0.00  0.00    +0.000 A 
ATOM      5  C   UNL     1      -0.624  -0.996  -0.267  0.00  0.00    +0.000 A 
ATOM      6  C   UNL     1      -1.237   0.241  -0.012  0.00  0.00    +0.000 A 
ATOM      7  C   UNL     1      -0.492   1.328   0.477  0.00  0.00    +0.000 A 
ATOM      8  C   UNL     1       0.883   1.161   0.697  0.00  0.00    +0.000 A 
BRANCH   7   9
ATOM      9  C   UNL     1      -1.156   2.662   0.721  0.00  0.00    +0.000 C 
ATOM     10  F   UNL     1      -2.441   2.546   1.154  0.00  0.00    +0.000 F 
ATOM     11  F   UNL     1      -0.514   3.415   1.657  0.00  0.00    +0.000 F 
ATOM     12  F   UNL     1      -1.204   3.425  -0.405  0.00  0.00    +0.000 F 
ENDBRANCH   7   9
ENDBRANCH   1   5
BRANCH   1  13
ATOM     13  O   UNL     1      -0.694  -3.214  -1.051  0.00  0.00    +0.000 OA
BRANCH  13  14
ATOM     14  C   UNL     1      -1.400  -4.308  -1.562  0.00  0.00    +0.000 A 
ATOM     15  C   UNL     1      -1.928  -4.275  -2.852  0.00  0.00    +0.000 A 
ATOM     16  C   UNL     1      -2.576  -5.406  -3.337  0.00  0.00    +0.000 A 
ATOM     17  C   UNL     1      -2.685  -6.559  -2.569  0.00  0.00    +0.000 A 
ATOM     18  C   UNL     1      -2.131  -6.573  -1.295  0.00  0.00    +0.000 A 
ATOM     19  C   UNL     1      -1.478  -5.457  -0.780  0.00  0.00    +0.000 A 
ATOM     20  F   UNL     1      -2.218  -7.683  -0.551  0.00  0.00    +0.000 F 
ATOM     21  F   UNL     1      -3.095  -5.388  -4.572  0.00  0.00    +0.000 F 
ENDBRANCH  13  14
ENDBRANCH   1  13
TORSDOF 4
