REMARK  Name = *****
REMARK  5 active torsions:
REMARK  status: ('A' for Active; 'I' for Inactive)
REMARK    1  A    between atoms: C_1  and  C_2
REMARK    2  A    between atoms: C_5  and  C_8
REMARK    3  A    between atoms: C_8  and  C_9
REMARK    4  A    between atoms: C_9  and  C_11
REMARK    5  A    between atoms: C_14  and  C_17
REMARK                            x       y       z     vdW  Elec       q    Type
REMARK                         _______ _______ _______ _____ _____    ______ ____
ROOT
ATOM      1  C   UNL     1      -3.330  -0.164  -0.092  0.00  0.00    +0.000 C 
ATOM      2 BR   UNL     1      -4.401   1.284  -0.848  0.00  0.00    +0.000 Br
ENDROOT
BRANCH   1   7
ATOM      3  C   UNL     1       2.469   0.641  -0.058  0.00  0.00    +0.000 C 
ATOM      4  C   UNL     1       0.979   0.469  -0.036  0.00  0.00    +0.000 A 
ATOM      5  C   UNL     1       0.326  -0.045   1.085  0.00  0.00    +0.000 A 
ATOM      6  C   UNL     1      -1.064  -0.214   1.089  0.00  0.00    +0.000 A 
ATOM      7  C   UNL     1      -1.845   0.136  -0.025  0.00  0.00    +0.000 A 
ATOM      8  C   UNL     1      -1.169   0.636  -1.155  0.00  0.00    +0.000 A 
ATOM      9  C   UNL     1       0.219   0.808  -1.158  0.00  0.00    +0.000 A 
ENDBRANCH   1   7
BRANCH   1  10
ATOM     10  C   UNL     1      -3.990  -0.721   1.160  0.00  0.00    +0.000 C 
ATOM     11  O   UNL     1      -4.141  -1.944   1.262  0.00  0.00    +0.000 OA
BRANCH  10  12
ATOM     12  C   UNL     1      -4.426   0.121   2.331  0.00  0.00    +0.000 A 
ATOM     13  C   UNL     1      -4.169   1.488   2.477  0.00  0.00    +0.000 A 
ATOM     14  C   UNL     1      -4.694   2.197   3.570  0.00  0.00    +0.000 A 
ATOM     15  C   UNL     1      -5.448   1.546   4.553  0.00  0.00    +0.000 A 
ATOM     16  C   UNL     1      -5.643   0.168   4.448  0.00  0.00    +0.000 A 
ATOM     17  C   UNL     1      -5.144  -0.532   3.347  0.00  0.00    +0.000 A 
ATOM     18  C   UNL     1      -6.032   2.293   5.716  0.00  0.00    +0.000 C 
ENDBRANCH  10  12
ENDBRANCH   1  10
TORSDOF 3
