REMARK  Name = *****
REMARK  7 active torsions:
REMARK  status: ('A' for Active; 'I' for Inactive)
REMARK    1  A    between atoms: C_1  and  C_2
REMARK    2  A    between atoms: C_5  and  S_8
REMARK    3  A    between atoms: S_8  and  C_9
REMARK    4  A    between atoms: C_9  and  C_10
REMARK    5  A    between atoms: C_11  and  C_15
REMARK    6  A    between atoms: C_15  and  O_17
REMARK    7  A    between atoms: O_17  and  C_18
REMARK                            x       y       z     vdW  Elec       q    Type
REMARK                         _______ _______ _______ _____ _____    ______ ____
ROOT
ATOM      1  C   UNL     1      -4.183   1.671   0.033  0.00  0.00    +0.000 C 
ENDROOT
BRANCH   1   2
ATOM      2  C   UNL     1      -5.680   1.754  -0.105  0.00  0.00    +0.000 A 
ATOM      3  C   UNL     1      -6.434   1.596  -1.270  0.00  0.00    +0.000 A 
ATOM      4  S   UNL     1      -8.120   1.773  -0.953  0.00  0.00    +0.000 S 
ATOM      5  C   UNL     1      -7.865   2.051   0.705  0.00  0.00    +0.000 A 
ATOM      6  C   UNL     1      -6.532   2.016   1.029  0.00  0.00    +0.000 A 
BRANCH   3   7
ATOM      7  C   UNL     1      -6.053   1.311  -2.650  0.00  0.00    +0.000 C 
ATOM      8  O   UNL     1      -6.819   1.135  -3.592  0.00  0.00    +0.000 OA
BRANCH   7   9
ATOM      9  O   UNL     1      -4.695   1.278  -2.778  0.00  0.00    +0.000 OA
ATOM     10  C   UNL     1      -4.235   0.981  -4.097  0.00  0.00    +0.000 C 
ENDBRANCH   7   9
ENDBRANCH   3   7
ENDBRANCH   1   2
BRANCH   1  11
ATOM     11  S   UNL     1      -3.662  -0.066   0.237  0.00  0.00    +0.000 S 
BRANCH  11  16
ATOM     12  C   UNL     1       2.440  -0.027  -0.092  0.00  0.00    +0.000 C 
ATOM     13  C   UNL     1       0.941  -0.001  -0.044  0.00  0.00    +0.000 A 
ATOM     14  C   UNL     1       0.262   1.173   0.296  0.00  0.00    +0.000 A 
ATOM     15  C   UNL     1      -1.135   1.191   0.382  0.00  0.00    +0.000 A 
ATOM     16  C   UNL     1      -1.880   0.035   0.132  0.00  0.00    +0.000 A 
ATOM     17  C   UNL     1      -1.194  -1.144  -0.186  0.00  0.00    +0.000 A 
ATOM     18  C   UNL     1       0.202  -1.164  -0.271  0.00  0.00    +0.000 A 
ENDBRANCH  11  16
ENDBRANCH   1  11
TORSDOF 5
