REMARK  Name = *****
REMARK  5 active torsions:
REMARK  status: ('A' for Active; 'I' for Inactive)
REMARK    1  A    between atoms: C_1  and  C_2
REMARK    2  A    between atoms: C_2  and  C_18
REMARK    3  A    between atoms: P_5  and  S_9
REMARK    4  A    between atoms: S_9  and  S_10
REMARK    5  A    between atoms: S_10  and  C_11
REMARK                            x       y       z     vdW  Elec       q    Type
REMARK                         _______ _______ _______ _____ _____    ______ ____
ROOT
ATOM      1  C   UNL     1      -1.489  -0.935  -2.555  0.00  0.00    +0.000 C 
ATOM      2  C   UNL     1      -1.185  -0.437  -1.134  0.00  0.00    +0.000 C 
ATOM      3  C   UNL     1      -0.167  -1.386  -0.481  0.00  0.00    +0.000 C 
ATOM      4  O   UNL     1       0.417  -0.740   0.644  0.00  0.00    +0.000 OA
ATOM      5  P   UNL     1       1.462   0.468   0.295  0.00  0.00    +0.000 P 
ATOM      6  S   UNL     1       1.419   1.829   1.699  0.00  0.00    +0.000 S 
ATOM      7  O   UNL     1       0.792   1.000  -1.090  0.00  0.00    +0.000 OA
ATOM      8  C   UNL     1      -0.626   1.001  -1.168  0.00  0.00    +0.000 C 
ATOM      9  C   UNL     1      -2.499  -0.436  -0.331  0.00  0.00    +0.000 C 
ENDROOT
BRANCH   5  10
ATOM     10  S   UNL     1       3.316  -0.464  -0.142  0.00  0.00    +0.000 S 
BRANCH  10  11
ATOM     11  S   UNL     1       3.958   0.629  -1.762  0.00  0.00    +0.000 S 
BRANCH  11  12
ATOM     12  C   UNL     1       3.093  -0.158  -3.112  0.00  0.00    +0.000 C 
ATOM     13  C   UNL     1       2.281   0.604  -3.946  0.00  0.00    +0.000 C 
ATOM     14  C   UNL     1       1.558  -0.011  -4.978  0.00  0.00    +0.000 C 
ATOM     15  C   UNL     1       1.605  -1.393  -5.232  0.00  0.00    +0.000 C 
ATOM     16  C   UNL     1       2.466  -2.117  -4.390  0.00  0.00    +0.000 C 
ATOM     17  C   UNL     1       3.202  -1.525  -3.355  0.00  0.00    +0.000 C 
ATOM     18  O   UNL     1       0.918  -1.946  -6.151  0.00  0.00    +0.000 OA
ENDBRANCH  11  12
ENDBRANCH  10  11
ENDBRANCH   5  10
TORSDOF 3
