REMARK  Name = *****
REMARK  4 active torsions:
REMARK  status: ('A' for Active; 'I' for Inactive)
REMARK    1  A    between atoms: C_4  and  C_7
REMARK    2  A    between atoms: C_7  and  S_8
REMARK    3  A    between atoms: S_8  and  C_9
REMARK    4  A    between atoms: C_10  and  O_16
REMARK                            x       y       z     vdW  Elec       q    Type
REMARK                         _______ _______ _______ _____ _____    ______ ____
ROOT
ATOM      1  C   UNL     1       5.004  -2.504  -0.179  0.00  0.00    +0.000 A 
ATOM      2  C   UNL     1       6.160  -1.791   0.172  0.00  0.00    +0.000 A 
ATOM      3  C   UNL     1       7.351  -1.957  -0.529  0.00  0.00    +0.000 A 
ATOM      4  C   UNL     1       7.399  -2.858  -1.591  0.00  0.00    +0.000 A 
ATOM      5  C   UNL     1       6.257  -3.577  -1.933  0.00  0.00    +0.000 A 
ATOM      6  C   UNL     1       5.062  -3.411  -1.238  0.00  0.00    +0.000 A 
ATOM      7  F   UNL     1       6.309  -4.445  -2.952  0.00  0.00    +0.000 F 
ENDROOT
BRANCH   2   8
ATOM      8  O   UNL     1       6.164  -0.909   1.218  0.00  0.00    +0.000 OA
ATOM      9  H   UNL     1       5.382  -0.769   1.716  0.00  0.00    +0.000 HD
ENDBRANCH   2   8
BRANCH   1  10
ATOM     10  S   UNL     1       3.474  -2.270   0.710  0.00  0.00    +0.000 S 
BRANCH  10  11
ATOM     11  C   UNL     1       2.805  -0.870  -0.260  0.00  0.00    +0.000 C 
BRANCH  11  15
ATOM     12  C   UNL     1      -1.420   0.303  -0.326  0.00  0.00    +0.000 C 
ATOM     13  C   UNL     1      -1.065  -1.037   0.309  0.00  0.00    +0.000 C 
ATOM     14  C   UNL     1       0.332  -1.504  -0.095  0.00  0.00    +0.000 C 
ATOM     15  C   UNL     1       1.406  -0.446   0.220  0.00  0.00    +0.000 C 
ATOM     16  C   UNL     1       1.029   0.899  -0.428  0.00  0.00    +0.000 C 
ATOM     17  C   UNL     1      -0.367   1.361  -0.018  0.00  0.00    +0.000 C 
ENDBRANCH  11  15
ENDBRANCH  10  11
ENDBRANCH   1  10
TORSDOF 4
