REMARK  Name = *****
REMARK  4 active torsions:
REMARK  status: ('A' for Active; 'I' for Inactive)
REMARK    1  A    between atoms: C_1  and  C_2
REMARK    2  A    between atoms: C_2  and  C_4
REMARK    3  A    between atoms: C_7  and  C_10
REMARK    4  A    between atoms: C_11  and  C_12
REMARK                            x       y       z     vdW  Elec       q    Type
REMARK                         _______ _______ _______ _____ _____    ______ ____
ROOT
ATOM      1  C   UNL     1       3.215   0.803  -0.978  0.00  0.00    +0.000 A 
ATOM      2  C   UNL     1       2.717   2.096  -1.170  0.00  0.00    +0.000 A 
ATOM      3  C   UNL     1       3.277   2.928  -2.148  0.00  0.00    +0.000 A 
ATOM      4  C   UNL     1       4.344   2.486  -2.940  0.00  0.00    +0.000 A 
ATOM      5  C   UNL     1       4.828   1.186  -2.755  0.00  0.00    +0.000 A 
ATOM      6  C   UNL     1       4.273   0.353  -1.778  0.00  0.00    +0.000 A 
ENDROOT
BRANCH   1   8
ATOM      7  C   UNL     1       1.522   0.350   0.921  0.00  0.00    +0.000 C 
ATOM      8  C   UNL     1       2.655  -0.124   0.049  0.00  0.00    +0.000 C 
ATOM      9  O   UNL     1       3.119  -1.256   0.171  0.00  0.00    +0.000 OA
ENDBRANCH   1   8
BRANCH   4  10
ATOM     10  C   UNL     1       4.932   3.322  -3.997  0.00  0.00    +0.000 C 
ATOM     11  C   UNL     1       5.203   4.627  -3.837  0.00  0.00    +0.000 C 
BRANCH  11  12
ATOM     12  C   UNL     1       5.779   5.424  -4.871  0.00  0.00    +0.000 A 
ATOM     13  C   UNL     1       6.115   5.122  -6.185  0.00  0.00    +0.000 A 
ATOM     14  C   UNL     1       6.677   6.227  -6.893  0.00  0.00    +0.000 A 
ATOM     15  C   UNL     1       6.750   7.335  -6.095  0.00  0.00    +0.000 A 
ATOM     16  S   UNL     1       6.163   7.079  -4.534  0.00  0.00    +0.000 S 
ATOM     17 CL   UNL     1       7.358   8.878  -6.538  0.00  0.00    +0.000 Cl
ENDBRANCH  11  12
ENDBRANCH   4  10
TORSDOF 3
