REMARK  Name = *****
REMARK  2 active torsions:
REMARK  status: ('A' for Active; 'I' for Inactive)
REMARK    1  A    between atoms: C_7  and  S_8
REMARK    2  A    between atoms: S_8  and  C_9
REMARK                            x       y       z     vdW  Elec       q    Type
REMARK                         _______ _______ _______ _____ _____    ______ ____
ROOT
ATOM      1  C   UNL     1      -1.203  -0.571  -0.651  0.00  0.00    +0.000 C 
ATOM      2  C   UNL     1      -1.109   0.949  -0.449  0.00  0.00    +0.000 C 
ATOM      3  C   UNL     1       0.128   1.103   0.458  0.00  0.00    +0.000 C 
ATOM      4  C   UNL     1      -0.020  -0.119   1.367  0.00  0.00    +0.000 C 
ATOM      5  C   UNL     1      -0.040  -1.104   0.199  0.00  0.00    +0.000 C 
ATOM      6  C   UNL     1       1.293  -0.780  -0.494  0.00  0.00    +0.000 C 
ATOM      7  C   UNL     1       1.386   0.764  -0.385  0.00  0.00    +0.000 C 
ATOM      8  F   UNL     1       2.287  -1.405   0.188  0.00  0.00    +0.000 F 
ENDROOT
BRANCH   7   9
ATOM      9  S   UNL     1       2.939   1.364   0.386  0.00  0.00    +0.000 S 
BRANCH   9  10
ATOM     10  C   UNL     1       2.734   3.126   0.204  0.00  0.00    +0.000 A 
ATOM     11  C   UNL     1       2.705   3.930   1.348  0.00  0.00    +0.000 A 
ATOM     12  C   UNL     1       2.551   5.313   1.235  0.00  0.00    +0.000 A 
ATOM     13  C   UNL     1       2.435   5.901  -0.023  0.00  0.00    +0.000 A 
ATOM     14  C   UNL     1       2.479   5.108  -1.168  0.00  0.00    +0.000 A 
ATOM     15  C   UNL     1       2.633   3.725  -1.056  0.00  0.00    +0.000 A 
ENDBRANCH   9  10
ENDBRANCH   7   9
TORSDOF 2
