REMARK  Name = *****
REMARK  4 active torsions:
REMARK  status: ('A' for Active; 'I' for Inactive)
REMARK    1  A    between atoms: C_4  and  C_7
REMARK    2  A    between atoms: C_7  and  C_8
REMARK    3  A    between atoms: C_8  and  C_9
REMARK    4  A    between atoms: C_12  and  C_15
REMARK                            x       y       z     vdW  Elec       q    Type
REMARK                         _______ _______ _______ _____ _____    ______ ____
ROOT
ATOM      1  C   UNL     1      -3.567  -0.711  -0.634  0.00  0.00    +0.000 C 
ENDROOT
BRANCH   1   2
ATOM      2  C   UNL     1      -5.056  -0.467  -0.692  0.00  0.00    +0.000 A 
ATOM      3  C   UNL     1      -5.608   0.310  -1.720  0.00  0.00    +0.000 A 
ATOM      4  C   UNL     1      -6.984   0.550  -1.764  0.00  0.00    +0.000 A 
ATOM      5  C   UNL     1      -7.821   0.018  -0.779  0.00  0.00    +0.000 A 
ATOM      6  C   UNL     1      -7.276  -0.753   0.251  0.00  0.00    +0.000 A 
ATOM      7  C   UNL     1      -5.900  -0.992   0.295  0.00  0.00    +0.000 A 
BRANCH   5   8
ATOM      8  C   UNL     1      -9.233   0.265  -0.825  0.00  0.00    +0.000 C 
ATOM      9  N   UNL     1     -10.376   0.464  -0.861  0.00  0.00    +0.000 NA
ENDBRANCH   5   8
ENDBRANCH   1   2
BRANCH   1  10
ATOM     10  C   UNL     1      -2.831   0.442   0.056  0.00  0.00    +0.000 C 
BRANCH  10  14
ATOM     11  C   UNL     1       1.402  -0.345   0.293  0.00  0.00    +0.000 A 
ATOM     12  C   UNL     1       0.861   0.220  -0.860  0.00  0.00    +0.000 A 
ATOM     13  C   UNL     1      -0.508   0.481  -0.936  0.00  0.00    +0.000 A 
ATOM     14  C   UNL     1      -1.348   0.180   0.144  0.00  0.00    +0.000 A 
ATOM     15  C   UNL     1      -0.796  -0.393   1.297  0.00  0.00    +0.000 A 
ATOM     16  C   UNL     1       0.574  -0.652   1.371  0.00  0.00    +0.000 A 
ENDBRANCH  10  14
ENDBRANCH   1  10
TORSDOF 4
