REMARK  Name = *****
REMARK  5 active torsions:
REMARK  status: ('A' for Active; 'I' for Inactive)
REMARK    1  A    between atoms: C_1  and  C_2
REMARK    2  A    between atoms: C_5  and  S_8
REMARK    3  A    between atoms: S_8  and  C_9
REMARK    4  A    between atoms: C_9  and  C_10
REMARK    5  A    between atoms: C_10  and  C_11
REMARK                            x       y       z     vdW  Elec       q    Type
REMARK                         _______ _______ _______ _____ _____    ______ ____
ROOT
ATOM      1  S   UNL     1      -3.632  -0.083  -0.626  0.00  0.00    +0.000 S 
ENDROOT
BRANCH   1   6
ATOM      2  C   UNL     1       2.390   0.070   0.369  0.00  0.00    +0.000 C 
ATOM      3  C   UNL     1       0.907   0.064   0.148  0.00  0.00    +0.000 A 
ATOM      4  C   UNL     1       0.281   1.141  -0.489  0.00  0.00    +0.000 A 
ATOM      5  C   UNL     1      -1.097   1.122  -0.730  0.00  0.00    +0.000 A 
ATOM      6  C   UNL     1      -1.872   0.028  -0.336  0.00  0.00    +0.000 A 
ATOM      7  C   UNL     1      -1.240  -1.060   0.275  0.00  0.00    +0.000 A 
ATOM      8  C   UNL     1       0.138  -1.044   0.515  0.00  0.00    +0.000 A 
ENDBRANCH   1   6
BRANCH   1   9
ATOM      9  C   UNL     1      -4.163   1.642  -0.348  0.00  0.00    +0.000 C 
BRANCH   9  10
ATOM     10  C   UNL     1      -5.689   1.709  -0.267  0.00  0.00    +0.000 C 
BRANCH  10  11
ATOM     11  C   UNL     1      -6.164   3.131  -0.088  0.00  0.00    +0.000 A 
ATOM     12  C   UNL     1      -6.469   3.922  -1.204  0.00  0.00    +0.000 A 
ATOM     13  C   UNL     1      -6.887   5.244  -1.041  0.00  0.00    +0.000 A 
ATOM     14  C   UNL     1      -7.000   5.787   0.237  0.00  0.00    +0.000 A 
ATOM     15  C   UNL     1      -6.695   5.010   1.353  0.00  0.00    +0.000 A 
ATOM     16  C   UNL     1      -6.277   3.689   1.192  0.00  0.00    +0.000 A 
ENDBRANCH  10  11
ENDBRANCH   9  10
ENDBRANCH   1   9
TORSDOF 4
