REMARK  Name = *****
REMARK  5 active torsions:
REMARK  status: ('A' for Active; 'I' for Inactive)
REMARK    1  A    between atoms: C_1  and  O_2
REMARK    2  A    between atoms: O_2  and  C_3
REMARK    3  A    between atoms: C_3  and  C_5
REMARK    4  A    between atoms: C_10  and  C_11
REMARK    5  A    between atoms: C_12  and  C_13
REMARK                            x       y       z     vdW  Elec       q    Type
REMARK                         _______ _______ _______ _____ _____    ______ ____
ROOT
ATOM      1  C   UNL     1       4.503  -0.610  -1.186  0.00  0.00    +0.000 A 
ATOM      2  C   UNL     1       5.215  -0.947  -0.021  0.00  0.00    +0.000 A 
ATOM      3  C   UNL     1       6.604  -0.818   0.019  0.00  0.00    +0.000 A 
ATOM      4  C   UNL     1       7.291  -0.357  -1.101  0.00  0.00    +0.000 A 
ATOM      5  C   UNL     1       6.590  -0.020  -2.262  0.00  0.00    +0.000 A 
ATOM      6  C   UNL     1       5.195  -0.144  -2.314  0.00  0.00    +0.000 A 
ENDROOT
BRANCH   1   7
ATOM      7  C   UNL     1       3.031  -0.788  -1.205  0.00  0.00    +0.000 C 
ATOM      8  O   UNL     1       2.395  -1.249  -2.137  0.00  0.00    +0.000 OA
BRANCH   7  10
ATOM      9  C   UNL     1       1.097  -0.443   0.056  0.00  0.00    +0.000 C 
ATOM     10  O   UNL     1       2.519  -0.344  -0.027  0.00  0.00    +0.000 OA
ENDBRANCH   7  10
ENDBRANCH   1   7
BRANCH   6  11
ATOM     11  C   UNL     1       4.531   0.246  -3.523  0.00  0.00    +0.000 C 
ATOM     12  C   UNL     1       3.975   0.572  -4.536  0.00  0.00    +0.000 C 
BRANCH  12  13
ATOM     13  C   UNL     1       3.306   0.950  -5.741  0.00  0.00    +0.000 A 
ATOM     14  C   UNL     1       2.597   0.058  -6.514  0.00  0.00    +0.000 A 
ATOM     15  S   UNL     1       1.913   0.806  -7.894  0.00  0.00    +0.000 S 
ATOM     16  C   UNL     1       2.560   2.329  -7.456  0.00  0.00    +0.000 A 
ATOM     17  C   UNL     1       3.284   2.266  -6.284  0.00  0.00    +0.000 A 
ENDBRANCH  12  13
ENDBRANCH   6  11
TORSDOF 4
