REMARK  Name = *****
REMARK  4 active torsions:
REMARK  status: ('A' for Active; 'I' for Inactive)
REMARK    1  A    between atoms: C_1  and  C_2
REMARK    2  A    between atoms: C_5  and  C_8
REMARK    3  A    between atoms: C_8  and  O_9
REMARK    4  A    between atoms: O_9  and  C_10
REMARK                            x       y       z     vdW  Elec       q    Type
REMARK                         _______ _______ _______ _____ _____    ______ ____
ROOT
ATOM      1  C   UNL     1      -3.337  -0.064  -0.024  0.00  0.00    +0.000 C 
ENDROOT
BRANCH   1   6
ATOM      2  C   UNL     1       2.486   0.112  -0.115  0.00  0.00    +0.000 C 
ATOM      3  C   UNL     1       0.989   0.034  -0.087  0.00  0.00    +0.000 A 
ATOM      4  C   UNL     1       0.292   0.185   1.117  0.00  0.00    +0.000 A 
ATOM      5  C   UNL     1      -1.104   0.148   1.137  0.00  0.00    +0.000 A 
ATOM      6  C   UNL     1      -1.829  -0.039  -0.047  0.00  0.00    +0.000 A 
ATOM      7  C   UNL     1      -1.131  -0.160  -1.255  0.00  0.00    +0.000 A 
ATOM      8  C   UNL     1       0.265  -0.123  -1.275  0.00  0.00    +0.000 A 
ENDBRANCH   1   6
BRANCH   1   9
ATOM      9  O   UNL     1      -3.804   1.282  -0.075  0.00  0.00    +0.000 OA
BRANCH   9  10
ATOM     10  C   UNL     1      -5.158   1.474  -0.056  0.00  0.00    +0.000 A 
ATOM     11  C   UNL     1      -6.129   0.477   0.005  0.00  0.00    +0.000 A 
ATOM     12  C   UNL     1      -7.476   0.832   0.017  0.00  0.00    +0.000 A 
ATOM     13  C   UNL     1      -7.875   2.163  -0.031  0.00  0.00    +0.000 A 
ATOM     14  C   UNL     1      -6.909   3.162  -0.092  0.00  0.00    +0.000 A 
ATOM     15  C   UNL     1      -5.556   2.815  -0.105  0.00  0.00    +0.000 A 
ATOM     16  F   UNL     1      -8.406  -0.130   0.076  0.00  0.00    +0.000 F 
ENDBRANCH   9  10
ENDBRANCH   1   9
TORSDOF 3
