REMARK  Name = *****
REMARK  7 active torsions:
REMARK  status: ('A' for Active; 'I' for Inactive)
REMARK    1  A    between atoms: C_1  and  C_2
REMARK    2  A    between atoms: C_2  and  C_3
REMARK    3  A    between atoms: C_2  and  C_11
REMARK    4  A    between atoms: C_2  and  O_17
REMARK    5  A    between atoms: C_3  and  C_4
REMARK    6  A    between atoms: C_4  and  C_5
REMARK    7  A    between atoms: O_17  and  O_18
REMARK                            x       y       z     vdW  Elec       q    Type
REMARK                         _______ _______ _______ _____ _____    ______ ____
ROOT
ATOM      1  C   UNL     1       0.967  -0.145   0.193  0.00  0.00    +0.000 C 
ATOM      2  C   UNL     1       2.504  -0.080   0.107  0.00  0.00    +0.000 C 
ENDROOT
BRANCH   2   3
ATOM      3  C   UNL     1       2.966   1.264   0.704  0.00  0.00    +0.000 A 
ATOM      4  C   UNL     1       3.723   1.322   1.888  0.00  0.00    +0.000 A 
ATOM      5  C   UNL     1       4.141   2.546   2.419  0.00  0.00    +0.000 A 
ATOM      6  C   UNL     1       3.807   3.737   1.781  0.00  0.00    +0.000 A 
ATOM      7  C   UNL     1       3.052   3.705   0.613  0.00  0.00    +0.000 A 
ATOM      8  C   UNL     1       2.634   2.483   0.081  0.00  0.00    +0.000 A 
ENDBRANCH   2   3
BRANCH   2   9
ATOM      9  C   UNL     1       2.976  -0.230  -1.364  0.00  0.00    +0.000 C 
BRANCH   9  10
ATOM     10  C   UNL     1       4.503  -0.285  -1.512  0.00  0.00    +0.000 C 
BRANCH  10  11
ATOM     11  C   UNL     1       4.909  -0.412  -2.961  0.00  0.00    +0.000 A 
ATOM     12  C   UNL     1       5.175   0.733  -3.724  0.00  0.00    +0.000 A 
ATOM     13  C   UNL     1       5.532   0.619  -5.068  0.00  0.00    +0.000 A 
ATOM     14  C   UNL     1       5.622  -0.639  -5.663  0.00  0.00    +0.000 A 
ATOM     15  C   UNL     1       5.353  -1.783  -4.914  0.00  0.00    +0.000 A 
ATOM     16  C   UNL     1       4.995  -1.671  -3.569  0.00  0.00    +0.000 A 
ENDBRANCH  10  11
ENDBRANCH   9  10
ENDBRANCH   2   9
BRANCH   2  17
ATOM     17  O   UNL     1       3.054  -1.154   0.909  0.00  0.00    +0.000 OA
BRANCH  17  18
ATOM     18  O   UNL     1       2.600  -2.426   0.356  0.00  0.00    +0.000 OA
ATOM     19  H   UNL     1       2.961  -3.155   0.884  0.00  0.00    +0.000 HD
ENDBRANCH  17  18
ENDBRANCH   2  17
TORSDOF 6
