REMARK  Name = *****
REMARK  2 active torsions:
REMARK  status: ('A' for Active; 'I' for Inactive)
REMARK    1  A    between atoms: C_4  and  C_6
REMARK    2  A    between atoms: C_7  and  C_8
REMARK                            x       y       z     vdW  Elec       q    Type
REMARK                         _______ _______ _______ _____ _____    ______ ____
ROOT
ATOM      1  C   UNL     1      -0.861  -2.440   0.017  0.00  0.00    +0.000 C 
ATOM      2  C   UNL     1      -0.121  -3.556  -0.078  0.00  0.00    +0.000 C 
ENDROOT
BRANCH   2   3
ATOM      3  C   UNL     1      -0.680  -4.915  -0.071  0.00  0.00    +0.000 A 
ATOM      4  C   UNL     1      -1.873  -5.238  -0.736  0.00  0.00    +0.000 A 
ATOM      5  C   UNL     1      -2.355  -6.549  -0.730  0.00  0.00    +0.000 A 
ATOM      6  C   UNL     1      -1.640  -7.539  -0.068  0.00  0.00    +0.000 A 
ATOM      7  C   UNL     1      -0.449  -7.245   0.583  0.00  0.00    +0.000 A 
ATOM      8  C   UNL     1       0.033  -5.935   0.577  0.00  0.00    +0.000 A 
ATOM      9  F   UNL     1      -2.103  -8.796  -0.064  0.00  0.00    +0.000 F 
ENDBRANCH   2   3
BRANCH   1  13
ATOM     10  C   UNL     1       0.150   1.080   0.062  0.00  0.00    +0.000 A 
ATOM     11  C   UNL     1       1.333   0.397  -0.052  0.00  0.00    +0.000 A 
ATOM     12  O   UNL     1       1.107  -0.938  -0.081  0.00  0.00    +0.000 OA
ATOM     13  C   UNL     1      -0.252  -1.155   0.015  0.00  0.00    +0.000 A 
ATOM     14  C   UNL     1      -0.862   0.092   0.105  0.00  0.00    +0.000 A 
ENDBRANCH   1  13
TORSDOF 2
