REMARK  Name = *****
REMARK  2 active torsions:
REMARK  status: ('A' for Active; 'I' for Inactive)
REMARK    1  A    between atoms: C_5  and  C_6
REMARK    2  A    between atoms: C_7  and  C_8
REMARK                            x       y       z     vdW  Elec       q    Type
REMARK                         _______ _______ _______ _____ _____    ______ ____
ROOT
ATOM      1  C   UNL     1       2.650  -1.434  -0.072  0.00  0.00    +0.000 C 
ATOM      2  C   UNL     1       3.905  -0.966   0.046  0.00  0.00    +0.000 C 
ENDROOT
BRANCH   2   3
ATOM      3  C   UNL     1       5.098  -1.788   0.015  0.00  0.00    +0.000 A 
ATOM      4  C   UNL     1       5.307  -2.759  -0.885  0.00  0.00    +0.000 A 
ATOM      5  C   UNL     1       6.592  -3.485  -0.806  0.00  0.00    +0.000 A 
ATOM      6  S   UNL     1       7.061  -4.703  -1.850  0.00  0.00    +0.000 S 
ATOM      7  S   UNL     1       7.581  -2.938   0.535  0.00  0.00    +0.000 S 
ATOM      8  S   UNL     1       6.364  -1.418   1.143  0.00  0.00    +0.000 S 
ENDBRANCH   2   3
BRANCH   1  13
ATOM      9  C   UNL     1       1.350   0.775   0.062  0.00  0.00    +0.000 A 
ATOM     10  C   UNL     1       0.042   1.211   0.067  0.00  0.00    +0.000 A 
ATOM     11  S   UNL     1      -1.068  -0.084  -0.047  0.00  0.00    +0.000 S 
ATOM     12  C   UNL     1       0.201  -1.233  -0.104  0.00  0.00    +0.000 A 
ATOM     13  C   UNL     1       1.450  -0.648  -0.037  0.00  0.00    +0.000 A 
ENDBRANCH   1  13
TORSDOF 2
