REMARK  Name = *****
REMARK  6 active torsions:
REMARK  status: ('A' for Active; 'I' for Inactive)
REMARK    1  A    between atoms: C_1  and  O_2
REMARK    2  A    between atoms: O_2  and  C_3
REMARK    3  A    between atoms: C_7  and  C_9
REMARK    4  A    between atoms: C_9  and  S_11
REMARK    5  A    between atoms: S_11  and  C_12
REMARK    6  A    between atoms: C_12  and  C_13
REMARK                            x       y       z     vdW  Elec       q    Type
REMARK                         _______ _______ _______ _____ _____    ______ ____
ROOT
ATOM      1  C   UNL     1       6.139   2.978  -1.892  0.00  0.00    +0.000 C 
ATOM      2  O   UNL     1       6.294   2.390  -2.956  0.00  0.00    +0.000 OA
ENDROOT
BRANCH   1   7
ATOM      3  C   UNL     1       2.793   1.566  -0.834  0.00  0.00    +0.000 A 
ATOM      4  C   UNL     1       2.620   2.123   0.431  0.00  0.00    +0.000 A 
ATOM      5  C   UNL     1       3.595   2.969   0.962  0.00  0.00    +0.000 A 
ATOM      6  C   UNL     1       4.749   3.266   0.232  0.00  0.00    +0.000 A 
ATOM      7  C   UNL     1       4.938   2.715  -1.042  0.00  0.00    +0.000 A 
ATOM      8  C   UNL     1       3.950   1.863  -1.561  0.00  0.00    +0.000 A 
BRANCH   3  10
ATOM      9  C   UNL     1       0.719   0.401  -0.780  0.00  0.00    +0.000 C 
ATOM     10  O   UNL     1       1.920   0.726  -1.469  0.00  0.00    +0.000 OA
ENDBRANCH   3  10
ENDBRANCH   1   7
BRANCH   1  11
ATOM     11  S   UNL     1       7.316   4.162  -1.336  0.00  0.00    +0.000 S 
BRANCH  11  12
ATOM     12  C   UNL     1       8.453   4.123  -2.751  0.00  0.00    +0.000 C 
BRANCH  12  13
ATOM     13  C   UNL     1       9.589   5.100  -2.567  0.00  0.00    +0.000 A 
ATOM     14  C   UNL     1      10.773   4.705  -1.927  0.00  0.00    +0.000 A 
ATOM     15  C   UNL     1      11.818   5.613  -1.747  0.00  0.00    +0.000 A 
ATOM     16  C   UNL     1      11.690   6.924  -2.201  0.00  0.00    +0.000 A 
ATOM     17  C   UNL     1      10.515   7.331  -2.831  0.00  0.00    +0.000 A 
ATOM     18  C   UNL     1       9.469   6.425  -3.012  0.00  0.00    +0.000 A 
ENDBRANCH  12  13
ENDBRANCH  11  12
ENDBRANCH   1  11
TORSDOF 5
