REMARK  Name = *****
REMARK  6 active torsions:
REMARK  status: ('A' for Active; 'I' for Inactive)
REMARK    1  A    between atoms: C_1  and  C_2
REMARK    2  A    between atoms: C_5  and  S_8
REMARK    3  A    between atoms: S_8  and  C_9
REMARK    4  A    between atoms: C_9  and  C_10
REMARK    5  A    between atoms: C_12  and  O_16
REMARK    6  A    between atoms: O_16  and  C_17
REMARK                            x       y       z     vdW  Elec       q    Type
REMARK                         _______ _______ _______ _____ _____    ______ ____
ROOT
ATOM      1  C   UNL     1      -4.137   1.322   0.077  0.00  0.00    +0.000 C 
ENDROOT
BRANCH   1   2
ATOM      2  C   UNL     1      -5.677   1.432   0.037  0.00  0.00    +0.000 C 
ATOM      3  C   UNL     1      -6.093   2.757   0.716  0.00  0.00    +0.000 C 
ATOM      4  C   UNL     1      -7.608   2.848   0.939  0.00  0.00    +0.000 C 
ATOM      5  C   UNL     1      -8.087   1.679   1.819  0.00  0.00    +0.000 C 
ATOM      6  C   UNL     1      -7.431   0.365   1.494  0.00  0.00    +0.000 C 
ATOM      7  C   UNL     1      -6.367   0.250   0.687  0.00  0.00    +0.000 C 
BRANCH   4   8
ATOM      8  O   UNL     1      -8.331   2.805  -0.299  0.00  0.00    +0.000 OA
ATOM      9  C   UNL     1      -8.302   4.026  -1.023  0.00  0.00    +0.000 C 
ENDBRANCH   4   8
ENDBRANCH   1   2
BRANCH   1  10
ATOM     10  S   UNL     1      -3.500  -0.007  -1.014  0.00  0.00    +0.000 S 
BRANCH  10  15
ATOM     11  C   UNL     1       2.556   0.787  -1.143  0.00  0.00    +0.000 C 
ATOM     12  C   UNL     1       1.064   0.637  -1.107  0.00  0.00    +0.000 A 
ATOM     13  C   UNL     1       0.339   1.041   0.018  0.00  0.00    +0.000 A 
ATOM     14  C   UNL     1      -1.049   0.865   0.073  0.00  0.00    +0.000 A 
ATOM     15  C   UNL     1      -1.736   0.284  -0.996  0.00  0.00    +0.000 A 
ATOM     16  C   UNL     1      -1.003  -0.142  -2.110  0.00  0.00    +0.000 A 
ATOM     17  C   UNL     1       0.384   0.030  -2.166  0.00  0.00    +0.000 A 
ENDBRANCH  10  15
ENDBRANCH   1  10
TORSDOF 4
