REMARK  Name = *****
REMARK  3 active torsions:
REMARK  status: ('A' for Active; 'I' for Inactive)
REMARK    1  A    between atoms: C_1  and  C_2
REMARK    2  A    between atoms: C_5  and  N_8
REMARK    3  A    between atoms: C_9  and  C_10
REMARK                            x       y       z     vdW  Elec       q    Type
REMARK                         _______ _______ _______ _____ _____    ______ ____
ROOT
ATOM      1  C   UNL     1       0.488   2.202  -0.183  0.00  0.00    +0.000 C 
ATOM      2  C   UNL     1      -0.366   0.980   0.009  0.00  0.00    +0.000 A 
ATOM      3  C   UNL     1       0.082  -0.303  -0.347  0.00  0.00    +0.000 A 
ATOM      4  C   UNL     1      -0.732  -1.422  -0.154  0.00  0.00    +0.000 A 
ATOM      5  C   UNL     1      -2.008  -1.280   0.389  0.00  0.00    +0.000 A 
ATOM      6  C   UNL     1      -2.454  -0.011   0.764  0.00  0.00    +0.000 A 
ATOM      7  C   UNL     1      -1.644   1.111   0.572  0.00  0.00    +0.000 A 
ATOM      8 CL   UNL     1       1.648  -0.552  -1.034  0.00  0.00    +0.000 Cl
ENDROOT
BRANCH   5   9
ATOM      9  N   UNL     1      -2.816  -2.405   0.597  0.00  0.00    +0.000 NA
ATOM     10  C   UNL     1      -3.644  -2.691  -0.360  0.00  0.00    +0.000 C 
BRANCH  10  11
ATOM     11  C   UNL     1      -4.525  -3.827  -0.253  0.00  0.00    +0.000 A 
ATOM     12  C   UNL     1      -4.640  -4.743   0.774  0.00  0.00    +0.000 A 
ATOM     13  C   UNL     1      -5.632  -5.731   0.508  0.00  0.00    +0.000 A 
ATOM     14  C   UNL     1      -6.240  -5.533  -0.711  0.00  0.00    +0.000 A 
ATOM     15  S   UNL     1      -5.614  -4.165  -1.527  0.00  0.00    +0.000 S 
ENDBRANCH  10  11
ENDBRANCH   5   9
TORSDOF 2
