REMARK  Name = *****
REMARK  1 active torsions:
REMARK  status: ('A' for Active; 'I' for Inactive)
REMARK    1  A    between atoms: C_5  and  C_7
REMARK                            x       y       z     vdW  Elec       q    Type
REMARK                         _______ _______ _______ _____ _____    ______ ____
ROOT
ATOM      1  C   UNL     1      -1.212  -2.274  -0.435  0.00  0.00    +0.000 A 
ATOM      2  N   UNL     1      -2.147  -2.685  -1.273  0.00  0.00    +0.000 NA
ATOM      3  C   UNL     1      -2.562  -3.883  -0.754  0.00  0.00    +0.000 A 
ATOM      4  C   UNL     1      -1.857  -4.158   0.406  0.00  0.00    +0.000 A 
ATOM      5  O   UNL     1      -0.992  -3.127   0.623  0.00  0.00    +0.000 OA
ATOM      6  C   UNL     1      -2.028  -5.293   1.188  0.00  0.00    +0.000 A 
ATOM      7  C   UNL     1      -2.995  -6.199   0.732  0.00  0.00    +0.000 A 
ATOM      8  C   UNL     1      -3.726  -5.952  -0.438  0.00  0.00    +0.000 A 
ATOM      9  C   UNL     1      -3.526  -4.795  -1.201  0.00  0.00    +0.000 A 
ATOM     10 CL   UNL     1      -4.903  -7.101  -0.950  0.00  0.00    +0.000 Cl
ENDROOT
BRANCH   1  15
ATOM     11  C   UNL     1       0.809   0.658   0.811  0.00  0.00    +0.000 A 
ATOM     12  C   UNL     1       1.147   1.306  -0.371  0.00  0.00    +0.000 A 
ATOM     13  C   UNL     1       0.724   0.781  -1.591  0.00  0.00    +0.000 A 
ATOM     14  C   UNL     1      -0.044  -0.392  -1.636  0.00  0.00    +0.000 A 
ATOM     15  C   UNL     1      -0.399  -1.058  -0.451  0.00  0.00    +0.000 A 
ATOM     16  C   UNL     1       0.045  -0.512   0.771  0.00  0.00    +0.000 A 
ATOM     17 CL   UNL     1      -0.471  -0.969  -3.212  0.00  0.00    +0.000 Cl
ENDBRANCH   1  15
TORSDOF 1
