REMARK  Name = *****
REMARK  4 active torsions:
REMARK  status: ('A' for Active; 'I' for Inactive)
REMARK    1  A    between atoms: C_1  and  N_2
REMARK    2  A    between atoms: N_2  and  C_3
REMARK    3  A    between atoms: N_2  and  C_9
REMARK    4  A    between atoms: C_9  and  C_11
REMARK                            x       y       z     vdW  Elec       q    Type
REMARK                         _______ _______ _______ _____ _____    ______ ____
ROOT
ATOM      1  C   UNL     1       2.560   1.272  -0.322  0.00  0.00    +0.000 C 
ATOM      2  N   UNL     1       2.984  -0.112  -0.092  0.00  0.00    +0.000 N 
ENDROOT
BRANCH   2   3
ATOM      3  C   UNL     1       2.832  -1.039  -1.158  0.00  0.00    +0.000 A 
ATOM      4  C   UNL     1       2.143  -0.727  -2.345  0.00  0.00    +0.000 A 
ATOM      5  C   UNL     1       2.016  -1.651  -3.391  0.00  0.00    +0.000 A 
ATOM      6  C   UNL     1       2.579  -2.917  -3.279  0.00  0.00    +0.000 A 
ATOM      7  C   UNL     1       3.267  -3.258  -2.122  0.00  0.00    +0.000 A 
ATOM      8  C   UNL     1       3.390  -2.330  -1.081  0.00  0.00    +0.000 A 
ENDBRANCH   2   3
BRANCH   2   9
ATOM      9  C   UNL     1       3.472  -0.471   1.170  0.00  0.00    +0.000 C 
ATOM     10  C   UNL     1       2.702  -1.161   2.031  0.00  0.00    +0.000 C 
BRANCH   9  11
ATOM     11  C   UNL     1       4.821  -0.050   1.535  0.00  0.00    +0.000 C 
ATOM     12  C   UNL     1       5.746   0.448   0.698  0.00  0.00    +0.000 C 
ATOM     13  C   UNL     1       7.041   0.733   1.378  0.00  0.00    +0.000 C 
ATOM     14  C   UNL     1       6.666   0.663   2.854  0.00  0.00    +0.000 C 
ATOM     15  C   UNL     1       5.384  -0.166   2.924  0.00  0.00    +0.000 C 
ENDBRANCH   9  11
ENDBRANCH   2   9
TORSDOF 3
