REMARK  Name = *****
REMARK  5 active torsions:
REMARK  status: ('A' for Active; 'I' for Inactive)
REMARK    1  A    between atoms: C_1  and  C_2
REMARK    2  A    between atoms: C_2  and  C_4
REMARK    3  A    between atoms: C_7  and  C_10
REMARK    4  A    between atoms: C_11  and  C_12
REMARK    5  A    between atoms: C_15  and  C_18
REMARK                            x       y       z     vdW  Elec       q    Type
REMARK                         _______ _______ _______ _____ _____    ______ ____
ROOT
ATOM      1  C   UNL     1       5.254   3.832   3.176  0.00  0.00    +0.000 C 
ATOM      2  C   UNL     1       4.861   4.276   4.382  0.00  0.00    +0.000 C 
ENDROOT
BRANCH   1   6
ATOM      3  C   UNL     1       3.224   0.849   0.855  0.00  0.00    +0.000 A 
ATOM      4  C   UNL     1       2.483   1.778   1.592  0.00  0.00    +0.000 A 
ATOM      5  C   UNL     1       3.136   2.752   2.358  0.00  0.00    +0.000 A 
ATOM      6  C   UNL     1       4.535   2.805   2.410  0.00  0.00    +0.000 A 
ATOM      7  C   UNL     1       5.272   1.883   1.657  0.00  0.00    +0.000 A 
ATOM      8  C   UNL     1       4.623   0.909   0.891  0.00  0.00    +0.000 A 
BRANCH   3  10
ATOM      9  C   UNL     1       1.074  -0.299  -0.005  0.00  0.00    +0.000 C 
ATOM     10  C   UNL     1       2.578  -0.208   0.022  0.00  0.00    +0.000 C 
ATOM     11  O   UNL     1       3.272  -0.987  -0.629  0.00  0.00    +0.000 OA
ENDBRANCH   3  10
ENDBRANCH   1   6
BRANCH   2  12
ATOM     12  C   UNL     1       5.590   5.292   5.155  0.00  0.00    +0.000 A 
ATOM     13  C   UNL     1       6.176   6.411   4.552  0.00  0.00    +0.000 A 
ATOM     14  C   UNL     1       6.832   7.375   5.325  0.00  0.00    +0.000 A 
ATOM     15  C   UNL     1       6.911   7.241   6.717  0.00  0.00    +0.000 A 
ATOM     16  C   UNL     1       6.301   6.135   7.322  0.00  0.00    +0.000 A 
ATOM     17  C   UNL     1       5.645   5.172   6.548  0.00  0.00    +0.000 A 
BRANCH  15  18
ATOM     18  C   UNL     1       7.603   8.284   7.549  0.00  0.00    +0.000 C 
ATOM     19 CL   UNL     1       6.463   9.555   8.029  0.00  0.00    +0.000 Cl
ENDBRANCH  15  18
ENDBRANCH   2  12
TORSDOF 4
