REMARK  Name = *****
REMARK  4 active torsions:
REMARK  status: ('A' for Active; 'I' for Inactive)
REMARK    1  A    between atoms: C_4  and  C_7
REMARK    2  A    between atoms: C_7  and  O_8
REMARK    3  A    between atoms: O_8  and  C_9
REMARK    4  A    between atoms: C_9  and  C_11
REMARK                            x       y       z     vdW  Elec       q    Type
REMARK                         _______ _______ _______ _____ _____    ______ ____
ROOT
ATOM      1  C   UNL     1      -4.790  -0.633  -0.471  0.00  0.00    +0.000 C 
ATOM      2  O   UNL     1      -5.299   0.472  -0.571  0.00  0.00    +0.000 OA
ENDROOT
BRANCH   1   3
ATOM      3  C   UNL     1      -5.581  -1.893  -0.406  0.00  0.00    +0.000 A 
ATOM      4  C   UNL     1      -4.982  -3.154  -0.267  0.00  0.00    +0.000 A 
ATOM      5  C   UNL     1      -5.773  -4.306  -0.211  0.00  0.00    +0.000 A 
ATOM      6  C   UNL     1      -7.161  -4.201  -0.292  0.00  0.00    +0.000 A 
ATOM      7  C   UNL     1      -7.767  -2.954  -0.428  0.00  0.00    +0.000 A 
ATOM      8  C   UNL     1      -6.979  -1.801  -0.485  0.00  0.00    +0.000 A 
ATOM      9 CL   UNL     1      -8.130  -5.621  -0.223  0.00  0.00    +0.000 Cl
ENDBRANCH   1   3
BRANCH   1  10
ATOM     10  O   UNL     1      -3.465  -0.905  -0.409  0.00  0.00    +0.000 OA
BRANCH  10  11
ATOM     11  C   UNL     1      -2.597   0.235  -0.408  0.00  0.00    +0.000 C 
BRANCH  11  15
ATOM     12  C   UNL     1      -1.544   1.164   3.667  0.00  0.00    +0.000 A 
ATOM     13  C   UNL     1      -0.861   0.160   2.983  0.00  0.00    +0.000 A 
ATOM     14  C   UNL     1      -1.197  -0.139   1.662  0.00  0.00    +0.000 A 
ATOM     15  C   UNL     1      -2.215   0.571   1.010  0.00  0.00    +0.000 A 
ATOM     16  C   UNL     1      -2.904   1.570   1.712  0.00  0.00    +0.000 A 
ATOM     17  C   UNL     1      -2.566   1.867   3.033  0.00  0.00    +0.000 A 
ENDBRANCH  11  15
ENDBRANCH  10  11
ENDBRANCH   1  10
TORSDOF 4
