REMARK  Name = *****
REMARK  3 active torsions:
REMARK  status: ('A' for Active; 'I' for Inactive)
REMARK    1  A    between atoms: C_1  and  C_2
REMARK    2  A    between atoms: C_10  and  S_11
REMARK    3  A    between atoms: S_11  and  C_12
REMARK                            x       y       z     vdW  Elec       q    Type
REMARK                         _______ _______ _______ _____ _____    ______ ____
ROOT
ATOM      1  C   UNL     1      -3.546   0.563  -0.362  0.00  0.00    +0.000 C 
ATOM      2  C   UNL     1      -2.074   0.355  -0.275  0.00  0.00    +0.000 C 
ATOM      3  C   UNL     1      -1.160   1.330  -0.114  0.00  0.00    +0.000 C 
ATOM      4  C   UNL     1       0.144   0.705   0.016  0.00  0.00    +0.000 A 
ATOM      5  C   UNL     1       1.383   1.290   0.210  0.00  0.00    +0.000 A 
ATOM      6  C   UNL     1       2.497   0.454   0.325  0.00  0.00    +0.000 A 
ATOM      7  C   UNL     1       2.358  -0.942   0.248  0.00  0.00    +0.000 A 
ATOM      8  C   UNL     1       1.103  -1.524   0.053  0.00  0.00    +0.000 A 
ATOM      9  C   UNL     1       0.002  -0.687  -0.068  0.00  0.00    +0.000 A 
ATOM     10  C   UNL     1      -1.452  -1.037  -0.269  0.00  0.00    +0.000 C 
ENDROOT
BRANCH  10  11
ATOM     11  S   UNL     1      -1.709  -1.901  -1.857  0.00  0.00    +0.000 S 
BRANCH  11  12
ATOM     12  C   UNL     1      -3.259  -2.726  -1.549  0.00  0.00    +0.000 A 
ATOM     13  C   UNL     1      -4.328  -2.507  -2.425  0.00  0.00    +0.000 A 
ATOM     14  C   UNL     1      -5.553  -3.146  -2.220  0.00  0.00    +0.000 A 
ATOM     15  C   UNL     1      -5.713  -4.018  -1.146  0.00  0.00    +0.000 A 
ATOM     16  C   UNL     1      -4.646  -4.259  -0.281  0.00  0.00    +0.000 A 
ATOM     17  C   UNL     1      -3.421  -3.620  -0.486  0.00  0.00    +0.000 A 
ENDBRANCH  11  12
ENDBRANCH  10  11
TORSDOF 2
