REMARK  Name = *****
REMARK  4 active torsions:
REMARK  status: ('A' for Active; 'I' for Inactive)
REMARK    1  A    between atoms: C_1  and  C_2
REMARK    2  A    between atoms: C_2  and  C_12
REMARK    3  A    between atoms: N_3  and  C_4
REMARK    4  A    between atoms: C_4  and  C_5
REMARK                            x       y       z     vdW  Elec       q    Type
REMARK                         _______ _______ _______ _____ _____    ______ ____
ROOT
ATOM      1  C   UNL     1       0.941  -0.007  -0.048  0.00  0.00    +0.000 C 
ATOM      2  C   UNL     1       2.454   0.044  -0.146  0.00  0.00    +0.000 C 
ATOM      3  N   UNL     1       3.111   0.932  -0.815  0.00  0.00    +0.000 NA
ENDROOT
BRANCH   2   4
ATOM      4  C   UNL     1       3.235  -1.009   0.594  0.00  0.00    +0.000 A 
ATOM      5  C   UNL     1       2.610  -1.987   1.379  0.00  0.00    +0.000 A 
ATOM      6  C   UNL     1       3.372  -2.947   2.051  0.00  0.00    +0.000 A 
ATOM      7  C   UNL     1       4.762  -2.939   1.947  0.00  0.00    +0.000 A 
ATOM      8  C   UNL     1       5.394  -1.970   1.172  0.00  0.00    +0.000 A 
ATOM      9  C   UNL     1       4.635  -1.010   0.499  0.00  0.00    +0.000 A 
ENDBRANCH   2   4
BRANCH   3  10
ATOM     10  C   UNL     1       2.418   1.987  -1.545  0.00  0.00    +0.000 C 
BRANCH  10  11
ATOM     11  C   UNL     1       3.400   2.904  -2.241  0.00  0.00    +0.000 A 
ATOM     12  C   UNL     1       4.344   2.377  -3.138  0.00  0.00    +0.000 A 
ATOM     13  C   UNL     1       5.241   3.217  -3.797  0.00  0.00    +0.000 A 
ATOM     14  C   UNL     1       5.194   4.586  -3.562  0.00  0.00    +0.000 A 
ATOM     15  C   UNL     1       4.267   5.129  -2.682  0.00  0.00    +0.000 A 
ATOM     16  C   UNL     1       3.368   4.290  -2.021  0.00  0.00    +0.000 A 
ATOM     17  F   UNL     1       6.056   5.394  -4.195  0.00  0.00    +0.000 F 
ENDBRANCH  10  11
ENDBRANCH   3  10
TORSDOF 3
