REMARK  Name = *****
REMARK  3 active torsions:
REMARK  status: ('A' for Active; 'I' for Inactive)
REMARK    1  A    between atoms: C_4  and  C_7
REMARK    2  A    between atoms: C_7  and  C_8
REMARK    3  A    between atoms: C_9  and  C_10
REMARK                            x       y       z     vdW  Elec       q    Type
REMARK                         _______ _______ _______ _____ _____    ______ ____
ROOT
ATOM      1  C   UNL     1      -0.566  -3.718   0.314  0.00  0.00    +0.000 C 
ATOM      2  C   UNL     1      -1.025  -4.584  -0.603  0.00  0.00    +0.000 C 
ENDROOT
BRANCH   2   3
ATOM      3  C   UNL     1      -2.222  -5.390  -0.371  0.00  0.00    +0.000 A 
ATOM      4  C   UNL     1      -3.425  -5.040  -0.992  0.00  0.00    +0.000 A 
ATOM      5  C   UNL     1      -4.574  -5.805  -0.779  0.00  0.00    +0.000 A 
ATOM      6  C   UNL     1      -4.524  -6.923   0.052  0.00  0.00    +0.000 A 
ATOM      7  C   UNL     1      -3.327  -7.276   0.674  0.00  0.00    +0.000 A 
ATOM      8  C   UNL     1      -2.178  -6.511   0.465  0.00  0.00    +0.000 A 
ENDBRANCH   2   3
BRANCH   1   9
ATOM      9  C   UNL     1       0.647  -2.856   0.112  0.00  0.00    +0.000 C 
BRANCH   9  13
ATOM     10  C   UNL     1      -0.714   1.315   0.061  0.00  0.00    +0.000 C 
ATOM     11  C   UNL     1      -0.513   0.611  -1.276  0.00  0.00    +0.000 C 
ATOM     12  C   UNL     1      -0.513  -0.911  -1.105  0.00  0.00    +0.000 C 
ATOM     13  C   UNL     1       0.298  -1.386   0.080  0.00  0.00    +0.000 C 
ATOM     14  C   UNL     1       0.712  -0.534   1.038  0.00  0.00    +0.000 C 
ATOM     15  C   UNL     1       0.383   0.931   1.054  0.00  0.00    +0.000 C 
ENDBRANCH   9  13
ENDBRANCH   1   9
TORSDOF 3
