REMARK  Name = *****
REMARK  4 active torsions:
REMARK  status: ('A' for Active; 'I' for Inactive)
REMARK    1  A    between atoms: C_2  and  C_4
REMARK    2  A    between atoms: C_7  and  S_10
REMARK    3  A    between atoms: S_10  and  C_11
REMARK    4  A    between atoms: C_11  and  C_12
REMARK                            x       y       z     vdW  Elec       q    Type
REMARK                         _______ _______ _______ _____ _____    ______ ____
ROOT
ATOM      1  C   UNL     1       1.530  -0.923   1.242  0.00  0.00    +0.000 A 
ATOM      2  C   UNL     1       0.922  -0.830   2.504  0.00  0.00    +0.000 A 
ATOM      3  C   UNL     1       1.589  -1.223   3.670  0.00  0.00    +0.000 A 
ATOM      4  C   UNL     1       2.885  -1.736   3.600  0.00  0.00    +0.000 A 
ATOM      5  C   UNL     1       3.510  -1.826   2.356  0.00  0.00    +0.000 A 
ATOM      6  C   UNL     1       2.838  -1.430   1.194  0.00  0.00    +0.000 A 
ENDROOT
BRANCH   1   8
ATOM      7  C   UNL     1       1.188   0.783  -0.703  0.00  0.00    +0.000 C 
ATOM      8  C   UNL     1       0.811  -0.508  -0.014  0.00  0.00    +0.000 C 
ATOM      9  O   UNL     1      -0.026   0.663   0.044  0.00  0.00    +0.000 OA
ENDBRANCH   1   8
BRANCH   4  10
ATOM     10  S   UNL     1       3.780  -2.239   5.056  0.00  0.00    +0.000 S 
BRANCH  10  11
ATOM     11  C   UNL     1       2.612  -3.461   5.742  0.00  0.00    +0.000 C 
BRANCH  11  12
ATOM     12  C   UNL     1       3.213  -4.203   6.909  0.00  0.00    +0.000 A 
ATOM     13  C   UNL     1       3.115  -3.687   8.210  0.00  0.00    +0.000 A 
ATOM     14  C   UNL     1       3.679  -4.371   9.288  0.00  0.00    +0.000 A 
ATOM     15  C   UNL     1       4.351  -5.574   9.077  0.00  0.00    +0.000 A 
ATOM     16  C   UNL     1       4.464  -6.092   7.788  0.00  0.00    +0.000 A 
ATOM     17  C   UNL     1       3.901  -5.409   6.709  0.00  0.00    +0.000 A 
ENDBRANCH  11  12
ENDBRANCH  10  11
ENDBRANCH   4  10
TORSDOF 4
