REMARK  Name = *****
REMARK  4 active torsions:
REMARK  status: ('A' for Active; 'I' for Inactive)
REMARK    1  A    between atoms: C_1  and  C_2
REMARK    2  A    between atoms: C_5  and  C_8
REMARK    3  A    between atoms: C_9  and  C_10
REMARK    4  A    between atoms: C_10  and  C_15
REMARK                            x       y       z     vdW  Elec       q    Type
REMARK                         _______ _______ _______ _____ _____    ______ ____
ROOT
ATOM      1  C   UNL     1      -3.271  -0.076  -0.052  0.00  0.00    +0.000 C 
ATOM      2  C   UNL     1      -4.084   0.996  -0.040  0.00  0.00    +0.000 C 
ENDROOT
BRANCH   1   7
ATOM      3  C   UNL     1       2.515   0.112  -0.087  0.00  0.00    +0.000 C 
ATOM      4  C   UNL     1       1.015   0.096  -0.097  0.00  0.00    +0.000 A 
ATOM      5  C   UNL     1       0.289   0.968   0.721  0.00  0.00    +0.000 A 
ATOM      6  C   UNL     1      -1.109   0.929   0.735  0.00  0.00    +0.000 A 
ATOM      7  C   UNL     1      -1.805   0.018  -0.067  0.00  0.00    +0.000 A 
ATOM      8  C   UNL     1      -1.076  -0.875  -0.861  0.00  0.00    +0.000 A 
ATOM      9  C   UNL     1       0.322  -0.837  -0.876  0.00  0.00    +0.000 A 
ENDBRANCH   1   7
BRANCH   2  10
ATOM     10  C   UNL     1      -5.594   0.994  -0.024  0.00  0.00    +0.000 C 
ATOM     11  S   UNL     1      -6.133   1.914   1.471  0.00  0.00    +0.000 S 
ATOM     12  C   UNL     1      -7.430   2.877   0.660  0.00  0.00    +0.000 C 
ATOM     13  C   UNL     1      -6.873   3.334  -0.672  0.00  0.00    +0.000 C 
ATOM     14  S   UNL     1      -6.174   1.894  -1.520  0.00  0.00    +0.000 S 
ATOM     15  C   UNL     1      -6.270  -0.382  -0.010  0.00  0.00    +0.000 C 
ENDBRANCH   2  10
TORSDOF 2
