REMARK  Name = *****
REMARK  1 active torsions:
REMARK  status: ('A' for Active; 'I' for Inactive)
REMARK    1  A    between atoms: C_8  and  C_12
REMARK                            x       y       z     vdW  Elec       q    Type
REMARK                         _______ _______ _______ _____ _____    ______ ____
ROOT
ATOM      1  C   UNL     1      -2.445  -0.759   0.126  0.00  0.00    +0.000 A 
ATOM      2  C   UNL     1      -2.523   0.626   0.042  0.00  0.00    +0.000 A 
ATOM      3  C   UNL     1      -1.354   1.379  -0.061  0.00  0.00    +0.000 A 
ATOM      4  C   UNL     1      -0.096   0.751  -0.083  0.00  0.00    +0.000 A 
ATOM      5  C   UNL     1      -0.012  -0.643   0.006  0.00  0.00    +0.000 A 
ATOM      6  C   UNL     1      -1.199  -1.390   0.111  0.00  0.00    +0.000 A 
ATOM      7  C   UNL     1       1.264  -1.360   0.022  0.00  0.00    +0.000 A 
ATOM      8  C   UNL     1       2.463  -0.785  -0.160  0.00  0.00    +0.000 A 
ATOM      9  S   UNL     1       2.674   0.897  -0.487  0.00  0.00    +0.000 S 
ATOM     10  C   UNL     1       1.105   1.611  -0.195  0.00  0.00    +0.000 A 
ATOM     11  O   UNL     1       0.997   2.830  -0.120  0.00  0.00    +0.000 OA
ENDROOT
BRANCH   8  12
ATOM     12  C   UNL     1       3.640  -1.601  -0.131  0.00  0.00    +0.000 A 
ATOM     13  C   UNL     1       4.606  -1.772  -1.113  0.00  0.00    +0.000 A 
ATOM     14  C   UNL     1       5.654  -2.655  -0.723  0.00  0.00    +0.000 A 
ATOM     15  C   UNL     1       5.474  -3.133   0.553  0.00  0.00    +0.000 A 
ATOM     16  S   UNL     1       4.053  -2.519   1.274  0.00  0.00    +0.000 S 
ENDBRANCH   8  12
TORSDOF 1
