REMARK  Name = *****
REMARK  4 active torsions:
REMARK  status: ('A' for Active; 'I' for Inactive)
REMARK    1  A    between atoms: C_1  and  C_2
REMARK    2  A    between atoms: C_6  and  C_8
REMARK    3  A    between atoms: C_8  and  C_9
REMARK    4  A    between atoms: C_9  and  C_10
REMARK                            x       y       z     vdW  Elec       q    Type
REMARK                         _______ _______ _______ _____ _____    ______ ____
ROOT
ATOM      1  C   UNL     1       5.329  -2.073   0.975  0.00  0.00    +0.000 C 
ENDROOT
BRANCH   1   7
ATOM      2  C   UNL     1       7.128   2.043  -0.934  0.00  0.00    +0.000 C 
ATOM      3  C   UNL     1       6.425   0.719  -1.076  0.00  0.00    +0.000 C 
ATOM      4  C   UNL     1       6.887  -0.221  -1.916  0.00  0.00    +0.000 C 
ATOM      5  C   UNL     1       6.309  -1.574  -2.189  0.00  0.00    +0.000 C 
ATOM      6  C   UNL     1       4.936  -1.842  -1.589  0.00  0.00    +0.000 C 
ATOM      7  C   UNL     1       4.693  -1.285  -0.186  0.00  0.00    +0.000 C 
ATOM      8  S   UNL     1       5.000   0.507  -0.107  0.00  0.00    +0.000 S 
ENDBRANCH   1   7
BRANCH   1   9
ATOM      9  C   UNL     1       6.852  -2.028   1.128  0.00  0.00    +0.000 C 
BRANCH   9  10
ATOM     10  C   UNL     1       7.297  -2.764   2.373  0.00  0.00    +0.000 A 
ATOM     11  C   UNL     1       7.444  -4.157   2.363  0.00  0.00    +0.000 A 
ATOM     12  C   UNL     1       7.835  -4.835   3.519  0.00  0.00    +0.000 A 
ATOM     13  C   UNL     1       8.080  -4.127   4.694  0.00  0.00    +0.000 A 
ATOM     14  C   UNL     1       7.932  -2.741   4.715  0.00  0.00    +0.000 A 
ATOM     15  C   UNL     1       7.539  -2.062   3.561  0.00  0.00    +0.000 A 
ENDBRANCH   9  10
ENDBRANCH   1   9
TORSDOF 3
