REMARK  Name = *****
REMARK  2 active torsions:
REMARK  status: ('A' for Active; 'I' for Inactive)
REMARK    1  A    between atoms: C_6  and  C_11
REMARK    2  A    between atoms: C_11  and  C_12
REMARK                            x       y       z     vdW  Elec       q    Type
REMARK                         _______ _______ _______ _____ _____    ______ ____
ROOT
ATOM      1  C   UNL     1      -1.479  -0.038  -0.136  0.00  0.00    +0.000 C 
ATOM      2  C   UNL     1      -0.995   1.395   0.068  0.00  0.00    +0.000 C 
ATOM      3  C   UNL     1       0.192   1.552   1.018  0.00  0.00    +0.000 C 
ATOM      4  C   UNL     1       1.482   0.931   0.479  0.00  0.00    +0.000 C 
ATOM      5  C   UNL     1       2.683   1.381   1.276  0.00  0.00    +0.000 C 
ATOM      6  C   UNL     1       3.328   0.319   1.790  0.00  0.00    +0.000 C 
ATOM      7  C   UNL     1       2.622  -0.883   1.406  0.00  0.00    +0.000 C 
ATOM      8  C   UNL     1       1.553  -0.567   0.656  0.00  0.00    +0.000 C 
ATOM      9  C   UNL     1       0.587  -1.539   0.071  0.00  0.00    +0.000 C 
ATOM     10  C   UNL     1      -0.481  -0.949  -0.850  0.00  0.00    +0.000 C 
ENDROOT
BRANCH   6  11
ATOM     11  C   UNL     1       4.552   0.315   2.650  0.00  0.00    +0.000 C 
BRANCH  11  12
ATOM     12  C   UNL     1       5.769  -0.299   1.993  0.00  0.00    +0.000 A 
ATOM     13  C   UNL     1       6.297   0.246   0.813  0.00  0.00    +0.000 A 
ATOM     14  C   UNL     1       7.433  -0.308   0.220  0.00  0.00    +0.000 A 
ATOM     15  C   UNL     1       8.059  -1.408   0.804  0.00  0.00    +0.000 A 
ATOM     16  C   UNL     1       7.548  -1.955   1.979  0.00  0.00    +0.000 A 
ATOM     17  C   UNL     1       6.409  -1.405   2.572  0.00  0.00    +0.000 A 
ENDBRANCH  11  12
ENDBRANCH   6  11
TORSDOF 2
