REMARK  Name = *****
REMARK  4 active torsions:
REMARK  status: ('A' for Active; 'I' for Inactive)
REMARK    1  A    between atoms: C_1  and  C_2
REMARK    2  A    between atoms: C_5  and  C_8
REMARK    3  A    between atoms: C_9  and  C_10
REMARK    4  A    between atoms: C_15  and  C_16
REMARK                            x       y       z     vdW  Elec       q    Type
REMARK                         _______ _______ _______ _____ _____    ______ ____
ROOT
ATOM      1  C   UNL     1      -3.274   0.220  -0.180  0.00  0.00    +0.000 C 
ATOM      2  C   UNL     1      -4.013   1.285   0.169  0.00  0.00    +0.000 C 
ENDROOT
BRANCH   1   7
ATOM      3  C   UNL     1       2.507  -0.083   0.000  0.00  0.00    +0.000 C 
ATOM      4  C   UNL     1       1.012   0.030  -0.056  0.00  0.00    +0.000 A 
ATOM      5  C   UNL     1       0.316   0.735   0.931  0.00  0.00    +0.000 A 
ATOM      6  C   UNL     1      -1.080   0.813   0.897  0.00  0.00    +0.000 A 
ATOM      7  C   UNL     1      -1.806   0.188  -0.124  0.00  0.00    +0.000 A 
ATOM      8  C   UNL     1      -1.108  -0.544  -1.092  0.00  0.00    +0.000 A 
ATOM      9  C   UNL     1       0.288  -0.622  -1.059  0.00  0.00    +0.000 A 
ENDBRANCH   1   7
BRANCH   2  10
ATOM     10  C   UNL     1      -5.479   1.275   0.077  0.00  0.00    +0.000 A 
ATOM     11  C   UNL     1      -6.197   0.404   0.913  0.00  0.00    +0.000 A 
ATOM     12  C   UNL     1      -7.594   0.371   0.883  0.00  0.00    +0.000 A 
ATOM     13  C   UNL     1      -8.293   1.210   0.019  0.00  0.00    +0.000 A 
ATOM     14  C   UNL     1      -7.597   2.082  -0.817  0.00  0.00    +0.000 A 
ATOM     15  C   UNL     1      -6.194   2.118  -0.792  0.00  0.00    +0.000 A 
BRANCH  15  16
ATOM     16  C   UNL     1      -5.502   3.049  -1.714  0.00  0.00    +0.000 C 
ATOM     17  O   UNL     1      -6.118   3.821  -2.441  0.00  0.00    +0.000 OA
ENDBRANCH  15  16
ENDBRANCH   2  10
TORSDOF 3
