REMARK  Name = *****
REMARK  4 active torsions:
REMARK  status: ('A' for Active; 'I' for Inactive)
REMARK    1  A    between atoms: C_1  and  O_2
REMARK    2  A    between atoms: O_2  and  C_3
REMARK    3  A    between atoms: C_6  and  C_9
REMARK    4  A    between atoms: C_11  and  C_12
REMARK                            x       y       z     vdW  Elec       q    Type
REMARK                         _______ _______ _______ _____ _____    ______ ____
ROOT
ATOM      1  C   UNL     1       5.198  -2.428  -4.453  0.00  0.00    +0.000 C 
ATOM      2  C   UNL     1       6.045  -1.540  -5.331  0.00  0.00    +0.000 C 
ATOM      3  C   UNL     1       4.786  -2.143  -5.891  0.00  0.00    +0.000 C 
ENDROOT
BRANCH   1   7
ATOM      4  C   UNL     1       3.179  -0.762  -0.970  0.00  0.00    +0.000 A 
ATOM      5  C   UNL     1       2.513  -1.643  -1.817  0.00  0.00    +0.000 A 
ATOM      6  C   UNL     1       3.169  -2.175  -2.936  0.00  0.00    +0.000 A 
ATOM      7  C   UNL     1       4.493  -1.834  -3.251  0.00  0.00    +0.000 A 
ATOM      8  C   UNL     1       5.150  -0.960  -2.370  0.00  0.00    +0.000 A 
ATOM      9  C   UNL     1       4.503  -0.429  -1.250  0.00  0.00    +0.000 A 
BRANCH   4  11
ATOM     10  C   UNL     1       1.296  -0.437   0.441  0.00  0.00    +0.000 C 
ATOM     11  O   UNL     1       2.663  -0.173   0.151  0.00  0.00    +0.000 OA
ENDBRANCH   4  11
ENDBRANCH   1   7
BRANCH   3  12
ATOM     12  C   UNL     1       3.555  -1.324  -6.224  0.00  0.00    +0.000 A 
ATOM     13  C   UNL     1       3.573   0.070  -6.396  0.00  0.00    +0.000 A 
ATOM     14  C   UNL     1       2.413   0.784  -6.716  0.00  0.00    +0.000 A 
ATOM     15  C   UNL     1       1.205   0.115  -6.885  0.00  0.00    +0.000 A 
ATOM     16  C   UNL     1       1.158  -1.266  -6.738  0.00  0.00    +0.000 A 
ATOM     17  C   UNL     1       2.320  -1.972  -6.415  0.00  0.00    +0.000 A 
ENDBRANCH   3  12
TORSDOF 3
