REMARK  Name = *****
REMARK  2 active torsions:
REMARK  status: ('A' for Active; 'I' for Inactive)
REMARK    1  A    between atoms: C_3  and  S_8
REMARK    2  A    between atoms: S_8  and  C_9
REMARK                            x       y       z     vdW  Elec       q    Type
REMARK                         _______ _______ _______ _____ _____    ______ ____
ROOT
ATOM      1  S   UNL     1       3.019  -1.411  -0.470  0.00  0.00    +0.000 S 
ENDROOT
BRANCH   1   4
ATOM      2  C   UNL     1      -1.137  -1.397  -0.246  0.00  0.00    +0.000 C 
ATOM      3  C   UNL     1       0.288  -1.563  -0.773  0.00  0.00    +0.000 C 
ATOM      4  C   UNL     1       1.347  -0.847   0.075  0.00  0.00    +0.000 C 
ATOM      5  C   UNL     1       1.313   0.680  -0.065  0.00  0.00    +0.000 C 
ATOM      6  C   UNL     1       0.109   1.336   0.610  0.00  0.00    +0.000 C 
ATOM      7  C   UNL     1      -1.205   1.131  -0.078  0.00  0.00    +0.000 C 
ATOM      8  C   UNL     1      -1.740  -0.042  -0.444  0.00  0.00    +0.000 C 
ENDBRANCH   1   4
BRANCH   1   9
ATOM      9  C   UNL     1       3.178  -2.964   0.517  0.00  0.00    +0.000 C 
ATOM     10  C   UNL     1       3.690  -2.606   1.917  0.00  0.00    +0.000 C 
ATOM     11  C   UNL     1       3.605  -3.759   2.917  0.00  0.00    +0.000 C 
ATOM     12  C   UNL     1       4.603  -4.857   2.716  0.00  0.00    +0.000 C 
ATOM     13  C   UNL     1       4.828  -5.532   1.581  0.00  0.00    +0.000 C 
ATOM     14  C   UNL     1       4.129  -5.335   0.272  0.00  0.00    +0.000 C 
ATOM     15  C   UNL     1       4.115  -3.901  -0.257  0.00  0.00    +0.000 C 
ENDBRANCH   1   9
TORSDOF 2
