REMARK  Name = *****
REMARK  4 active torsions:
REMARK  status: ('A' for Active; 'I' for Inactive)
REMARK    1  A    between atoms: C_4  and  C_7
REMARK    2  A    between atoms: C_7  and  N_8
REMARK    3  A    between atoms: N_8  and  C_9
REMARK    4  A    between atoms: N_8  and  C_15
REMARK                            x       y       z     vdW  Elec       q    Type
REMARK                         _______ _______ _______ _____ _____    ______ ____
ROOT
ATOM      1  N   UNL     1      -3.562  -0.834  -0.295  0.00  0.00    +0.000 N 
ENDROOT
BRANCH   1   2
ATOM      2  C   UNL     1      -3.020  -2.149  -0.075  0.00  0.00    +0.000 A 
ATOM      3  C   UNL     1      -1.898  -2.344   0.746  0.00  0.00    +0.000 A 
ATOM      4  C   UNL     1      -1.353  -3.618   0.936  0.00  0.00    +0.000 A 
ATOM      5  C   UNL     1      -1.911  -4.719   0.295  0.00  0.00    +0.000 A 
ATOM      6  C   UNL     1      -3.008  -4.544  -0.542  0.00  0.00    +0.000 A 
ATOM      7  C   UNL     1      -3.553  -3.269  -0.729  0.00  0.00    +0.000 A 
ENDBRANCH   1   2
BRANCH   1   8
ATOM      8  C   UNL     1      -4.933  -0.598  -0.501  0.00  0.00    +0.000 C 
ATOM      9  S   UNL     1      -5.629   0.757  -1.208  0.00  0.00    +0.000 S 
ATOM     10 CL   UNL     1      -6.124  -1.700   0.117  0.00  0.00    +0.000 Cl
ENDBRANCH   1   8
BRANCH   1  11
ATOM     11  C   UNL     1      -2.597   0.283  -0.348  0.00  0.00    +0.000 C 
BRANCH  11  15
ATOM     12  C   UNL     1      -2.272   2.811   3.154  0.00  0.00    +0.000 A 
ATOM     13  C   UNL     1      -3.017   1.638   3.231  0.00  0.00    +0.000 A 
ATOM     14  C   UNL     1      -3.140   0.809   2.113  0.00  0.00    +0.000 A 
ATOM     15  C   UNL     1      -2.523   1.146   0.898  0.00  0.00    +0.000 A 
ATOM     16  C   UNL     1      -1.771   2.332   0.841  0.00  0.00    +0.000 A 
ATOM     17  C   UNL     1      -1.648   3.158   1.960  0.00  0.00    +0.000 A 
ENDBRANCH  11  15
ENDBRANCH   1  11
TORSDOF 4
