REMARK  Name = *****
REMARK  3 active torsions:
REMARK  status: ('A' for Active; 'I' for Inactive)
REMARK    1  A    between atoms: C_5  and  O_7
REMARK    2  A    between atoms: O_7  and  C_8
REMARK    3  A    between atoms: C_8  and  C_10
REMARK                            x       y       z     vdW  Elec       q    Type
REMARK                         _______ _______ _______ _____ _____    ______ ____
ROOT
ATOM      1  C   UNL     1      -1.632  -2.572   0.421  0.00  0.00    +0.000 C 
ATOM      2  O   UNL     1      -2.334  -1.572   0.455  0.00  0.00    +0.000 OA
ENDROOT
BRANCH   1   3
ATOM      3  C   UNL     1      -2.181  -3.943   0.222  0.00  0.00    +0.000 A 
ATOM      4  C   UNL     1      -1.374  -5.092   0.229  0.00  0.00    +0.000 A 
ATOM      5  C   UNL     1      -1.947  -6.353   0.038  0.00  0.00    +0.000 A 
ATOM      6  C   UNL     1      -3.320  -6.463  -0.158  0.00  0.00    +0.000 A 
ATOM      7  C   UNL     1      -4.134  -5.337  -0.166  0.00  0.00    +0.000 A 
ATOM      8  C   UNL     1      -3.566  -4.075   0.025  0.00  0.00    +0.000 A 
ATOM      9  F   UNL     1      -3.864  -7.672  -0.341  0.00  0.00    +0.000 F 
ENDBRANCH   1   3
BRANCH   1  10
ATOM     10  O   UNL     1      -0.257  -2.632   0.536  0.00  0.00    +0.000 OA
BRANCH  10  15
ATOM     11  C   UNL     1       1.362   0.623   0.004  0.00  0.00    +0.000 A 
ATOM     12  C   UNL     1       1.521   1.065   1.320  0.00  0.00    +0.000 A 
ATOM     13  C   UNL     1       1.083   0.274   2.386  0.00  0.00    +0.000 A 
ATOM     14  C   UNL     1       0.480  -0.959   2.137  0.00  0.00    +0.000 A 
ATOM     15  C   UNL     1       0.307  -1.384   0.817  0.00  0.00    +0.000 A 
ATOM     16  C   UNL     1       0.760  -0.609  -0.252  0.00  0.00    +0.000 A 
ATOM     17 CL   UNL     1      -0.019  -1.932   3.470  0.00  0.00    +0.000 Cl
ENDBRANCH  10  15
ENDBRANCH   1  10
TORSDOF 3
