REMARK  Name = *****
REMARK  1 active torsions:
REMARK  status: ('A' for Active; 'I' for Inactive)
REMARK    1  A    between atoms: N_9  and  C_10
REMARK                            x       y       z     vdW  Elec       q    Type
REMARK                         _______ _______ _______ _____ _____    ______ ____
ROOT
ATOM      1  C   UNL     1       2.151   0.816   0.115  0.00  0.00    +0.000 C 
ATOM      2  C   UNL     1       0.796   1.370  -0.254  0.00  0.00    +0.000 C 
ATOM      3  C   UNL     1      -0.333   0.670  -0.112  0.00  0.00    +0.000 C 
ATOM      4  C   UNL     1      -1.684   1.074  -0.425  0.00  0.00    +0.000 C 
ATOM      5  C   UNL     1      -2.477   0.041  -0.083  0.00  0.00    +0.000 C 
ATOM      6  C   UNL     1      -1.662  -1.042   0.458  0.00  0.00    +0.000 C 
ATOM      7  C   UNL     1      -0.375  -0.668   0.434  0.00  0.00    +0.000 C 
ATOM      8  S   UNL     1       1.007  -1.508   0.962  0.00  0.00    +0.000 S 
ATOM      9  N   UNL     1       2.186  -0.661   0.078  0.00  0.00    +0.000 N 
ENDROOT
BRANCH   9  10
ATOM     10  C   UNL     1       3.457  -1.276  -0.048  0.00  0.00    +0.000 A 
ATOM     11  C   UNL     1       3.556  -2.600  -0.521  0.00  0.00    +0.000 A 
ATOM     12  C   UNL     1       4.790  -3.238  -0.674  0.00  0.00    +0.000 A 
ATOM     13  C   UNL     1       5.964  -2.565  -0.358  0.00  0.00    +0.000 A 
ATOM     14  C   UNL     1       5.901  -1.257   0.110  0.00  0.00    +0.000 A 
ATOM     15  C   UNL     1       4.662  -0.621   0.260  0.00  0.00    +0.000 A 
ENDBRANCH   9  10
TORSDOF 1
