REMARK  Name = *****
REMARK  4 active torsions:
REMARK  status: ('A' for Active; 'I' for Inactive)
REMARK    1  A    between atoms: C_4  and  C_7
REMARK    2  A    between atoms: C_7  and  O_9
REMARK    3  A    between atoms: O_9  and  C_10
REMARK    4  A    between atoms: C_10  and  C_11
REMARK                            x       y       z     vdW  Elec       q    Type
REMARK                         _______ _______ _______ _____ _____    ______ ____
ROOT
ATOM      1  O   UNL     1      -3.727  -0.438  -0.021  0.00  0.00    +0.000 OA
ENDROOT
BRANCH   1   2
ATOM      2  C   UNL     1      -2.847   0.479  -0.489  0.00  0.00    +0.000 C 
ATOM      3  O   UNL     1      -3.117   1.440  -1.192  0.00  0.00    +0.000 OA
BRANCH   2   7
ATOM      4  C   UNL     1       1.161  -0.355   0.787  0.00  0.00    +0.000 A 
ATOM      5  C   UNL     1       0.137  -1.231   1.145  0.00  0.00    +0.000 A 
ATOM      6  C   UNL     1      -1.176  -0.977   0.740  0.00  0.00    +0.000 A 
ATOM      7  C   UNL     1      -1.469   0.160  -0.027  0.00  0.00    +0.000 A 
ATOM      8  C   UNL     1      -0.433   1.034  -0.384  0.00  0.00    +0.000 A 
ATOM      9  C   UNL     1       0.878   0.777   0.023  0.00  0.00    +0.000 A 
ENDBRANCH   2   7
ENDBRANCH   1   2
BRANCH   1  10
ATOM     10  C   UNL     1      -5.091  -0.258  -0.420  0.00  0.00    +0.000 C 
BRANCH  10  11
ATOM     11  C   UNL     1      -5.377  -1.092  -1.645  0.00  0.00    +0.000 A 
ATOM     12  C   UNL     1      -5.582  -2.485  -1.588  0.00  0.00    +0.000 A 
ATOM     13  C   UNL     1      -5.823  -3.205  -2.770  0.00  0.00    +0.000 A 
ATOM     14  C   UNL     1      -5.850  -2.548  -4.004  0.00  0.00    +0.000 A 
ATOM     15  C   UNL     1      -5.633  -1.174  -4.069  0.00  0.00    +0.000 A 
ATOM     16  C   UNL     1      -5.395  -0.454  -2.900  0.00  0.00    +0.000 A 
ATOM     17 CL   UNL     1      -6.094  -4.914  -2.781  0.00  0.00    +0.000 Cl
ATOM     18 CL   UNL     1      -5.530  -3.304  -0.058  0.00  0.00    +0.000 Cl
ENDBRANCH  10  11
ENDBRANCH   1  10
TORSDOF 4
