REMARK  Name = *****
REMARK  3 active torsions:
REMARK  status: ('A' for Active; 'I' for Inactive)
REMARK    1  A    between atoms: C_4  and  C_7
REMARK    2  A    between atoms: C_7  and  C_8
REMARK    3  A    between atoms: C_8  and  C_9
REMARK                            x       y       z     vdW  Elec       q    Type
REMARK                         _______ _______ _______ _____ _____    ______ ____
ROOT
ATOM      1  C   UNL     1      -2.820   0.468  -0.185  0.00  0.00    +0.000 C 
ENDROOT
BRANCH   1   5
ATOM      2  C   UNL     1       1.402  -0.270   0.287  0.00  0.00    +0.000 A 
ATOM      3  C   UNL     1       0.863  -0.096  -0.986  0.00  0.00    +0.000 A 
ATOM      4  C   UNL     1      -0.502   0.149  -1.140  0.00  0.00    +0.000 A 
ATOM      5  C   UNL     1      -1.340   0.225  -0.019  0.00  0.00    +0.000 A 
ATOM      6  C   UNL     1      -0.789   0.042   1.256  0.00  0.00    +0.000 A 
ATOM      7  C   UNL     1       0.577  -0.202   1.408  0.00  0.00    +0.000 A 
ENDBRANCH   1   5
BRANCH   1   8
ATOM      8  C   UNL     1      -3.594  -0.845  -0.333  0.00  0.00    +0.000 C 
BRANCH   8   9
ATOM      9  C   UNL     1      -5.074  -0.603  -0.497  0.00  0.00    +0.000 A 
ATOM     10  C   UNL     1      -5.624  -0.405  -1.771  0.00  0.00    +0.000 A 
ATOM     11  C   UNL     1      -6.989  -0.161  -1.921  0.00  0.00    +0.000 A 
ATOM     12  C   UNL     1      -7.816  -0.107  -0.801  0.00  0.00    +0.000 A 
ATOM     13  C   UNL     1      -7.278  -0.297   0.471  0.00  0.00    +0.000 A 
ATOM     14  C   UNL     1      -5.913  -0.541   0.623  0.00  0.00    +0.000 A 
ENDBRANCH   8   9
ENDBRANCH   1   8
TORSDOF 3
