REMARK  Name = *****
REMARK  1 active torsions:
REMARK  status: ('A' for Active; 'I' for Inactive)
REMARK    1  A    between atoms: C_3  and  C_11
REMARK                            x       y       z     vdW  Elec       q    Type
REMARK                         _______ _______ _______ _____ _____    ______ ____
ROOT
ATOM      1  C   UNL     1       1.603  -0.586   0.505  0.00  0.00    +0.000 C 
ATOM      2  C   UNL     1       2.934  -1.245   0.733  0.00  0.00    +0.000 C 
ATOM      3  C   UNL     1       2.857   0.071  -0.050  0.00  0.00    +0.000 C 
ATOM      4  C   UNL     1       3.562   1.171   0.764  0.00  0.00    +0.000 C 
ATOM      5  C   UNL     1       4.102   0.439   1.972  0.00  0.00    +0.000 A 
ATOM      6  C   UNL     1       4.854   0.976   3.006  0.00  0.00    +0.000 A 
ATOM      7  C   UNL     1       5.253   0.130   4.042  0.00  0.00    +0.000 A 
ATOM      8  C   UNL     1       4.897  -1.226   4.032  0.00  0.00    +0.000 A 
ATOM      9  C   UNL     1       4.137  -1.756   2.985  0.00  0.00    +0.000 A 
ATOM     10  C   UNL     1       3.739  -0.921   1.951  0.00  0.00    +0.000 A 
ENDROOT
BRANCH   3  11
ATOM     11  C   UNL     1       3.072   0.090  -1.547  0.00  0.00    +0.000 A 
ATOM     12  C   UNL     1       2.138   0.688  -2.410  0.00  0.00    +0.000 A 
ATOM     13  C   UNL     1       2.338   0.719  -3.792  0.00  0.00    +0.000 A 
ATOM     14  C   UNL     1       3.485   0.156  -4.343  0.00  0.00    +0.000 A 
ATOM     15  C   UNL     1       4.431  -0.436  -3.511  0.00  0.00    +0.000 A 
ATOM     16  C   UNL     1       4.225  -0.465  -2.129  0.00  0.00    +0.000 A 
ENDBRANCH   3  11
TORSDOF 1
