REMARK  Name = *****
REMARK  4 active torsions:
REMARK  status: ('A' for Active; 'I' for Inactive)
REMARK    1  A    between atoms: C_4  and  C_7
REMARK    2  A    between atoms: C_7  and  C_8
REMARK    3  A    between atoms: C_8  and  S_9
REMARK    4  A    between atoms: S_9  and  C_11
REMARK                            x       y       z     vdW  Elec       q    Type
REMARK                         _______ _______ _______ _____ _____    ______ ____
ROOT
ATOM      1  S   UNL     1      -5.522  -0.325  -0.445  0.00  0.00    +0.000 S 
ATOM      2  O   UNL     1      -5.737   0.606  -1.602  0.00  0.00    +0.000 OA
ENDROOT
BRANCH   1   3
ATOM      3  C   UNL     1      -6.123  -1.942  -0.992  0.00  0.00    +0.000 A 
ATOM      4  C   UNL     1      -6.118  -3.024  -0.100  0.00  0.00    +0.000 A 
ATOM      5  C   UNL     1      -6.589  -4.273  -0.512  0.00  0.00    +0.000 A 
ATOM      6  C   UNL     1      -7.070  -4.433  -1.806  0.00  0.00    +0.000 A 
ATOM      7  C   UNL     1      -7.092  -3.368  -2.698  0.00  0.00    +0.000 A 
ATOM      8  C   UNL     1      -6.621  -2.119  -2.290  0.00  0.00    +0.000 A 
ATOM      9  F   UNL     1      -7.523  -5.632  -2.197  0.00  0.00    +0.000 F 
ENDBRANCH   1   3
BRANCH   1  10
ATOM     10  C   UNL     1      -3.746  -0.741  -0.403  0.00  0.00    +0.000 C 
BRANCH  10  11
ATOM     11  C   UNL     1      -2.923   0.507  -0.098  0.00  0.00    +0.000 C 
BRANCH  11  15
ATOM     12  C   UNL     1       1.256  -0.488   0.271  0.00  0.00    +0.000 A 
ATOM     13  C   UNL     1       0.703  -0.252  -0.986  0.00  0.00    +0.000 A 
ATOM     14  C   UNL     1      -0.648   0.077  -1.106  0.00  0.00    +0.000 A 
ATOM     15  C   UNL     1      -1.457   0.176   0.034  0.00  0.00    +0.000 A 
ATOM     16  C   UNL     1      -0.893  -0.067   1.293  0.00  0.00    +0.000 A 
ATOM     17  C   UNL     1       0.458  -0.396   1.410  0.00  0.00    +0.000 A 
ENDBRANCH  11  15
ENDBRANCH  10  11
ENDBRANCH   1  10
TORSDOF 4
