REMARK  Name = *****
REMARK  5 active torsions:
REMARK  status: ('A' for Active; 'I' for Inactive)
REMARK    1  A    between atoms: C_4  and  C_7
REMARK    2  A    between atoms: C_7  and  C_8
REMARK    3  A    between atoms: C_8  and  C_9
REMARK    4  A    between atoms: C_9  and  O_10
REMARK    5  A    between atoms: O_10  and  C_11
REMARK                            x       y       z     vdW  Elec       q    Type
REMARK                         _______ _______ _______ _____ _____    ______ ____
ROOT
ATOM      1  C   UNL     1      -3.639  -0.831  -0.265  0.00  0.00    +0.000 C 
ENDROOT
BRANCH   1   2
ATOM      2  C   UNL     1      -2.851   0.472  -0.154  0.00  0.00    +0.000 C 
BRANCH   2   6
ATOM      3  C   UNL     1       1.343  -0.282   0.502  0.00  0.00    +0.000 A 
ATOM      4  C   UNL     1       0.847  -0.181  -0.797  0.00  0.00    +0.000 A 
ATOM      5  C   UNL     1      -0.510   0.066  -1.010  0.00  0.00    +0.000 A 
ATOM      6  C   UNL     1      -1.382   0.221   0.075  0.00  0.00    +0.000 A 
ATOM      7  C   UNL     1      -0.875   0.111   1.377  0.00  0.00    +0.000 A 
ATOM      8  C   UNL     1       0.482  -0.137   1.588  0.00  0.00    +0.000 A 
ENDBRANCH   2   6
ENDBRANCH   1   2
BRANCH   1   9
ATOM      9  C   UNL     1      -5.124  -0.563  -0.488  0.00  0.00    +0.000 C 
BRANCH   9  10
ATOM     10  O   UNL     1      -5.787  -1.823  -0.588  0.00  0.00    +0.000 OA
BRANCH  10  11
ATOM     11  C   UNL     1      -7.139  -1.800  -0.799  0.00  0.00    +0.000 A 
ATOM     12  C   UNL     1      -7.935  -0.660  -0.908  0.00  0.00    +0.000 A 
ATOM     13  C   UNL     1      -9.312  -0.782  -1.124  0.00  0.00    +0.000 A 
ATOM     14  C   UNL     1      -9.897  -2.043  -1.232  0.00  0.00    +0.000 A 
ATOM     15  C   UNL     1      -9.106  -3.184  -1.124  0.00  0.00    +0.000 A 
ATOM     16  C   UNL     1      -7.733  -3.061  -0.908  0.00  0.00    +0.000 A 
ENDBRANCH  10  11
ENDBRANCH   9  10
ENDBRANCH   1   9
TORSDOF 5
