REMARK  Name = *****
REMARK  2 active torsions:
REMARK  status: ('A' for Active; 'I' for Inactive)
REMARK    1  A    between atoms: C_4  and  C_7
REMARK    2  A    between atoms: C_8  and  C_9
REMARK                            x       y       z     vdW  Elec       q    Type
REMARK                         _______ _______ _______ _____ _____    ______ ____
ROOT
ATOM      1  C   UNL     1       2.885   0.175  -0.271  0.00  0.00    +0.000 C 
ATOM      2  C   UNL     1       4.078   0.262  -0.377  0.00  0.00    +0.000 C 
ENDROOT
BRANCH   1   6
ATOM      3  C   UNL     1      -1.315  -0.084   0.090  0.00  0.00    +0.000 A 
ATOM      4  C   UNL     1      -0.695   1.165   0.028  0.00  0.00    +0.000 A 
ATOM      5  C   UNL     1       0.693   1.250  -0.091  0.00  0.00    +0.000 A 
ATOM      6  C   UNL     1       1.463   0.085  -0.147  0.00  0.00    +0.000 A 
ATOM      7  C   UNL     1       0.841  -1.164  -0.084  0.00  0.00    +0.000 A 
ATOM      8  C   UNL     1      -0.548  -1.247   0.035  0.00  0.00    +0.000 A 
ENDBRANCH   1   6
BRANCH   2   9
ATOM      9  C   UNL     1       5.499   0.377  -0.505  0.00  0.00    +0.000 A 
ATOM     10  C   UNL     1       6.193   1.563  -0.566  0.00  0.00    +0.000 A 
ATOM     11  S   UNL     1       7.872   1.344  -0.720  0.00  0.00    +0.000 S 
ATOM     12  C   UNL     1       7.701  -0.360  -0.709  0.00  0.00    +0.000 A 
ATOM     13  C   UNL     1       6.381  -0.743  -0.589  0.00  0.00    +0.000 A 
ATOM     14 BR   UNL     1       5.423   3.277  -0.491  0.00  0.00    +0.000 Br
ENDBRANCH   2   9
TORSDOF 2
