REMARK  Name = *****
REMARK  5 active torsions:
REMARK  status: ('A' for Active; 'I' for Inactive)
REMARK    1  A    between atoms: C_1  and  C_2
REMARK    2  A    between atoms: C_7  and  C_8
REMARK    3  A    between atoms: C_9  and  C_10
REMARK    4  A    between atoms: C_12  and  C_16
REMARK    5  A    between atoms: C_16  and  C_18
REMARK                            x       y       z     vdW  Elec       q    Type
REMARK                         _______ _______ _______ _____ _____    ______ ____
ROOT
ATOM      1  C   UNL     1       0.909  -1.973   0.826  0.00  0.00    +0.000 C 
ATOM      2  C   UNL     1       1.353  -2.976   0.051  0.00  0.00    +0.000 C 
ENDROOT
BRANCH   1   9
ATOM      3  C   UNL     1       2.092   0.683   1.404  0.00  0.00    +0.000 C 
ATOM      4  C   UNL     1       0.868   0.521   0.544  0.00  0.00    +0.000 A 
ATOM      5  C   UNL     1       0.254   1.663   0.004  0.00  0.00    +0.000 A 
ATOM      6  C   UNL     1      -0.880   1.553  -0.801  0.00  0.00    +0.000 A 
ATOM      7  C   UNL     1      -1.420   0.301  -1.074  0.00  0.00    +0.000 A 
ATOM      8  C   UNL     1      -0.824  -0.843  -0.543  0.00  0.00    +0.000 A 
ATOM      9  C   UNL     1       0.322  -0.748   0.263  0.00  0.00    +0.000 A 
ENDBRANCH   1   9
BRANCH   2  10
ATOM     10  C   UNL     1       1.944  -4.220   0.565  0.00  0.00    +0.000 A 
ATOM     11  C   UNL     1       1.754  -5.405  -0.159  0.00  0.00    +0.000 A 
ATOM     12  C   UNL     1       2.320  -6.615   0.274  0.00  0.00    +0.000 A 
ATOM     13  C   UNL     1       3.095  -6.634   1.438  0.00  0.00    +0.000 A 
ATOM     14  C   UNL     1       3.303  -5.455   2.156  0.00  0.00    +0.000 A 
ATOM     15  C   UNL     1       2.736  -4.256   1.719  0.00  0.00    +0.000 A 
BRANCH  12  16
ATOM     16  C   UNL     1       2.073  -7.844  -0.538  0.00  0.00    +0.000 C 
ATOM     17  O   UNL     1       1.403  -7.776  -1.567  0.00  0.00    +0.000 OA
ATOM     18  C   UNL     1       2.656  -9.154  -0.075  0.00  0.00    +0.000 C 
ENDBRANCH  12  16
ENDBRANCH   2  10
TORSDOF 3
