REMARK  Name = *****
REMARK  5 active torsions:
REMARK  status: ('A' for Active; 'I' for Inactive)
REMARK    1  A    between atoms: C_1  and  C_2
REMARK    2  A    between atoms: C_4  and  C_10
REMARK    3  A    between atoms: C_6  and  C_9
REMARK    4  A    between atoms: C_7  and  O_8
REMARK    5  A    between atoms: C_11  and  C_12
REMARK                            x       y       z     vdW  Elec       q    Type
REMARK                         _______ _______ _______ _____ _____    ______ ____
ROOT
ATOM      1  C   UNL     1      -2.594   0.604   0.050  0.00  0.00    +0.000 C 
ATOM      2  C   UNL     1      -1.246  -0.059   0.026  0.00  0.00    +0.000 A 
ATOM      3  C   UNL     1      -1.150  -1.458   0.075  0.00  0.00    +0.000 A 
ATOM      4  C   UNL     1       0.096  -2.094   0.051  0.00  0.00    +0.000 A 
ATOM      5  C   UNL     1       1.257  -1.310   0.007  0.00  0.00    +0.000 A 
ATOM      6  C   UNL     1       1.191   0.093  -0.041  0.00  0.00    +0.000 A 
ATOM      7  C   UNL     1      -0.071   0.703  -0.033  0.00  0.00    +0.000 A 
ATOM      8  C   UNL     1       2.468   0.882  -0.096  0.00  0.00    +0.000 C 
ENDROOT
BRANCH   7   9
ATOM      9  O   UNL     1      -0.215   2.063  -0.077  0.00  0.00    +0.000 OA
ATOM     10  H   UNL     1      -1.071   2.444  -0.071  0.00  0.00    +0.000 HD
ENDBRANCH   7   9
BRANCH   4  11
ATOM     11  C   UNL     1       0.233  -3.556   0.133  0.00  0.00    +0.000 C 
ATOM     12  C   UNL     1      -0.583  -4.419  -0.493  0.00  0.00    +0.000 C 
BRANCH  12  13
ATOM     13  C   UNL     1      -0.469  -5.886  -0.421  0.00  0.00    +0.000 A 
ATOM     14  C   UNL     1      -1.632  -6.662  -0.518  0.00  0.00    +0.000 A 
ATOM     15  C   UNL     1      -1.593  -8.057  -0.482  0.00  0.00    +0.000 A 
ATOM     16  C   UNL     1      -0.371  -8.714  -0.360  0.00  0.00    +0.000 A 
ATOM     17  C   UNL     1       0.802  -7.967  -0.280  0.00  0.00    +0.000 A 
ATOM     18  C   UNL     1       0.747  -6.571  -0.317  0.00  0.00    +0.000 A 
ATOM     19  F   UNL     1       1.910  -5.903  -0.264  0.00  0.00    +0.000 F 
ATOM     20  F   UNL     1      -2.830  -6.069  -0.643  0.00  0.00    +0.000 F 
ENDBRANCH  12  13
ENDBRANCH   4  11
TORSDOF 3
