REMARK  Name = *****
REMARK  3 active torsions:
REMARK  status: ('A' for Active; 'I' for Inactive)
REMARK    1  A    between atoms: N_2  and  C_3
REMARK    2  A    between atoms: C_3  and  C_11
REMARK    3  A    between atoms: N_4  and  C_5
REMARK                            x       y       z     vdW  Elec       q    Type
REMARK                         _______ _______ _______ _____ _____    ______ ____
ROOT
ATOM      1  C   UNL     1       3.737   0.042  -0.025  0.00  0.00    +0.000 C 
ATOM      2  N   UNL     1       4.354   0.028   1.122  0.00  0.00    +0.000 NA
ENDROOT
BRANCH   2   3
ATOM      3  C   UNL     1       3.638  -0.329   2.271  0.00  0.00    +0.000 A 
ATOM      4  C   UNL     1       3.606  -1.660   2.696  0.00  0.00    +0.000 A 
ATOM      5  C   UNL     1       2.909  -2.015   3.852  0.00  0.00    +0.000 A 
ATOM      6  C   UNL     1       2.250  -1.038   4.596  0.00  0.00    +0.000 A 
ATOM      7  C   UNL     1       2.294   0.295   4.189  0.00  0.00    +0.000 A 
ATOM      8  C   UNL     1       2.992   0.648   3.033  0.00  0.00    +0.000 A 
ENDBRANCH   2   3
BRANCH   1   9
ATOM      9  C   UNL     1       4.474   0.419  -1.268  0.00  0.00    +0.000 A 
ATOM     10  C   UNL     1       3.832   0.454  -2.513  0.00  0.00    +0.000 A 
ATOM     11  C   UNL     1       4.546   0.810  -3.660  0.00  0.00    +0.000 A 
ATOM     12  C   UNL     1       5.899   1.132  -3.573  0.00  0.00    +0.000 A 
ATOM     13  C   UNL     1       6.545   1.100  -2.338  0.00  0.00    +0.000 A 
ATOM     14  C   UNL     1       5.836   0.745  -1.189  0.00  0.00    +0.000 A 
ENDBRANCH   1   9
BRANCH   1  16
ATOM     15  C   UNL     1       1.204  -0.576  -0.256  0.00  0.00    +0.000 C 
ATOM     16  N   UNL     1       2.340  -0.300  -0.144  0.00  0.00    +0.000 NA
ENDBRANCH   1  16
TORSDOF 3
