REMARK  Name = *****
REMARK  1 active torsions:
REMARK  status: ('A' for Active; 'I' for Inactive)
REMARK    1  A    between atoms: N_3  and  C_11
REMARK                            x       y       z     vdW  Elec       q    Type
REMARK                         _______ _______ _______ _____ _____    ______ ____
ROOT
ATOM      1  C   UNL     1       1.211   1.537   0.021  0.00  0.00    +0.000 C 
ATOM      2  C   UNL     1       2.387   0.744   0.593  0.00  0.00    +0.000 C 
ATOM      3  N   UNL     1       2.424  -0.658   0.044  0.00  0.00    +0.000 N 
ATOM      4  C   UNL     1       1.330  -1.274  -0.279  0.00  0.00    +0.000 C 
ATOM      5  C   UNL     1       0.007  -0.642  -0.159  0.00  0.00    +0.000 A 
ATOM      6  C   UNL     1      -1.149  -1.419  -0.240  0.00  0.00    +0.000 A 
ATOM      7  C   UNL     1      -2.392  -0.799  -0.128  0.00  0.00    +0.000 A 
ATOM      8  C   UNL     1      -2.472   0.583   0.054  0.00  0.00    +0.000 A 
ATOM      9  C   UNL     1      -1.311   1.356   0.123  0.00  0.00    +0.000 A 
ATOM     10  C   UNL     1      -0.060   0.742   0.028  0.00  0.00    +0.000 A 
ENDROOT
BRANCH   3  11
ATOM     11  C   UNL     1       3.706  -1.304  -0.120  0.00  0.00    +0.000 A 
ATOM     12  C   UNL     1       4.858  -0.776   0.497  0.00  0.00    +0.000 A 
ATOM     13  C   UNL     1       6.111  -1.392   0.351  0.00  0.00    +0.000 A 
ATOM     14  C   UNL     1       6.237  -2.545  -0.412  0.00  0.00    +0.000 A 
ATOM     15  C   UNL     1       5.118  -3.089  -1.030  0.00  0.00    +0.000 A 
ATOM     16  C   UNL     1       3.863  -2.477  -0.885  0.00  0.00    +0.000 A 
ATOM     17 CL   UNL     1       7.770  -3.296  -0.590  0.00  0.00    +0.000 Cl
ENDBRANCH   3  11
TORSDOF 1
