REMARK  Name = *****
REMARK  7 active torsions:
REMARK  status: ('A' for Active; 'I' for Inactive)
REMARK    1  A    between atoms: C_1  and  C_2
REMARK    2  A    between atoms: C_3  and  C_9
REMARK    3  A    between atoms: C_4  and  C_8
REMARK    4  A    between atoms: N_11  and  C_12
REMARK    5  A    between atoms: N_11  and  C_13
REMARK    6  A    between atoms: C_14  and  C_20
REMARK    7  A    between atoms: C_18  and  C_19
REMARK                            x       y       z     vdW  Elec       q    Type
REMARK                         _______ _______ _______ _____ _____    ______ ____
ROOT
ATOM      1  C   UNL     1       0.024   2.623  -0.345  0.00  0.00    +0.000 C 
ATOM      2  O   UNL     1       0.121   1.407  -0.528  0.00  0.00    +0.000 OA
ATOM      3  N   UNL     1       1.152   3.461  -0.279  0.00  0.00    +0.000 N 
ATOM      4  C   UNL     1       2.452   2.821  -0.420  0.00  0.00    +0.000 C 
ENDROOT
BRANCH   1   7
ATOM      5  C   UNL     1      -1.668   1.678   1.863  0.00  0.00    +0.000 C 
ATOM      6  C   UNL     1      -2.138   2.736   0.898  0.00  0.00    +0.000 A 
ATOM      7  C   UNL     1      -1.354   3.170  -0.200  0.00  0.00    +0.000 A 
ATOM      8  C   UNL     1      -1.924   4.010  -1.180  0.00  0.00    +0.000 A 
ATOM      9  C   UNL     1      -3.214   4.525  -0.970  0.00  0.00    +0.000 A 
ATOM     10  C   UNL     1      -3.961   4.153   0.144  0.00  0.00    +0.000 A 
ATOM     11  C   UNL     1      -3.438   3.242   1.056  0.00  0.00    +0.000 A 
ATOM     12  C   UNL     1      -1.242   4.361  -2.471  0.00  0.00    +0.000 C 
ENDBRANCH   1   7
BRANCH   3  13
ATOM     13  C   UNL     1       1.142   4.868  -0.051  0.00  0.00    +0.000 A 
ATOM     14  C   UNL     1       0.716   5.404   1.183  0.00  0.00    +0.000 A 
ATOM     15  C   UNL     1       0.677   6.800   1.355  0.00  0.00    +0.000 A 
ATOM     16  C   UNL     1       1.122   7.657   0.356  0.00  0.00    +0.000 A 
ATOM     17  C   UNL     1       1.625   7.131  -0.827  0.00  0.00    +0.000 A 
ATOM     18  C   UNL     1       1.642   5.743  -1.050  0.00  0.00    +0.000 A 
ATOM     19  C   UNL     1       2.224   5.264  -2.355  0.00  0.00    +0.000 C 
ATOM     20  C   UNL     1       0.365   4.569   2.382  0.00  0.00    +0.000 C 
ENDBRANCH   3  13
TORSDOF 2
