REMARK  Name = *****
REMARK  2 active torsions:
REMARK  status: ('A' for Active; 'I' for Inactive)
REMARK    1  A    between atoms: C_3  and  C_6
REMARK    2  A    between atoms: C_7  and  C_8
REMARK                            x       y       z     vdW  Elec       q    Type
REMARK                         _______ _______ _______ _____ _____    ______ ____
ROOT
ATOM      1  C   UNL     1       0.222  -2.146   1.195  0.00  0.00    +0.000 C 
ATOM      2  C   UNL     1       1.176  -3.074   1.382  0.00  0.00    +0.000 C 
ENDROOT
BRANCH   2   3
ATOM      3  C   UNL     1       1.253  -3.961   2.551  0.00  0.00    +0.000 A 
ATOM      4  C   UNL     1       0.110  -4.478   3.177  0.00  0.00    +0.000 A 
ATOM      5  C   UNL     1       0.225  -5.347   4.267  0.00  0.00    +0.000 A 
ATOM      6  C   UNL     1       1.487  -5.711   4.730  0.00  0.00    +0.000 A 
ATOM      7  C   UNL     1       2.633  -5.219   4.111  0.00  0.00    +0.000 A 
ATOM      8  C   UNL     1       2.515  -4.352   3.021  0.00  0.00    +0.000 A 
ATOM      9 BR   UNL     1       1.645  -6.885   6.202  0.00  0.00    +0.000 Br
ENDBRANCH   2   3
BRANCH   1  12
ATOM     10  C   UNL     1      -0.997   0.787  -0.060  0.00  0.00    +0.000 C 
ATOM     11  C   UNL     1       0.132   0.212   0.389  0.00  0.00    +0.000 C 
ATOM     12  C   UNL     1       0.161  -1.242  -0.003  0.00  0.00    +0.000 C 
ATOM     13  C   UNL     1      -1.146  -1.375  -0.741  0.00  0.00    +0.000 C 
ATOM     14  C   UNL     1      -1.786  -0.196  -0.759  0.00  0.00    +0.000 C 
ENDBRANCH   1  12
TORSDOF 2
