REMARK  Name = *****
REMARK  4 active torsions:
REMARK  status: ('A' for Active; 'I' for Inactive)
REMARK    1  A    between atoms: C_3  and  C_16
REMARK    2  A    between atoms: C_6  and  C_7
REMARK    3  A    between atoms: C_7  and  C_8
REMARK    4  A    between atoms: C_8  and  C_9
REMARK                            x       y       z     vdW  Elec       q    Type
REMARK                         _______ _______ _______ _____ _____    ______ ____
ROOT
ATOM      1  C   UNL     1       3.757  -0.189   0.335  0.00  0.00    +0.000 C 
ENDROOT
BRANCH   1   7
ATOM      2  C   UNL     1       1.631   0.776  -0.620  0.00  0.00    +0.000 A 
ATOM      3  C   UNL     1       0.241   0.796  -0.771  0.00  0.00    +0.000 A 
ATOM      4  C   UNL     1      -0.546  -0.176  -0.149  0.00  0.00    +0.000 A 
ATOM      5  C   UNL     1       0.064  -1.163   0.629  0.00  0.00    +0.000 A 
ATOM      6  C   UNL     1       1.454  -1.178   0.784  0.00  0.00    +0.000 A 
ATOM      7  C   UNL     1       2.255  -0.218   0.149  0.00  0.00    +0.000 A 
BRANCH   4   8
ATOM      8  C   UNL     1      -1.972  -0.156  -0.297  0.00  0.00    +0.000 C 
ATOM      9  N   UNL     1      -3.126  -0.141  -0.416  0.00  0.00    +0.000 NA
ENDBRANCH   4   8
ENDBRANCH   1   7
BRANCH   1  10
ATOM     10  C   UNL     1       4.443  -1.551   0.169  0.00  0.00    +0.000 C 
BRANCH  10  11
ATOM     11  C   UNL     1       5.944  -1.447   0.304  0.00  0.00    +0.000 A 
ATOM     12  C   UNL     1       6.537  -1.378   1.573  0.00  0.00    +0.000 A 
ATOM     13  C   UNL     1       7.924  -1.278   1.702  0.00  0.00    +0.000 A 
ATOM     14  C   UNL     1       8.723  -1.244   0.562  0.00  0.00    +0.000 A 
ATOM     15  C   UNL     1       8.147  -1.305  -0.705  0.00  0.00    +0.000 A 
ATOM     16  C   UNL     1       6.760  -1.404  -0.834  0.00  0.00    +0.000 A 
ATOM     17 CL   UNL     1      10.433  -1.124   0.719  0.00  0.00    +0.000 Cl
ENDBRANCH  10  11
ENDBRANCH   1  10
TORSDOF 4
