REMARK  Name = *****
REMARK  4 active torsions:
REMARK  status: ('A' for Active; 'I' for Inactive)
REMARK    1  A    between atoms: C_1  and  O_2
REMARK    2  A    between atoms: O_2  and  C_3
REMARK    3  A    between atoms: C_7  and  C_9
REMARK    4  A    between atoms: C_10  and  C_11
REMARK                            x       y       z     vdW  Elec       q    Type
REMARK                         _______ _______ _______ _____ _____    ______ ____
ROOT
ATOM      1  C   UNL     1       6.581   1.813   2.082  0.00  0.00    +0.000 C 
ATOM      2  C   UNL     1       7.488   1.892   3.070  0.00  0.00    +0.000 C 
ENDROOT
BRANCH   2   3
ATOM      3  C   UNL     1       8.835   2.454   2.900  0.00  0.00    +0.000 A 
ATOM      4  C   UNL     1       9.082   3.575   2.100  0.00  0.00    +0.000 A 
ATOM      5  C   UNL     1      10.373   4.087   1.999  0.00  0.00    +0.000 A 
ATOM      6  C   UNL     1      11.432   3.511   2.690  0.00  0.00    +0.000 A 
ATOM      7  C   UNL     1      11.196   2.404   3.502  0.00  0.00    +0.000 A 
ATOM      8  C   UNL     1       9.903   1.883   3.610  0.00  0.00    +0.000 A 
ATOM      9  F   UNL     1      10.598   5.158   1.226  0.00  0.00    +0.000 F 
ENDBRANCH   2   3
BRANCH   1  14
ATOM     10  C   UNL     1       3.385  -0.022   1.277  0.00  0.00    +0.000 A 
ATOM     11  C   UNL     1       2.648   0.166   2.446  0.00  0.00    +0.000 A 
ATOM     12  C   UNL     1       3.193   0.894   3.506  0.00  0.00    +0.000 A 
ATOM     13  C   UNL     1       4.477   1.431   3.406  0.00  0.00    +0.000 A 
ATOM     14  C   UNL     1       5.238   1.237   2.248  0.00  0.00    +0.000 A 
ATOM     15  C   UNL     1       4.673   0.519   1.185  0.00  0.00    +0.000 A 
BRANCH  10  17
ATOM     16  C   UNL     1       1.662  -1.256   0.200  0.00  0.00    +0.000 C 
ATOM     17  O   UNL     1       2.971  -0.703   0.165  0.00  0.00    +0.000 OA
ENDBRANCH  10  17
ENDBRANCH   1  14
TORSDOF 3
