REMARK  Name = *****
REMARK  3 active torsions:
REMARK  status: ('A' for Active; 'I' for Inactive)
REMARK    1  A    between atoms: C_6  and  C_7
REMARK    2  A    between atoms: C_7  and  O_9
REMARK    3  A    between atoms: O_9  and  C_10
REMARK                            x       y       z     vdW  Elec       q    Type
REMARK                         _______ _______ _______ _____ _____    ______ ____
ROOT
ATOM      1  O   UNL     1      -3.494   1.247   1.322  0.00  0.00    +0.000 OA
ENDROOT
BRANCH   1   2
ATOM      2  C   UNL     1      -4.777   1.236   1.866  0.00  0.00    +0.000 A 
ATOM      3  C   UNL     1      -4.958   0.936   3.213  0.00  0.00    +0.000 A 
ATOM      4  C   UNL     1      -6.241   0.943   3.753  0.00  0.00    +0.000 A 
ATOM      5  C   UNL     1      -7.344   1.258   2.964  0.00  0.00    +0.000 A 
ATOM      6  C   UNL     1      -7.147   1.571   1.622  0.00  0.00    +0.000 A 
ATOM      7  C   UNL     1      -5.869   1.567   1.070  0.00  0.00    +0.000 A 
ATOM      8  F   UNL     1      -5.691   1.885  -0.220  0.00  0.00    +0.000 F 
ATOM      9  F   UNL     1      -8.205   1.889   0.864  0.00  0.00    +0.000 F 
ATOM     10  F   UNL     1      -6.425   0.656   5.049  0.00  0.00    +0.000 F 
ATOM     11  F   UNL     1      -3.902   0.647   3.987  0.00  0.00    +0.000 F 
ENDBRANCH   1   2
BRANCH   1  12
ATOM     12  C   UNL     1      -3.154  -0.001   0.838  0.00  0.00    +0.000 C 
ATOM     13  O   UNL     1      -3.848  -1.007   0.861  0.00  0.00    +0.000 OA
BRANCH  12  19
ATOM     14  C   UNL     1      -1.010   1.204   0.200  0.00  0.00    +0.000 A 
ATOM     15  C   UNL     1       0.275   1.170  -0.349  0.00  0.00    +0.000 A 
ATOM     16  C   UNL     1       0.789  -0.031  -0.828  0.00  0.00    +0.000 A 
ATOM     17  C   UNL     1       0.043  -1.202  -0.770  0.00  0.00    +0.000 A 
ATOM     18  C   UNL     1      -1.242  -1.173  -0.223  0.00  0.00    +0.000 A 
ATOM     19  C   UNL     1      -1.778   0.030   0.266  0.00  0.00    +0.000 A 
ATOM     20  F   UNL     1       2.020  -0.058  -1.352  0.00  0.00    +0.000 F 
ENDBRANCH  12  19
ENDBRANCH   1  12
TORSDOF 3
