REMARK  Name = *****
REMARK  1 active torsions:
REMARK  status: ('A' for Active; 'I' for Inactive)
REMARK    1  A    between atoms: C_4  and  C_7
REMARK                            x       y       z     vdW  Elec       q    Type
REMARK                         _______ _______ _______ _____ _____    ______ ____
ROOT
ATOM      1  C   UNL     1      -2.886   0.654  -0.297  0.00  0.00    +0.000 C 
ATOM      2  N   UNL     1      -3.315   1.846  -0.557  0.00  0.00    +0.000 NA
ATOM      3  C   UNL     1      -4.695   2.070  -0.507  0.00  0.00    +0.000 A 
ATOM      4  C   UNL     1      -5.150   3.375  -0.726  0.00  0.00    +0.000 A 
ATOM      5  C   UNL     1      -6.510   3.674  -0.680  0.00  0.00    +0.000 A 
ATOM      6  C   UNL     1      -7.427   2.663  -0.413  0.00  0.00    +0.000 A 
ATOM      7  C   UNL     1      -6.983   1.356  -0.194  0.00  0.00    +0.000 A 
ATOM      8  C   UNL     1      -5.613   1.043  -0.242  0.00  0.00    +0.000 A 
ATOM      9  C   UNL     1      -5.067  -0.308  -0.018  0.00  0.00    +0.000 C 
ATOM     10  C   UNL     1      -5.811  -1.408   0.155  0.00  0.00    +0.000 C 
ATOM     11 CL   UNL     1      -5.156  -2.978   0.405  0.00  0.00    +0.000 Cl
ATOM     12  O   UNL     1      -3.655  -0.429  -0.005  0.00  0.00    +0.000 OA
ENDROOT
BRANCH   1  16
ATOM     13  C   UNL     1       1.286  -0.328  -0.341  0.00  0.00    +0.000 A 
ATOM     14  C   UNL     1       0.378  -1.219   0.230  0.00  0.00    +0.000 A 
ATOM     15  C   UNL     1      -0.985  -0.915   0.250  0.00  0.00    +0.000 A 
ATOM     16  C   UNL     1      -1.447   0.289  -0.303  0.00  0.00    +0.000 A 
ATOM     17  C   UNL     1      -0.526   1.181  -0.870  0.00  0.00    +0.000 A 
ATOM     18  C   UNL     1       0.835   0.871  -0.891  0.00  0.00    +0.000 A 
ENDBRANCH   1  16
TORSDOF 1
