REMARK  Name = *****
REMARK  3 active torsions:
REMARK  status: ('A' for Active; 'I' for Inactive)
REMARK    1  A    between atoms: C_1  and  C_2
REMARK    2  A    between atoms: C_5  and  C_8
REMARK    3  A    between atoms: C_9  and  C_10
REMARK                            x       y       z     vdW  Elec       q    Type
REMARK                         _______ _______ _______ _____ _____    ______ ____
ROOT
ATOM      1  C   UNL     1       1.249  -0.075   0.362  0.00  0.00    +0.000 C 
ATOM      2  C   UNL     1       2.725  -0.046   0.096  0.00  0.00    +0.000 A 
ATOM      3  C   UNL     1       3.383   1.172  -0.117  0.00  0.00    +0.000 A 
ATOM      4  C   UNL     1       4.752   1.197  -0.400  0.00  0.00    +0.000 A 
ATOM      5  C   UNL     1       5.471   0.005  -0.483  0.00  0.00    +0.000 A 
ATOM      6  C   UNL     1       4.820  -1.214  -0.285  0.00  0.00    +0.000 A 
ATOM      7  C   UNL     1       3.452  -1.239  -0.003  0.00  0.00    +0.000 A 
ENDROOT
BRANCH   5   8
ATOM      8  C   UNL     1       6.871   0.031  -0.777  0.00  0.00    +0.000 C 
ATOM      9  C   UNL     1       8.045   0.053  -1.030  0.00  0.00    +0.000 C 
BRANCH   9  10
ATOM     10  C   UNL     1       9.479   0.083  -1.350  0.00  0.00    +0.000 C 
ATOM     11  C   UNL     1      10.199  -1.205  -0.919  0.00  0.00    +0.000 C 
ATOM     12  C   UNL     1      11.251  -0.777   0.100  0.00  0.00    +0.000 C 
ATOM     13  C   UNL     1      11.568   0.658  -0.284  0.00  0.00    +0.000 C 
ATOM     14  C   UNL     1      10.199   1.225  -0.624  0.00  0.00    +0.000 C 
ENDBRANCH   9  10
ENDBRANCH   5   8
TORSDOF 2
