REMARK  Name = *****
REMARK  2 active torsions:
REMARK  status: ('A' for Active; 'I' for Inactive)
REMARK    1  A    between atoms: C_6  and  C_11
REMARK    2  A    between atoms: C_13  and  C_16
REMARK                            x       y       z     vdW  Elec       q    Type
REMARK                         _______ _______ _______ _____ _____    ______ ____
ROOT
ATOM      1  C   UNL     1       2.418  -0.684  -0.023  0.00  0.00    +0.000 A 
ATOM      2  C   UNL     1       2.415   0.708  -0.031  0.00  0.00    +0.000 A 
ATOM      3  C   UNL     1       1.204   1.403  -0.034  0.00  0.00    +0.000 A 
ATOM      4  C   UNL     1      -0.020   0.713  -0.023  0.00  0.00    +0.000 A 
ATOM      5  C   UNL     1      -1.247   1.400  -0.011  0.00  0.00    +0.000 A 
ATOM      6  C   UNL     1      -2.470   0.712   0.018  0.00  0.00    +0.000 A 
ATOM      7  C   UNL     1      -2.448  -0.689   0.021  0.00  0.00    +0.000 A 
ATOM      8  C   UNL     1      -1.237  -1.387   0.002  0.00  0.00    +0.000 A 
ATOM      9  C   UNL     1      -0.016  -0.699  -0.015  0.00  0.00    +0.000 A 
ATOM     10  C   UNL     1       1.211  -1.384  -0.017  0.00  0.00    +0.000 A 
ENDROOT
BRANCH   6  11
ATOM     11  C   UNL     1      -3.750   1.414   0.064  0.00  0.00    +0.000 A 
ATOM     12  N   UNL     1      -4.973   0.920   0.148  0.00  0.00    +0.000 NA
ATOM     13  C   UNL     1      -5.789   2.033   0.195  0.00  0.00    +0.000 A 
ATOM     14  C   UNL     1      -5.011   3.165   0.108  0.00  0.00    +0.000 A 
ATOM     15  O   UNL     1      -3.708   2.784   0.027  0.00  0.00    +0.000 OA
BRANCH  13  16
ATOM     16  C   UNL     1      -7.261   1.910   0.294  0.00  0.00    +0.000 C 
ATOM     17 CL   UNL     1      -7.840   2.693   1.782  0.00  0.00    +0.000 Cl
ENDBRANCH  13  16
ENDBRANCH   6  11
TORSDOF 2
