REMARK  Name = *****
REMARK  1 active torsions:
REMARK  status: ('A' for Active; 'I' for Inactive)
REMARK    1  A    between atoms: C_6  and  C_8
REMARK                            x       y       z     vdW  Elec       q    Type
REMARK                         _______ _______ _______ _____ _____    ______ ____
ROOT
ATOM      1  C   UNL     1      -1.356  -1.552   0.284  0.00  0.00    +0.000 C 
ATOM      2  C   UNL     1      -0.126  -0.722   0.112  0.00  0.00    +0.000 A 
ATOM      3  C   UNL     1      -0.346   0.643  -0.054  0.00  0.00    +0.000 A 
ATOM      4  C   UNL     1       0.701   1.539  -0.221  0.00  0.00    +0.000 A 
ATOM      5  C   UNL     1       2.007   1.041  -0.220  0.00  0.00    +0.000 A 
ATOM      6  C   UNL     1       2.268  -0.337  -0.054  0.00  0.00    +0.000 A 
ATOM      7  C   UNL     1       1.178  -1.214   0.112  0.00  0.00    +0.000 A 
ATOM      8  C   UNL     1      -1.764   1.014  -0.032  0.00  0.00    +0.000 C 
ATOM      9  O   UNL     1      -2.190   2.148  -0.158  0.00  0.00    +0.000 OA
ATOM     10  S   UNL     1      -2.774  -0.405   0.202  0.00  0.00    +0.000 S 
ENDROOT
BRANCH   6  11
ATOM     11  C   UNL     1       3.650  -0.845  -0.054  0.00  0.00    +0.000 A 
ATOM     12  C   UNL     1       4.616  -0.315   0.818  0.00  0.00    +0.000 A 
ATOM     13  C   UNL     1       5.927  -0.798   0.820  0.00  0.00    +0.000 A 
ATOM     14  C   UNL     1       6.295  -1.819  -0.051  0.00  0.00    +0.000 A 
ATOM     15  C   UNL     1       5.354  -2.359  -0.924  0.00  0.00    +0.000 A 
ATOM     16  C   UNL     1       4.043  -1.875  -0.925  0.00  0.00    +0.000 A 
ENDBRANCH   6  11
TORSDOF 1
