REMARK  Name = *****
REMARK  4 active torsions:
REMARK  status: ('A' for Active; 'I' for Inactive)
REMARK    1  A    between atoms: C_1  and  O_2
REMARK    2  A    between atoms: O_2  and  C_3
REMARK    3  A    between atoms: C_6  and  C_9
REMARK    4  A    between atoms: C_10  and  C_11
REMARK                            x       y       z     vdW  Elec       q    Type
REMARK                         _______ _______ _______ _____ _____    ______ ____
ROOT
ATOM      1  C   UNL     1       5.273   4.456   1.504  0.00  0.00    +0.000 C 
ATOM      2  C   UNL     1       5.054   5.216   2.589  0.00  0.00    +0.000 C 
ENDROOT
BRANCH   2   3
ATOM      3  C   UNL     1       5.844   6.393   2.970  0.00  0.00    +0.000 C 
ATOM      4  C   UNL     1       7.284   6.199   3.382  0.00  0.00    +0.000 C 
ATOM      5  C   UNL     1       6.248   6.546   4.418  0.00  0.00    +0.000 C 
ATOM      6  C   UNL     1       6.386   7.899   5.049  0.00  0.00    +0.000 C 
ATOM      7  C   UNL     1       7.833   8.131   5.494  0.00  0.00    +0.000 C 
ATOM      8  C   UNL     1       8.891   7.783   4.430  0.00  0.00    +0.000 C 
ATOM      9  C   UNL     1       8.316   7.254   3.113  0.00  0.00    +0.000 C 
ENDBRANCH   2   3
BRANCH   1  13
ATOM     10  C   UNL     1       2.995   1.008   0.361  0.00  0.00    +0.000 A 
ATOM     11  C   UNL     1       2.346   2.120   0.895  0.00  0.00    +0.000 A 
ATOM     12  C   UNL     1       3.081   3.249   1.278  0.00  0.00    +0.000 A 
ATOM     13  C   UNL     1       4.474   3.279   1.142  0.00  0.00    +0.000 A 
ATOM     14  C   UNL     1       5.117   2.167   0.589  0.00  0.00    +0.000 A 
ATOM     15  C   UNL     1       4.383   1.040   0.208  0.00  0.00    +0.000 A 
BRANCH  10  17
ATOM     16  C   UNL     1       0.989  -0.238   0.097  0.00  0.00    +0.000 C 
ATOM     17  O   UNL     1       2.401  -0.152  -0.051  0.00  0.00    +0.000 OA
ENDBRANCH  10  17
ENDBRANCH   1  13
TORSDOF 3
