REMARK  Name = *****
REMARK  7 active torsions:
REMARK  status: ('A' for Active; 'I' for Inactive)
REMARK    1  A    between atoms: C_1  and  C_2
REMARK    2  A    between atoms: C_4  and  C_8
REMARK    3  A    between atoms: C_5  and  C_7
REMARK    4  A    between atoms: C_8  and  C_9
REMARK    5  A    between atoms: C_9  and  C_11
REMARK    6  A    between atoms: C_12  and  C_17
REMARK    7  A    between atoms: C_14  and  C_16
REMARK                            x       y       z     vdW  Elec       q    Type
REMARK                         _______ _______ _______ _____ _____    ______ ____
ROOT
ATOM      1  C   UNL     1       0.589  -3.953  -0.160  0.00  0.00    +0.000 C 
ATOM      2  O   UNL     1      -0.542  -3.870  -0.637  0.00  0.00    +0.000 OA
ENDROOT
BRANCH   1   3
ATOM      3  C   UNL     1       1.254  -5.266  -0.006  0.00  0.00    +0.000 A 
ATOM      4  C   UNL     1       0.714  -6.464  -0.465  0.00  0.00    +0.000 A 
ATOM      5  S   UNL     1       1.719  -7.807  -0.118  0.00  0.00    +0.000 S 
ATOM      6  C   UNL     1       2.893  -6.833   0.638  0.00  0.00    +0.000 A 
ATOM      7  C   UNL     1       2.527  -5.504   0.625  0.00  0.00    +0.000 A 
ATOM      8  C   UNL     1       4.127  -7.439   1.215  0.00  0.00    +0.000 C 
ATOM      9  C   UNL     1      -0.576  -6.698  -1.188  0.00  0.00    +0.000 C 
ENDBRANCH   1   3
BRANCH   1  10
ATOM     10  C   UNL     1       1.374  -2.720   0.283  0.00  0.00    +0.000 C 
BRANCH  10  14
ATOM     11  C   UNL     1      -0.219   1.741  -1.741  0.00  0.00    +0.000 C 
ATOM     12  C   UNL     1      -0.072   0.593  -0.802  0.00  0.00    +0.000 A 
ATOM     13  C   UNL     1       0.727  -0.522  -0.929  0.00  0.00    +0.000 A 
ATOM     14  C   UNL     1       0.601  -1.432   0.176  0.00  0.00    +0.000 A 
ATOM     15  C   UNL     1      -0.311  -0.955   1.106  0.00  0.00    +0.000 A 
ATOM     16  S   UNL     1      -0.971   0.557   0.646  0.00  0.00    +0.000 S 
ATOM     17  C   UNL     1      -0.772  -1.571   2.387  0.00  0.00    +0.000 C 
ENDBRANCH  10  14
ENDBRANCH   1  10
TORSDOF 3
