REMARK  Name = *****
REMARK  5 active torsions:
REMARK  status: ('A' for Active; 'I' for Inactive)
REMARK    1  A    between atoms: C_1  and  C_2
REMARK    2  A    between atoms: C_5  and  C_8
REMARK    3  A    between atoms: C_8  and  O_10
REMARK    4  A    between atoms: O_10  and  N_11
REMARK    5  A    between atoms: N_11  and  C_12
REMARK                            x       y       z     vdW  Elec       q    Type
REMARK                         _______ _______ _______ _____ _____    ______ ____
ROOT
ATOM      1  C   UNL     1      -3.059   0.434   0.685  0.00  0.00    +0.000 C 
ATOM      2  O   UNL     1      -3.628  -0.387   1.393  0.00  0.00    +0.000 OA
ENDROOT
BRANCH   1   7
ATOM      3  C   UNL     1       2.517  -0.087  -0.825  0.00  0.00    +0.000 C 
ATOM      4  C   UNL     1       1.066   0.049  -0.467  0.00  0.00    +0.000 A 
ATOM      5  C   UNL     1       0.435  -0.931   0.309  0.00  0.00    +0.000 A 
ATOM      6  C   UNL     1      -0.907  -0.791   0.671  0.00  0.00    +0.000 A 
ATOM      7  C   UNL     1      -1.634   0.337   0.270  0.00  0.00    +0.000 A 
ATOM      8  C   UNL     1      -1.002   1.326  -0.493  0.00  0.00    +0.000 A 
ATOM      9  C   UNL     1       0.342   1.183  -0.853  0.00  0.00    +0.000 A 
ENDBRANCH   1   7
BRANCH   1  10
ATOM     10  O   UNL     1      -3.641   1.559   0.173  0.00  0.00    +0.000 OA
BRANCH  10  11
ATOM     11  N   UNL     1      -4.999   1.658   0.530  0.00  0.00    +0.000 N 
ATOM     12  H   UNL     1      -5.570   0.857   0.547  0.00  0.00    +0.000 HD
BRANCH  11  13
ATOM     13  C   UNL     1      -5.529   2.922   0.862  0.00  0.00    +0.000 A 
ATOM     14  C   UNL     1      -4.933   4.108   0.418  0.00  0.00    +0.000 A 
ATOM     15  C   UNL     1      -5.513   5.348   0.698  0.00  0.00    +0.000 A 
ATOM     16  C   UNL     1      -6.711   5.414   1.404  0.00  0.00    +0.000 A 
ATOM     17  C   UNL     1      -7.335   4.240   1.820  0.00  0.00    +0.000 A 
ATOM     18  C   UNL     1      -6.752   3.002   1.539  0.00  0.00    +0.000 A 
ENDBRANCH  11  13
ENDBRANCH  10  11
ENDBRANCH   1  10
TORSDOF 4
