REMARK  Name = *****
REMARK  4 active torsions:
REMARK  status: ('A' for Active; 'I' for Inactive)
REMARK    1  A    between atoms: C_4  and  C_7
REMARK    2  A    between atoms: C_8  and  C_9
REMARK    3  A    between atoms: C_9  and  C_10
REMARK    4  A    between atoms: C_10  and  C_11
REMARK                            x       y       z     vdW  Elec       q    Type
REMARK                         _______ _______ _______ _____ _____    ______ ____
ROOT
ATOM      1  C   UNL     1      -2.831   0.380  -0.296  0.00  0.00    +0.000 C 
ATOM      2  C   UNL     1      -3.742  -0.607  -0.274  0.00  0.00    +0.000 C 
ENDROOT
BRANCH   1   6
ATOM      3  C   UNL     1       1.390  -0.107   0.204  0.00  0.00    +0.000 A 
ATOM      4  C   UNL     1       0.662  -1.089  -0.462  0.00  0.00    +0.000 A 
ATOM      5  C   UNL     1      -0.719  -0.947  -0.628  0.00  0.00    +0.000 A 
ATOM      6  C   UNL     1      -1.386   0.175  -0.120  0.00  0.00    +0.000 A 
ATOM      7  C   UNL     1      -0.639   1.165   0.533  0.00  0.00    +0.000 A 
ATOM      8  C   UNL     1       0.741   1.022   0.699  0.00  0.00    +0.000 A 
ENDBRANCH   1   6
BRANCH   2   9
ATOM      9  C   UNL     1      -5.222  -0.377  -0.439  0.00  0.00    +0.000 C 
BRANCH   9  10
ATOM     10  C   UNL     1      -6.054  -0.767   0.784  0.00  0.00    +0.000 C 
ATOM     11  F   UNL     1      -7.369  -0.578   0.474  0.00  0.00    +0.000 F 
ATOM     12  F   UNL     1      -5.910  -2.104   1.008  0.00  0.00    +0.000 F 
BRANCH  10  13
ATOM     13  C   UNL     1      -5.687   0.018   2.038  0.00  0.00    +0.000 C 
ATOM     14  F   UNL     1      -5.792   1.357   1.822  0.00  0.00    +0.000 F 
ATOM     15  F   UNL     1      -6.539  -0.274   3.057  0.00  0.00    +0.000 F 
ENDBRANCH  10  13
ENDBRANCH   9  10
ENDBRANCH   2   9
TORSDOF 4
