REMARK  Name = *****
REMARK  3 active torsions:
REMARK  status: ('A' for Active; 'I' for Inactive)
REMARK    1  A    between atoms: C_4  and  C_7
REMARK    2  A    between atoms: C_7  and  S_8
REMARK    3  A    between atoms: S_8  and  C_9
REMARK                            x       y       z     vdW  Elec       q    Type
REMARK                         _______ _______ _______ _____ _____    ______ ____
ROOT
ATOM      1  S   UNL     1      -3.709  -1.209  -0.579  0.00  0.00    +0.000 S 
ENDROOT
BRANCH   1   2
ATOM      2  C   UNL     1      -5.433  -0.754  -0.718  0.00  0.00    +0.000 A 
ATOM      3  C   UNL     1      -6.337  -1.796  -0.983  0.00  0.00    +0.000 A 
ATOM      4  C   UNL     1      -7.708  -1.552  -1.112  0.00  0.00    +0.000 A 
ATOM      5  C   UNL     1      -8.193  -0.256  -0.977  0.00  0.00    +0.000 A 
ATOM      6  C   UNL     1      -7.303   0.777  -0.715  0.00  0.00    +0.000 A 
ATOM      7  C   UNL     1      -5.935   0.543  -0.585  0.00  0.00    +0.000 A 
ATOM      8  F   UNL     1      -7.767   2.027  -0.585  0.00  0.00    +0.000 F 
ENDBRANCH   1   2
BRANCH   1   9
ATOM      9  C   UNL     1      -2.873   0.370  -0.215  0.00  0.00    +0.000 C 
BRANCH   9  13
ATOM     10  C   UNL     1       1.378  -0.200   0.256  0.00  0.00    +0.000 A 
ATOM     11  C   UNL     1       0.848   0.088  -1.001  0.00  0.00    +0.000 A 
ATOM     12  C   UNL     1      -0.527   0.273  -1.154  0.00  0.00    +0.000 A 
ATOM     13  C   UNL     1      -1.386   0.178  -0.049  0.00  0.00    +0.000 A 
ATOM     14  C   UNL     1      -0.841  -0.122   1.209  0.00  0.00    +0.000 A 
ATOM     15  C   UNL     1       0.534  -0.307   1.359  0.00  0.00    +0.000 A 
ENDBRANCH   9  13
ENDBRANCH   1   9
TORSDOF 3
