REMARK  Name = *****
REMARK  4 active torsions:
REMARK  status: ('A' for Active; 'I' for Inactive)
REMARK    1  A    between atoms: C_7  and  C_8
REMARK    2  A    between atoms: C_8  and  O_10
REMARK    3  A    between atoms: O_10  and  C_11
REMARK    4  A    between atoms: C_11  and  C_12
REMARK                            x       y       z     vdW  Elec       q    Type
REMARK                         _______ _______ _______ _____ _____    ______ ____
ROOT
ATOM      1  C   UNL     1       2.857  -0.871  -0.344  0.00  0.00    +0.000 C 
ATOM      2  O   UNL     1       3.756  -0.045  -0.432  0.00  0.00    +0.000 OA
ENDROOT
BRANCH   1   9
ATOM      3  C   UNL     1      -1.232   0.341   0.657  0.00  0.00    +0.000 C 
ATOM      4  C   UNL     1      -0.931  -1.143   0.401  0.00  0.00    +0.000 C 
ATOM      5  C   UNL     1       0.313  -1.091  -0.506  0.00  0.00    +0.000 C 
ATOM      6  C   UNL     1       0.018   0.145  -1.359  0.00  0.00    +0.000 C 
ATOM      7  C   UNL     1      -0.136   1.059  -0.147  0.00  0.00    +0.000 C 
ATOM      8  C   UNL     1       1.216   0.869   0.563  0.00  0.00    +0.000 C 
ATOM      9  C   UNL     1       1.522  -0.631   0.345  0.00  0.00    +0.000 C 
ENDBRANCH   1   9
BRANCH   1  10
ATOM     10  O   UNL     1       2.937  -2.158  -0.777  0.00  0.00    +0.000 OA
BRANCH  10  11
ATOM     11  C   UNL     1       4.176  -2.541  -1.386  0.00  0.00    +0.000 C 
BRANCH  11  12
ATOM     12  C   UNL     1       5.013  -3.296  -0.386  0.00  0.00    +0.000 A 
ATOM     13  C   UNL     1       4.860  -4.680  -0.228  0.00  0.00    +0.000 A 
ATOM     14  C   UNL     1       5.627  -5.373   0.711  0.00  0.00    +0.000 A 
ATOM     15  C   UNL     1       6.544  -4.689   1.506  0.00  0.00    +0.000 A 
ATOM     16  C   UNL     1       6.693  -3.310   1.367  0.00  0.00    +0.000 A 
ATOM     17  C   UNL     1       5.929  -2.616   0.428  0.00  0.00    +0.000 A 
ENDBRANCH  11  12
ENDBRANCH  10  11
ENDBRANCH   1  10
TORSDOF 4
