REMARK  Name = *****
REMARK  3 active torsions:
REMARK  status: ('A' for Active; 'I' for Inactive)
REMARK    1  A    between atoms: C_4  and  S_7
REMARK    2  A    between atoms: S_7  and  C_8
REMARK    3  A    between atoms: C_8  and  C_10
REMARK                            x       y       z     vdW  Elec       q    Type
REMARK                         _______ _______ _______ _____ _____    ______ ____
ROOT
ATOM      1  C   UNL     1      -4.000  -1.145  -0.142  0.00  0.00    +0.000 C 
ATOM      2  O   UNL     1      -3.579  -2.212   0.282  0.00  0.00    +0.000 OA
ENDROOT
BRANCH   1   3
ATOM      3  C   UNL     1      -5.421  -0.980  -0.499  0.00  0.00    +0.000 A 
ATOM      4  C   UNL     1      -6.182   0.087  -0.001  0.00  0.00    +0.000 A 
ATOM      5  C   UNL     1      -7.533   0.197  -0.344  0.00  0.00    +0.000 A 
ATOM      6  C   UNL     1      -8.124  -0.756  -1.175  0.00  0.00    +0.000 A 
ATOM      7  C   UNL     1      -7.368  -1.821  -1.665  0.00  0.00    +0.000 A 
ATOM      8  C   UNL     1      -6.022  -1.931  -1.321  0.00  0.00    +0.000 A 
ATOM      9  F   UNL     1      -5.316  -2.951  -1.828  0.00  0.00    +0.000 F 
ENDBRANCH   1   3
BRANCH   1  10
ATOM     10  S   UNL     1      -2.980   0.265  -0.415  0.00  0.00    +0.000 S 
BRANCH  10  14
ATOM     11  C   UNL     1       0.325  -0.163   2.732  0.00  0.00    +0.000 A 
ATOM     12  C   UNL     1       0.197  -1.126   1.733  0.00  0.00    +0.000 A 
ATOM     13  C   UNL     1      -0.812  -1.009   0.774  0.00  0.00    +0.000 A 
ATOM     14  C   UNL     1      -1.708   0.063   0.815  0.00  0.00    +0.000 A 
ATOM     15  C   UNL     1      -1.565   1.033   1.815  0.00  0.00    +0.000 A 
ATOM     16  C   UNL     1      -0.554   0.918   2.772  0.00  0.00    +0.000 A 
ENDBRANCH  10  14
ENDBRANCH   1  10
TORSDOF 3
