REMARK  Name = *****
REMARK  5 active torsions:
REMARK  status: ('A' for Active; 'I' for Inactive)
REMARK    1  A    between atoms: C_1  and  C_2
REMARK    2  A    between atoms: C_4  and  C_8
REMARK    3  A    between atoms: C_8  and  C_9
REMARK    4  A    between atoms: C_8  and  C_10
REMARK    5  A    between atoms: C_10  and  C_12
REMARK                            x       y       z     vdW  Elec       q    Type
REMARK                         _______ _______ _______ _____ _____    ______ ____
ROOT
ATOM      1  C   UNL     1      -1.720   2.530  -0.025  0.00  0.00    +0.000 C 
ATOM      2  C   UNL     1      -2.309   2.742   1.374  0.00  0.00    +0.000 C 
ENDROOT
BRANCH   1   6
ATOM      3  C   UNL     1      -1.523  -2.473   0.896  0.00  0.00    +0.000 C 
ATOM      4  C   UNL     1      -1.219  -1.298   0.013  0.00  0.00    +0.000 A 
ATOM      5  C   UNL     1      -1.588  -0.002   0.406  0.00  0.00    +0.000 A 
ATOM      6  C   UNL     1      -1.334   1.109  -0.416  0.00  0.00    +0.000 A 
ATOM      7  C   UNL     1      -0.743   0.882  -1.671  0.00  0.00    +0.000 A 
ATOM      8  C   UNL     1      -0.388  -0.405  -2.075  0.00  0.00    +0.000 A 
ATOM      9  C   UNL     1      -0.625  -1.491  -1.237  0.00  0.00    +0.000 A 
ENDBRANCH   1   6
BRANCH   1  10
ATOM     10  C   UNL     1      -0.626   3.570  -0.290  0.00  0.00    +0.000 C 
ATOM     11  O   UNL     1      -0.828   4.473  -1.107  0.00  0.00    +0.000 OA
BRANCH  10  12
ATOM     12  C   UNL     1       0.690   3.548   0.434  0.00  0.00    +0.000 A 
ATOM     13  C   UNL     1       1.095   2.515   1.285  0.00  0.00    +0.000 A 
ATOM     14  C   UNL     1       2.340   2.567   1.921  0.00  0.00    +0.000 A 
ATOM     15  C   UNL     1       3.192   3.649   1.713  0.00  0.00    +0.000 A 
ATOM     16  C   UNL     1       2.803   4.682   0.866  0.00  0.00    +0.000 A 
ATOM     17  C   UNL     1       1.561   4.632   0.230  0.00  0.00    +0.000 A 
ENDBRANCH  10  12
ENDBRANCH   1  10
TORSDOF 3
