REMARK  Name = *****
REMARK  7 active torsions:
REMARK  status: ('A' for Active; 'I' for Inactive)
REMARK    1  A    between atoms: C_1  and  C_2
REMARK    2  A    between atoms: C_3  and  C_17
REMARK    3  A    between atoms: C_4  and  C_16
REMARK    4  A    between atoms: C_5  and  C_15
REMARK    5  A    between atoms: C_6  and  C_7
REMARK    6  A    between atoms: C_7  and  C_8
REMARK    7  A    between atoms: C_8  and  C_9
REMARK                            x       y       z     vdW  Elec       q    Type
REMARK                         _______ _______ _______ _____ _____    ______ ____
ROOT
ATOM      1  C   UNL     1      -2.617  -1.016   0.009  0.00  0.00    +0.000 C 
ATOM      2  C   UNL     1      -1.214  -0.517  -0.010  0.00  0.00    +0.000 C 
ATOM      3  C   UNL     1      -0.756   0.751  -0.001  0.00  0.00    +0.000 C 
ATOM      4  C   UNL     1       0.704   0.735   0.034  0.00  0.00    +0.000 C 
ATOM      5  C   UNL     1       1.136  -0.540   0.046  0.00  0.00    +0.000 C 
ATOM      6  C   UNL     1      -0.048  -1.485  -0.003  0.00  0.00    +0.000 C 
ATOM      7  C   UNL     1       2.526  -1.067   0.132  0.00  0.00    +0.000 C 
ATOM      8  C   UNL     1       1.506   1.991   0.070  0.00  0.00    +0.000 C 
ATOM      9  C   UNL     1      -1.533   2.023  -0.003  0.00  0.00    +0.000 C 
ENDROOT
BRANCH   6  10
ATOM     10  C   UNL     1      -0.028  -2.459  -1.195  0.00  0.00    +0.000 C 
BRANCH  10  11
ATOM     11  C   UNL     1       0.004  -1.791  -2.576  0.00  0.00    +0.000 C 
BRANCH  11  12
ATOM     12  C   UNL     1       0.042  -2.820  -3.681  0.00  0.00    +0.000 A 
ATOM     13  C   UNL     1      -1.147  -3.357  -4.192  0.00  0.00    +0.000 A 
ATOM     14  C   UNL     1      -1.110  -4.322  -5.200  0.00  0.00    +0.000 A 
ATOM     15  C   UNL     1       0.114  -4.760  -5.703  0.00  0.00    +0.000 A 
ATOM     16  C   UNL     1       1.302  -4.236  -5.197  0.00  0.00    +0.000 A 
ATOM     17  C   UNL     1       1.267  -3.272  -4.189  0.00  0.00    +0.000 A 
ENDBRANCH  11  12
ENDBRANCH  10  11
ENDBRANCH   6  10
TORSDOF 3
