REMARK  Name = *****
REMARK  2 active torsions:
REMARK  status: ('A' for Active; 'I' for Inactive)
REMARK    1  A    between atoms: C_1  and  N_2
REMARK    2  A    between atoms: C_3  and  C_11
REMARK                            x       y       z     vdW  Elec       q    Type
REMARK                         _______ _______ _______ _____ _____    ______ ____
ROOT
ATOM      1  C   UNL     1      -1.488  -2.470  -0.576  0.00  0.00    +0.000 C 
ATOM      2  N   UNL     1      -1.163  -1.096  -0.210  0.00  0.00    +0.000 N 
ATOM      3  C   UNL     1      -2.084  -0.173   0.022  0.00  0.00    +0.000 C 
ATOM      4  S   UNL     1      -1.371   1.343   0.373  0.00  0.00    +0.000 S 
ATOM      5  C   UNL     1       0.220   0.697   0.247  0.00  0.00    +0.000 A 
ATOM      6  C   UNL     1       1.449   1.350   0.422  0.00  0.00    +0.000 A 
ATOM      7  C   UNL     1       2.619   0.600   0.275  0.00  0.00    +0.000 A 
ATOM      8  C   UNL     1       2.566  -0.756  -0.035  0.00  0.00    +0.000 A 
ATOM      9  C   UNL     1       1.336  -1.402  -0.211  0.00  0.00    +0.000 A 
ATOM     10  C   UNL     1       0.148  -0.658  -0.072  0.00  0.00    +0.000 A 
ENDROOT
BRANCH   3  11
ATOM     11  C   UNL     1      -3.532  -0.339   0.022  0.00  0.00    +0.000 A 
ATOM     12  C   UNL     1      -4.154  -1.097   1.024  0.00  0.00    +0.000 A 
ATOM     13  C   UNL     1      -5.539  -1.270   1.011  0.00  0.00    +0.000 A 
ATOM     14  C   UNL     1      -6.316  -0.693   0.011  0.00  0.00    +0.000 A 
ATOM     15  C   UNL     1      -5.706   0.069  -0.985  0.00  0.00    +0.000 A 
ATOM     16  C   UNL     1      -4.320   0.246  -0.982  0.00  0.00    +0.000 A 
ATOM     17 CL   UNL     1      -6.283  -2.215   2.239  0.00  0.00    +0.000 Cl
ENDBRANCH   3  11
TORSDOF 1
