REMARK  Name = *****
REMARK  5 active torsions:
REMARK  status: ('A' for Active; 'I' for Inactive)
REMARK    1  A    between atoms: C_1  and  C_2
REMARK    2  A    between atoms: C_3  and  N_9
REMARK    3  A    between atoms: C_4  and  C_8
REMARK    4  A    between atoms: N_9  and  N_18
REMARK    5  A    between atoms: C_10  and  C_12
REMARK                            x       y       z     vdW  Elec       q    Type
REMARK                         _______ _______ _______ _____ _____    ______ ____
ROOT
ATOM      1  N   UNL     1      -0.422   2.343  -0.133  0.00  0.00    +0.000 N 
ATOM      2  C   UNL     1       0.182   3.220  -1.050  0.00  0.00    +0.000 C 
ATOM      3  O   UNL     1       0.941   2.879  -1.960  0.00  0.00    +0.000 OA
ENDROOT
BRANCH   1   6
ATOM      4  C   UNL     1       2.280   1.505   0.627  0.00  0.00    +0.000 C 
ATOM      5  C   UNL     1       1.215   0.536   0.184  0.00  0.00    +0.000 A 
ATOM      6  C   UNL     1      -0.093   0.949  -0.178  0.00  0.00    +0.000 A 
ATOM      7  C   UNL     1      -1.043  -0.022  -0.586  0.00  0.00    +0.000 A 
ATOM      8  C   UNL     1      -0.681  -1.380  -0.590  0.00  0.00    +0.000 A 
ATOM      9  C   UNL     1       0.605  -1.778  -0.242  0.00  0.00    +0.000 A 
ATOM     10  C   UNL     1       1.549  -0.827   0.131  0.00  0.00    +0.000 A 
ATOM     11  C   UNL     1      -2.435   0.329  -1.042  0.00  0.00    +0.000 C 
ENDBRANCH   1   6
BRANCH   2  12
ATOM     12  C   UNL     1      -0.100   4.677  -0.945  0.00  0.00    +0.000 A 
ATOM     13  C   UNL     1       0.058   5.367   0.263  0.00  0.00    +0.000 A 
ATOM     14  C   UNL     1      -0.185   6.741   0.314  0.00  0.00    +0.000 A 
ATOM     15  C   UNL     1      -0.566   7.426  -0.841  0.00  0.00    +0.000 A 
ATOM     16  C   UNL     1      -0.695   6.745  -2.051  0.00  0.00    +0.000 A 
ATOM     17  C   UNL     1      -0.456   5.372  -2.107  0.00  0.00    +0.000 A 
ENDBRANCH   2  12
BRANCH   1  18
ATOM     18  N   UNL     1      -1.530   2.792   0.606  0.00  0.00    +0.000 NA
ATOM     19  O   UNL     1      -1.828   2.069   1.563  0.00  0.00    +0.000 OA
ENDBRANCH   1  18
TORSDOF 3
