REMARK  Name = *****
REMARK  5 active torsions:
REMARK  status: ('A' for Active; 'I' for Inactive)
REMARK    1  A    between atoms: C_1  and  C_2
REMARK    2  A    between atoms: C_2  and  C_3
REMARK    3  A    between atoms: C_2  and  O_9
REMARK    4  A    between atoms: O_9  and  C_10
REMARK    5  A    between atoms: C_10  and  C_12
REMARK                            x       y       z     vdW  Elec       q    Type
REMARK                         _______ _______ _______ _____ _____    ______ ____
ROOT
ATOM      1  O   UNL     1       3.122  -1.245   0.003  0.00  0.00    +0.000 OA
ENDROOT
BRANCH   1   3
ATOM      2  C   UNL     1       1.022  -0.033  -0.185  0.00  0.00    +0.000 C 
ATOM      3  C   UNL     1       2.544   0.072  -0.074  0.00  0.00    +0.000 C 
BRANCH   3   4
ATOM      4  C   UNL     1       2.965   0.841   1.170  0.00  0.00    +0.000 C 
ATOM      5  C   UNL     1       3.609   2.022   1.095  0.00  0.00    +0.000 C 
ATOM      6  C   UNL     1       4.050   2.799   2.305  0.00  0.00    +0.000 C 
ATOM      7  C   UNL     1       3.422   2.342   3.631  0.00  0.00    +0.000 C 
ATOM      8  C   UNL     1       2.889   0.939   3.614  0.00  0.00    +0.000 C 
ATOM      9  C   UNL     1       2.692   0.259   2.475  0.00  0.00    +0.000 C 
ENDBRANCH   3   4
ENDBRANCH   1   3
BRANCH   1  10
ATOM     10  C   UNL     1       3.317  -1.878  -1.178  0.00  0.00    +0.000 C 
ATOM     11  O   UNL     1       3.024  -1.447  -2.282  0.00  0.00    +0.000 OA
BRANCH  10  12
ATOM     12  C   UNL     1       3.942  -3.210  -0.955  0.00  0.00    +0.000 A 
ATOM     13  C   UNL     1       4.129  -4.048  -2.064  0.00  0.00    +0.000 A 
ATOM     14  C   UNL     1       4.712  -5.306  -1.906  0.00  0.00    +0.000 A 
ATOM     15  C   UNL     1       5.114  -5.735  -0.642  0.00  0.00    +0.000 A 
ATOM     16  C   UNL     1       4.935  -4.907   0.466  0.00  0.00    +0.000 A 
ATOM     17  C   UNL     1       4.351  -3.647   0.313  0.00  0.00    +0.000 A 
ENDBRANCH  10  12
ENDBRANCH   1  10
TORSDOF 4
