REMARK  Name = *****
REMARK  4 active torsions:
REMARK  status: ('A' for Active; 'I' for Inactive)
REMARK    1  A    between atoms: C_2  and  C_3
REMARK    2  A    between atoms: C_2  and  O_9
REMARK    3  A    between atoms: O_9  and  C_10
REMARK    4  A    between atoms: C_10  and  C_12
REMARK                            x       y       z     vdW  Elec       q    Type
REMARK                         _______ _______ _______ _____ _____    ______ ____
ROOT
ATOM      1  O   UNL     1       3.172   1.275  -0.357  0.00  0.00    +0.000 OA
ENDROOT
BRANCH   1   3
ATOM      2  C   UNL     1       1.791  -0.591  -0.951  0.00  0.00    +0.000 C 
ATOM      3  C   UNL     1       2.366   0.178  -0.015  0.00  0.00    +0.000 C 
BRANCH   3   4
ATOM      4  C   UNL     1       2.101   0.024   1.426  0.00  0.00    +0.000 A 
ATOM      5  C   UNL     1       2.145  -1.237   2.040  0.00  0.00    +0.000 A 
ATOM      6  C   UNL     1       1.907  -1.371   3.410  0.00  0.00    +0.000 A 
ATOM      7  C   UNL     1       1.627  -0.246   4.183  0.00  0.00    +0.000 A 
ATOM      8  C   UNL     1       1.589   1.013   3.589  0.00  0.00    +0.000 A 
ATOM      9  C   UNL     1       1.829   1.148   2.219  0.00  0.00    +0.000 A 
ENDBRANCH   3   4
ENDBRANCH   1   3
BRANCH   1  10
ATOM     10  C   UNL     1       4.428   0.939  -0.783  0.00  0.00    +0.000 C 
ATOM     11  O   UNL     1       4.892  -0.187  -0.902  0.00  0.00    +0.000 OA
BRANCH  10  12
ATOM     12  C   UNL     1       5.182   2.181  -1.109  0.00  0.00    +0.000 C 
ATOM     13  C   UNL     1       6.365   2.051  -1.735  0.00  0.00    +0.000 C 
ATOM     14  C   UNL     1       7.149   3.203  -2.109  0.00  0.00    +0.000 C 
ATOM     15  C   UNL     1       6.827   4.431  -1.683  0.00  0.00    +0.000 C 
ATOM     16  C   UNL     1       5.630   4.691  -0.814  0.00  0.00    +0.000 C 
ATOM     17  C   UNL     1       4.620   3.529  -0.741  0.00  0.00    +0.000 C 
ENDBRANCH  10  12
ENDBRANCH   1  10
TORSDOF 4
