REMARK  Name = *****
REMARK  4 active torsions:
REMARK  status: ('A' for Active; 'I' for Inactive)
REMARK    1  A    between atoms: C_1  and  C_2
REMARK    2  A    between atoms: C_3  and  C_16
REMARK    3  A    between atoms: C_4  and  C_8
REMARK    4  A    between atoms: C_9  and  C_10
REMARK                            x       y       z     vdW  Elec       q    Type
REMARK                         _______ _______ _______ _____ _____    ______ ____
ROOT
ATOM      1  C   UNL     1       0.947   0.013   0.170  0.00  0.00    +0.000 C 
ATOM      2  C   UNL     1       2.449  -0.086   0.118  0.00  0.00    +0.000 A 
ATOM      3  C   UNL     1       3.113  -1.323  -0.060  0.00  0.00    +0.000 A 
ATOM      4  C   UNL     1       4.525  -1.343  -0.066  0.00  0.00    +0.000 A 
ATOM      5  C   UNL     1       5.253  -0.154   0.060  0.00  0.00    +0.000 A 
ATOM      6  C   UNL     1       4.594   1.062   0.206  0.00  0.00    +0.000 A 
ATOM      7  C   UNL     1       3.202   1.094   0.237  0.00  0.00    +0.000 A 
ATOM      8  C   UNL     1       2.340  -2.614  -0.179  0.00  0.00    +0.000 C 
ENDROOT
BRANCH   4   9
ATOM      9  C   UNL     1       5.261  -2.568  -0.194  0.00  0.00    +0.000 C 
ATOM     10  C   UNL     1       5.879  -3.593  -0.299  0.00  0.00    +0.000 C 
BRANCH  10  11
ATOM     11  C   UNL     1       6.608  -4.817  -0.425  0.00  0.00    +0.000 A 
ATOM     12  C   UNL     1       7.909  -4.808  -0.934  0.00  0.00    +0.000 A 
ATOM     13  C   UNL     1       8.620  -6.003  -1.057  0.00  0.00    +0.000 A 
ATOM     14  C   UNL     1       8.031  -7.208  -0.670  0.00  0.00    +0.000 A 
ATOM     15  C   UNL     1       6.733  -7.219  -0.161  0.00  0.00    +0.000 A 
ATOM     16  C   UNL     1       6.021  -6.024  -0.038  0.00  0.00    +0.000 A 
ENDBRANCH  10  11
ENDBRANCH   4   9
TORSDOF 2
