REMARK  Name = *****
REMARK  2 active torsions:
REMARK  status: ('A' for Active; 'I' for Inactive)
REMARK    1  A    between atoms: C_7  and  C_8
REMARK    2  A    between atoms: C_9  and  C_10
REMARK                            x       y       z     vdW  Elec       q    Type
REMARK                         _______ _______ _______ _____ _____    ______ ____
ROOT
ATOM      1  C   UNL     1       2.540   1.234   0.101  0.00  0.00    +0.000 C 
ATOM      2  C   UNL     1       3.396   2.019  -0.574  0.00  0.00    +0.000 C 
ENDROOT
BRANCH   1   9
ATOM      3  C   UNL     1      -1.301  -0.714  -0.562  0.00  0.00    +0.000 C 
ATOM      4  C   UNL     1      -1.239   0.820  -0.538  0.00  0.00    +0.000 C 
ATOM      5  C   UNL     1       0.009   1.102   0.320  0.00  0.00    +0.000 C 
ATOM      6  C   UNL     1      -0.094  -0.012   1.366  0.00  0.00    +0.000 C 
ATOM      7  C   UNL     1      -0.107  -1.122   0.318  0.00  0.00    +0.000 C 
ATOM      8  C   UNL     1       1.202  -0.847  -0.448  0.00  0.00    +0.000 C 
ATOM      9  C   UNL     1       1.264   0.697  -0.496  0.00  0.00    +0.000 C 
ENDBRANCH   1   9
BRANCH   2  10
ATOM     10  C   UNL     1       4.640   2.563  -0.011  0.00  0.00    +0.000 A 
ATOM     11  C   UNL     1       5.450   1.829   0.866  0.00  0.00    +0.000 A 
ATOM     12  C   UNL     1       6.642   2.371   1.355  0.00  0.00    +0.000 A 
ATOM     13  C   UNL     1       7.042   3.646   0.964  0.00  0.00    +0.000 A 
ATOM     14  C   UNL     1       6.255   4.379   0.079  0.00  0.00    +0.000 A 
ATOM     15  C   UNL     1       5.063   3.838  -0.410  0.00  0.00    +0.000 A 
ENDBRANCH   2  10
TORSDOF 2
