REMARK  Name = *****
REMARK  5 active torsions:
REMARK  status: ('A' for Active; 'I' for Inactive)
REMARK    1  A    between atoms: C_1  and  C_2
REMARK    2  A    between atoms: C_4  and  C_9
REMARK    3  A    between atoms: C_9  and  O_11
REMARK    4  A    between atoms: O_11  and  C_12
REMARK    5  A    between atoms: C_12  and  C_13
REMARK                            x       y       z     vdW  Elec       q    Type
REMARK                         _______ _______ _______ _____ _____    ______ ____
ROOT
ATOM      1  C   UNL     1       0.316  -3.433  -0.104  0.00  0.00    +0.000 C 
ATOM      2  O   UNL     1      -0.681  -4.122  -0.248  0.00  0.00    +0.000 OA
ENDROOT
BRANCH   1   6
ATOM      3  C   UNL     1       2.637   1.060  -0.071  0.00  0.00    +0.000 C 
ATOM      4  C   UNL     1       1.386   0.234  -0.118  0.00  0.00    +0.000 A 
ATOM      5  C   UNL     1       1.457  -1.168  -0.098  0.00  0.00    +0.000 A 
ATOM      6  C   UNL     1       0.286  -1.946  -0.111  0.00  0.00    +0.000 A 
ATOM      7  C   UNL     1      -0.961  -1.314  -0.139  0.00  0.00    +0.000 A 
ATOM      8  C   UNL     1      -1.025   0.073  -0.142  0.00  0.00    +0.000 A 
ATOM      9  C   UNL     1       0.129   0.849  -0.125  0.00  0.00    +0.000 A 
ATOM     10  F   UNL     1      -2.221   0.676  -0.157  0.00  0.00    +0.000 F 
ENDBRANCH   1   6
BRANCH   1  11
ATOM     11  O   UNL     1       1.579  -3.878   0.094  0.00  0.00    +0.000 OA
BRANCH  11  12
ATOM     12  C   UNL     1       1.751  -5.301   0.071  0.00  0.00    +0.000 C 
BRANCH  12  13
ATOM     13  C   UNL     1       2.309  -5.705  -1.268  0.00  0.00    +0.000 A 
ATOM     14  C   UNL     1       3.692  -5.692  -1.499  0.00  0.00    +0.000 A 
ATOM     15  C   UNL     1       4.204  -6.046  -2.749  0.00  0.00    +0.000 A 
ATOM     16  C   UNL     1       3.339  -6.406  -3.780  0.00  0.00    +0.000 A 
ATOM     17  C   UNL     1       1.962  -6.410  -3.566  0.00  0.00    +0.000 A 
ATOM     18  C   UNL     1       1.448  -6.057  -2.317  0.00  0.00    +0.000 A 
ENDBRANCH  12  13
ENDBRANCH  11  12
ENDBRANCH   1  11
TORSDOF 4
