REMARK  Name = *****
REMARK  3 active torsions:
REMARK  status: ('A' for Active; 'I' for Inactive)
REMARK    1  A    between atoms: C_4  and  C_6
REMARK    2  A    between atoms: C_7  and  C_8
REMARK    3  A    between atoms: C_7  and  C_10
REMARK                            x       y       z     vdW  Elec       q    Type
REMARK                         _______ _______ _______ _____ _____    ______ ____
ROOT
ATOM      1  C   UNL     1       0.123  -2.723  -0.076  0.00  0.00    +0.000 C 
ATOM      2  C   UNL     1       1.076  -3.667   0.064  0.00  0.00    +0.000 C 
ENDROOT
BRANCH   2   3
ATOM      3  C   UNL     1       0.649  -5.083   0.060  0.00  0.00    +0.000 A 
ATOM      4  C   UNL     1       0.083  -5.657  -1.090  0.00  0.00    +0.000 A 
ATOM      5  C   UNL     1      -0.318  -6.996  -1.090  0.00  0.00    +0.000 A 
ATOM      6  C   UNL     1      -0.154  -7.768   0.057  0.00  0.00    +0.000 A 
ATOM      7  C   UNL     1       0.409  -7.215   1.205  0.00  0.00    +0.000 A 
ATOM      8  C   UNL     1       0.811  -5.876   1.207  0.00  0.00    +0.000 A 
ATOM      9 CL   UNL     1      -0.648  -9.416   0.057  0.00  0.00    +0.000 Cl
ENDBRANCH   2   3
BRANCH   1  13
ATOM     10  C   UNL     1       1.197   0.859  -0.354  0.00  0.00    +0.000 A 
ATOM     11  C   UNL     1      -0.010   1.128   0.245  0.00  0.00    +0.000 A 
ATOM     12  S   UNL     1      -0.899  -0.294   0.558  0.00  0.00    +0.000 S 
ATOM     13  C   UNL     1       0.344  -1.312  -0.081  0.00  0.00    +0.000 A 
ATOM     14  C   UNL     1       1.395  -0.540  -0.550  0.00  0.00    +0.000 A 
ENDBRANCH   1  13
BRANCH   2  15
ATOM     15  C   UNL     1       2.461  -3.385   0.275  0.00  0.00    +0.000 C 
ATOM     16  N   UNL     1       3.589  -3.171   0.442  0.00  0.00    +0.000 NA
ENDBRANCH   2  15
TORSDOF 3
