REMARK  Name = *****
REMARK  3 active torsions:
REMARK  status: ('A' for Active; 'I' for Inactive)
REMARK    1  A    between atoms: C_4  and  C_7
REMARK    2  A    between atoms: C_7  and  C_8
REMARK    3  A    between atoms: N_9  and  C_10
REMARK                            x       y       z     vdW  Elec       q    Type
REMARK                         _______ _______ _______ _____ _____    ______ ____
ROOT
ATOM      1  C   UNL     1      -3.153  -1.717  -0.217  0.00  0.00    +0.000 C 
ATOM      2  N   UNL     1      -3.095  -2.371   0.901  0.00  0.00    +0.000 NA
ATOM      3 CL   UNL     1      -3.462  -2.662  -1.629  0.00  0.00    +0.000 Cl
ENDROOT
BRANCH   2   4
ATOM      4  C   UNL     1      -2.847  -1.681   2.091  0.00  0.00    +0.000 A 
ATOM      5  C   UNL     1      -3.903  -1.150   2.837  0.00  0.00    +0.000 A 
ATOM      6  C   UNL     1      -3.654  -0.478   4.036  0.00  0.00    +0.000 A 
ATOM      7  C   UNL     1      -2.347  -0.350   4.504  0.00  0.00    +0.000 A 
ATOM      8  C   UNL     1      -1.291  -0.902   3.780  0.00  0.00    +0.000 A 
ATOM      9  C   UNL     1      -1.544  -1.574   2.582  0.00  0.00    +0.000 A 
ENDBRANCH   2   4
BRANCH   1  10
ATOM     10  C   UNL     1      -2.998  -0.230  -0.454  0.00  0.00    +0.000 C 
BRANCH  10  14
ATOM     11  C   UNL     1       1.098   1.136  -0.535  0.00  0.00    +0.000 A 
ATOM     12  C   UNL     1       0.647   0.235  -1.497  0.00  0.00    +0.000 A 
ATOM     13  C   UNL     1      -0.677  -0.209  -1.476  0.00  0.00    +0.000 A 
ATOM     14  C   UNL     1      -1.562   0.240  -0.485  0.00  0.00    +0.000 A 
ATOM     15  C   UNL     1      -1.098   1.156   0.470  0.00  0.00    +0.000 A 
ATOM     16  C   UNL     1       0.226   1.598   0.447  0.00  0.00    +0.000 A 
ENDBRANCH  10  14
ENDBRANCH   1  10
TORSDOF 3
