REMARK  Name = *****
REMARK  5 active torsions:
REMARK  status: ('A' for Active; 'I' for Inactive)
REMARK    1  A    between atoms: C_1  and  C_2
REMARK    2  A    between atoms: C_2  and  C_3
REMARK    3  A    between atoms: C_2  and  N_9
REMARK    4  A    between atoms: N_9  and  C_10
REMARK    5  A    between atoms: C_10  and  C_11
REMARK                            x       y       z     vdW  Elec       q    Type
REMARK                         _______ _______ _______ _____ _____    ______ ____
ROOT
ATOM      1  C   UNL     1       0.784  -0.701  -0.381  0.00  0.00    +0.000 C 
ATOM      2  C   UNL     1       2.200  -0.253  -0.016  0.00  0.00    +0.000 C 
ENDROOT
BRANCH   2   3
ATOM      3  C   UNL     1       2.210   1.222   0.348  0.00  0.00    +0.000 A 
ATOM      4  C   UNL     1       1.767   1.659   1.607  0.00  0.00    +0.000 A 
ATOM      5  C   UNL     1       1.767   3.017   1.929  0.00  0.00    +0.000 A 
ATOM      6  C   UNL     1       2.205   3.955   0.996  0.00  0.00    +0.000 A 
ATOM      7  C   UNL     1       2.642   3.535  -0.259  0.00  0.00    +0.000 A 
ATOM      8  C   UNL     1       2.643   2.177  -0.583  0.00  0.00    +0.000 A 
ENDBRANCH   2   3
BRANCH   2   9
ATOM      9  N   UNL     1       2.670  -1.118   1.083  0.00  0.00    +0.000 NA
BRANCH   9  10
ATOM     10  C   UNL     1       3.950  -1.128   1.228  0.00  0.00    +0.000 C 
BRANCH  10  11
ATOM     11  C   UNL     1       4.589  -1.962   2.313  0.00  0.00    +0.000 C 
ATOM     12  C   UNL     1       5.483  -1.071   3.180  0.00  0.00    +0.000 C 
ATOM     13  C   UNL     1       6.242  -1.885   4.224  0.00  0.00    +0.000 C 
ATOM     14  C   UNL     1       7.033  -3.023   3.586  0.00  0.00    +0.000 C 
ATOM     15  C   UNL     1       6.145  -3.911   2.720  0.00  0.00    +0.000 C 
ATOM     16  C   UNL     1       5.389  -3.098   1.672  0.00  0.00    +0.000 C 
ENDBRANCH  10  11
ENDBRANCH   9  10
ENDBRANCH   2   9
TORSDOF 4
