REMARK  Name = *****
REMARK  4 active torsions:
REMARK  status: ('A' for Active; 'I' for Inactive)
REMARK    1  A    between atoms: C_4  and  C_7
REMARK    2  A    between atoms: C_7  and  N_9
REMARK    3  A    between atoms: N_9  and  C_10
REMARK    4  A    between atoms: C_10  and  C_11
REMARK                            x       y       z     vdW  Elec       q    Type
REMARK                         _______ _______ _______ _____ _____    ______ ____
ROOT
ATOM      1  N   UNL     1       3.604  -1.551  -0.022  0.00  0.00    +0.000 N 
ATOM      2  H   UNL     1       3.211  -2.045   0.733  0.00  0.00    +0.000 HD
ENDROOT
BRANCH   1   3
ATOM      3  C   UNL     1       2.837  -0.555  -0.587  0.00  0.00    +0.000 C 
ATOM      4  S   UNL     1       3.319   0.410  -1.872  0.00  0.00    +0.000 S 
BRANCH   3   8
ATOM      5  C   UNL     1      -0.689  -1.012   1.978  0.00  0.00    +0.000 C 
ATOM      6  C   UNL     1       0.182   0.229   2.154  0.00  0.00    +0.000 C 
ATOM      7  C   UNL     1       1.560   0.043   1.523  0.00  0.00    +0.000 C 
ATOM      8  C   UNL     1       1.450  -0.357   0.043  0.00  0.00    +0.000 C 
ATOM      9  C   UNL     1       0.579  -1.612  -0.122  0.00  0.00    +0.000 C 
ATOM     10  C   UNL     1      -0.797  -1.422   0.512  0.00  0.00    +0.000 C 
ENDBRANCH   3   8
ENDBRANCH   1   3
BRANCH   1  11
ATOM     11  C   UNL     1       4.942  -1.939  -0.441  0.00  0.00    +0.000 C 
BRANCH  11  12
ATOM     12  C   UNL     1       5.479  -3.028   0.450  0.00  0.00    +0.000 A 
ATOM     13  C   UNL     1       5.260  -4.378   0.135  0.00  0.00    +0.000 A 
ATOM     14  C   UNL     1       5.729  -5.386   0.979  0.00  0.00    +0.000 A 
ATOM     15  C   UNL     1       6.412  -5.050   2.147  0.00  0.00    +0.000 A 
ATOM     16  C   UNL     1       6.626  -3.715   2.479  0.00  0.00    +0.000 A 
ATOM     17  C   UNL     1       6.157  -2.706   1.635  0.00  0.00    +0.000 A 
ATOM     18 CL   UNL     1       6.987  -6.293   3.188  0.00  0.00    +0.000 Cl
ENDBRANCH  11  12
ENDBRANCH   1  11
TORSDOF 4
