REMARK  Name = *****
REMARK  3 active torsions:
REMARK  status: ('A' for Active; 'I' for Inactive)
REMARK    1  A    between atoms: C_1  and  C_2
REMARK    2  A    between atoms: C_7  and  C_8
REMARK    3  A    between atoms: C_9  and  C_10
REMARK                            x       y       z     vdW  Elec       q    Type
REMARK                         _______ _______ _______ _____ _____    ______ ____
ROOT
ATOM      1  C   UNL     1       1.075  -2.408   0.209  0.00  0.00    +0.000 C 
ATOM      2  C   UNL     1       2.364  -2.628  -0.094  0.00  0.00    +0.000 C 
ENDROOT
BRANCH   1   9
ATOM      3  C   UNL     1      -1.412  -1.938  -1.335  0.00  0.00    +0.000 C 
ATOM      4  C   UNL     1      -0.730  -0.842  -0.561  0.00  0.00    +0.000 A 
ATOM      5  C   UNL     1      -1.299   0.442  -0.551  0.00  0.00    +0.000 A 
ATOM      6  C   UNL     1      -0.701   1.485   0.156  0.00  0.00    +0.000 A 
ATOM      7  C   UNL     1       0.472   1.257   0.869  0.00  0.00    +0.000 A 
ATOM      8  C   UNL     1       1.046  -0.015   0.874  0.00  0.00    +0.000 A 
ATOM      9  C   UNL     1       0.461  -1.072   0.158  0.00  0.00    +0.000 A 
ENDBRANCH   1   9
BRANCH   2  10
ATOM     10  C   UNL     1       2.997  -3.953  -0.052  0.00  0.00    +0.000 A 
ATOM     11  C   UNL     1       2.346  -5.105  -0.514  0.00  0.00    +0.000 A 
ATOM     12  C   UNL     1       2.991  -6.344  -0.487  0.00  0.00    +0.000 A 
ATOM     13  C   UNL     1       4.296  -6.442  -0.007  0.00  0.00    +0.000 A 
ATOM     14  C   UNL     1       4.959  -5.301   0.440  0.00  0.00    +0.000 A 
ATOM     15  C   UNL     1       4.314  -4.061   0.411  0.00  0.00    +0.000 A 
ENDBRANCH   2  10
TORSDOF 2
