REMARK  Name = *****
REMARK  6 active torsions:
REMARK  status: ('A' for Active; 'I' for Inactive)
REMARK    1  A    between atoms: C_1  and  C_2
REMARK    2  A    between atoms: C_3  and  C_20
REMARK    3  A    between atoms: C_4  and  C_8
REMARK    4  A    between atoms: C_8  and  C_9
REMARK    5  A    between atoms: C_9  and  C_10
REMARK    6  A    between atoms: C_10  and  C_12
REMARK                            x       y       z     vdW  Elec       q    Type
REMARK                         _______ _______ _______ _____ _____    ______ ____
ROOT
ATOM      1  C   UNL     1      -2.047  -3.482  -0.070  0.00  0.00    +0.000 C 
ENDROOT
BRANCH   1   2
ATOM      2  C   UNL     1      -2.030  -5.002  -0.061  0.00  0.00    +0.000 C 
ATOM      3  O   UNL     1      -0.989  -5.652  -0.089  0.00  0.00    +0.000 OA
BRANCH   2   4
ATOM      4  C   UNL     1      -3.338  -5.728  -0.014  0.00  0.00    +0.000 A 
ATOM      5  C   UNL     1      -3.330  -7.132  -0.008  0.00  0.00    +0.000 A 
ATOM      6  C   UNL     1      -4.533  -7.838   0.048  0.00  0.00    +0.000 A 
ATOM      7  C   UNL     1      -5.742  -7.148   0.097  0.00  0.00    +0.000 A 
ATOM      8  C   UNL     1      -5.762  -5.757   0.088  0.00  0.00    +0.000 A 
ATOM      9  C   UNL     1      -4.562  -5.045   0.031  0.00  0.00    +0.000 A 
ATOM     10  F   UNL     1      -6.909  -7.805   0.157  0.00  0.00    +0.000 F 
ATOM     11 CL   UNL     1      -4.510  -9.559   0.057  0.00  0.00    +0.000 Cl
ENDBRANCH   2   4
ENDBRANCH   1   2
BRANCH   1  12
ATOM     12  C   UNL     1      -0.635  -2.898  -0.039  0.00  0.00    +0.000 C 
BRANCH  12  16
ATOM     13  C   UNL     1      -0.597   1.637   2.440  0.00  0.00    +0.000 C 
ATOM     14  C   UNL     1      -0.615   0.750   1.222  0.00  0.00    +0.000 A 
ATOM     15  C   UNL     1      -0.660  -0.664   1.249  0.00  0.00    +0.000 A 
ATOM     16  C   UNL     1      -0.634  -1.380   0.019  0.00  0.00    +0.000 A 
ATOM     17  C   UNL     1      -0.600  -0.678  -1.198  0.00  0.00    +0.000 A 
ATOM     18  C   UNL     1      -0.570   0.711  -1.217  0.00  0.00    +0.000 A 
ATOM     19  C   UNL     1      -0.574   1.416  -0.019  0.00  0.00    +0.000 A 
ATOM     20  C   UNL     1      -0.719  -1.445   2.539  0.00  0.00    +0.000 C 
ENDBRANCH  12  16
ENDBRANCH   1  12
TORSDOF 4
