REMARK  Name = *****
REMARK  4 active torsions:
REMARK  status: ('A' for Active; 'I' for Inactive)
REMARK    1  A    between atoms: C_4  and  S_7
REMARK    2  A    between atoms: S_7  and  C_8
REMARK    3  A    between atoms: C_8  and  C_9
REMARK    4  A    between atoms: C_11  and  C_15
REMARK                            x       y       z     vdW  Elec       q    Type
REMARK                         _______ _______ _______ _____ _____    ______ ____
ROOT
ATOM      1  C   UNL     1      -3.985  -1.019  -0.381  0.00  0.00    +0.000 C 
ENDROOT
BRANCH   1   2
ATOM      2  C   UNL     1      -5.477  -0.848  -0.538  0.00  0.00    +0.000 A 
ATOM      3  C   UNL     1      -6.034  -0.564  -1.795  0.00  0.00    +0.000 A 
ATOM      4  C   UNL     1      -7.416  -0.390  -1.939  0.00  0.00    +0.000 A 
ATOM      5  C   UNL     1      -8.249  -0.496  -0.822  0.00  0.00    +0.000 A 
ATOM      6  C   UNL     1      -7.704  -0.769   0.433  0.00  0.00    +0.000 A 
ATOM      7  C   UNL     1      -6.326  -0.941   0.575  0.00  0.00    +0.000 A 
BRANCH   4   8
ATOM      8  C   UNL     1      -7.974  -0.104  -3.228  0.00  0.00    +0.000 C 
ATOM      9  N   UNL     1      -8.426   0.122  -4.273  0.00  0.00    +0.000 NA
ENDBRANCH   4   8
ENDBRANCH   1   2
BRANCH   1  10
ATOM     10  S   UNL     1      -3.172   0.580  -0.067  0.00  0.00    +0.000 S 
BRANCH  10  14
ATOM     11  C   UNL     1       1.322  -0.309   0.369  0.00  0.00    +0.000 A 
ATOM     12  C   UNL     1       0.459  -1.365   0.088  0.00  0.00    +0.000 A 
ATOM     13  C   UNL     1      -0.914  -1.137  -0.052  0.00  0.00    +0.000 A 
ATOM     14  C   UNL     1      -1.441   0.151   0.090  0.00  0.00    +0.000 A 
ATOM     15  C   UNL     1      -0.559   1.204   0.373  0.00  0.00    +0.000 A 
ATOM     16  C   UNL     1       0.812   0.978   0.512  0.00  0.00    +0.000 A 
ENDBRANCH  10  14
ENDBRANCH   1  10
TORSDOF 4
