REMARK  Name = *****
REMARK  3 active torsions:
REMARK  status: ('A' for Active; 'I' for Inactive)
REMARK    1  A    between atoms: C_3  and  C_7
REMARK    2  A    between atoms: C_7  and  C_8
REMARK    3  A    between atoms: C_8  and  C_9
REMARK                            x       y       z     vdW  Elec       q    Type
REMARK                         _______ _______ _______ _____ _____    ______ ____
ROOT
ATOM      1  C   UNL     1      -2.857   0.353  -0.302  0.00  0.00    +0.000 C 
ENDROOT
BRANCH   1   4
ATOM      2  C   UNL     1       0.944  -0.390  -1.028  0.00  0.00    +0.000 C 
ATOM      3  C   UNL     1      -0.584  -0.573  -1.105  0.00  0.00    +0.000 C 
ATOM      4  C   UNL     1      -1.375   0.187  -0.062  0.00  0.00    +0.000 C 
ATOM      5  C   UNL     1      -0.770   0.694   1.027  0.00  0.00    +0.000 C 
ATOM      6  C   UNL     1       0.642   0.520   1.266  0.00  0.00    +0.000 C 
ATOM      7  C   UNL     1       1.454   0.029   0.321  0.00  0.00    +0.000 C 
ENDBRANCH   1   4
BRANCH   1   8
ATOM      8  C   UNL     1      -3.622  -0.975  -0.219  0.00  0.00    +0.000 C 
BRANCH   8   9
ATOM      9  C   UNL     1      -5.118  -0.794  -0.341  0.00  0.00    +0.000 C 
ATOM     10  C   UNL     1      -5.949  -1.038   0.687  0.00  0.00    +0.000 C 
ATOM     11  C   UNL     1      -7.374  -0.848   0.576  0.00  0.00    +0.000 C 
ATOM     12  C   UNL     1      -7.958  -0.621  -0.608  0.00  0.00    +0.000 C 
ATOM     13  C   UNL     1      -7.168  -0.528  -1.880  0.00  0.00    +0.000 C 
ATOM     14  C   UNL     1      -5.653  -0.330  -1.679  0.00  0.00    +0.000 C 
ENDBRANCH   8   9
ENDBRANCH   1   8
TORSDOF 3
