REMARK  Name = *****
REMARK  3 active torsions:
REMARK  status: ('A' for Active; 'I' for Inactive)
REMARK    1  A    between atoms: C_4  and  C_7
REMARK    2  A    between atoms: C_7  and  O_9
REMARK    3  A    between atoms: O_9  and  C_10
REMARK                            x       y       z     vdW  Elec       q    Type
REMARK                         _______ _______ _______ _____ _____    ______ ____
ROOT
ATOM      1  C   UNL     1      -2.714   0.142   0.486  0.00  0.00    +0.000 C 
ATOM      2  O   UNL     1      -3.375   1.144   0.258  0.00  0.00    +0.000 OA
ENDROOT
BRANCH   1   6
ATOM      3  C   UNL     1       1.405  -0.144  -0.680  0.00  0.00    +0.000 A 
ATOM      4  C   UNL     1       0.769  -1.266  -0.150  0.00  0.00    +0.000 A 
ATOM      5  C   UNL     1      -0.572  -1.196   0.235  0.00  0.00    +0.000 A 
ATOM      6  C   UNL     1      -1.284   0.003   0.092  0.00  0.00    +0.000 A 
ATOM      7  C   UNL     1      -0.638   1.125  -0.448  0.00  0.00    +0.000 A 
ATOM      8  C   UNL     1       0.702   1.051  -0.830  0.00  0.00    +0.000 A 
ENDBRANCH   1   6
BRANCH   1   9
ATOM      9  O   UNL     1      -3.122  -0.991   1.164  0.00  0.00    +0.000 OA
BRANCH   9  10
ATOM     10  C   UNL     1      -4.473  -0.944   1.503  0.00  0.00    +0.000 A 
ATOM     11  C   UNL     1      -4.836  -0.561   2.793  0.00  0.00    +0.000 A 
ATOM     12  C   UNL     1      -6.188  -0.554   3.144  0.00  0.00    +0.000 A 
ATOM     13  C   UNL     1      -7.159  -0.941   2.215  0.00  0.00    +0.000 A 
ATOM     14  C   UNL     1      -6.782  -1.342   0.931  0.00  0.00    +0.000 A 
ATOM     15  C   UNL     1      -5.437  -1.347   0.582  0.00  0.00    +0.000 A 
ATOM     16  F   UNL     1      -5.074  -1.752  -0.644  0.00  0.00    +0.000 F 
ENDBRANCH   9  10
ENDBRANCH   1   9
TORSDOF 3
