REMARK  Name = *****
REMARK  5 active torsions:
REMARK  status: ('A' for Active; 'I' for Inactive)
REMARK    1  A    between atoms: C_1  and  C_2
REMARK    2  A    between atoms: C_3  and  C_18
REMARK    3  A    between atoms: C_4  and  O_8
REMARK    4  A    between atoms: O_8  and  C_9
REMARK    5  A    between atoms: C_9  and  C_11
REMARK                            x       y       z     vdW  Elec       q    Type
REMARK                         _______ _______ _______ _____ _____    ______ ____
ROOT
ATOM      1  O   UNL     1      -1.144  -2.169  -1.279  0.00  0.00    +0.000 OA
ENDROOT
BRANCH   1   5
ATOM      2  C   UNL     1       1.911   1.225   0.678  0.00  0.00    +0.000 C 
ATOM      3  C   UNL     1       0.546   0.724   0.289  0.00  0.00    +0.000 A 
ATOM      4  C   UNL     1       0.360  -0.555  -0.278  0.00  0.00    +0.000 A 
ATOM      5  C   UNL     1      -0.946  -0.946  -0.621  0.00  0.00    +0.000 A 
ATOM      6  C   UNL     1      -2.046  -0.111  -0.417  0.00  0.00    +0.000 A 
ATOM      7  C   UNL     1      -1.856   1.135   0.170  0.00  0.00    +0.000 A 
ATOM      8  C   UNL     1      -0.570   1.548   0.521  0.00  0.00    +0.000 A 
ATOM      9  C   UNL     1       1.531  -1.455  -0.564  0.00  0.00    +0.000 C 
ENDBRANCH   1   5
BRANCH   1  10
ATOM     10  C   UNL     1      -1.778  -3.135  -0.520  0.00  0.00    +0.000 C 
ATOM     11  O   UNL     1      -2.174  -3.034   0.631  0.00  0.00    +0.000 OA
BRANCH  10  12
ATOM     12  C   UNL     1      -1.928  -4.383  -1.322  0.00  0.00    +0.000 A 
ATOM     13  C   UNL     1      -1.433  -4.507  -2.631  0.00  0.00    +0.000 A 
ATOM     14  C   UNL     1      -1.602  -5.704  -3.333  0.00  0.00    +0.000 A 
ATOM     15  C   UNL     1      -2.262  -6.770  -2.730  0.00  0.00    +0.000 A 
ATOM     16  C   UNL     1      -2.757  -6.664  -1.435  0.00  0.00    +0.000 A 
ATOM     17  C   UNL     1      -2.590  -5.470  -0.730  0.00  0.00    +0.000 A 
ATOM     18  F   UNL     1      -2.421  -7.914  -3.406  0.00  0.00    +0.000 F 
ENDBRANCH  10  12
ENDBRANCH   1  10
TORSDOF 3
