REMARK  Name = *****
REMARK  2 active torsions:
REMARK  status: ('A' for Active; 'I' for Inactive)
REMARK    1  A    between atoms: C_4  and  N_7
REMARK    2  A    between atoms: C_8  and  C_10
REMARK                            x       y       z     vdW  Elec       q    Type
REMARK                         _______ _______ _______ _____ _____    ______ ____
ROOT
ATOM      1  N   UNL     1      -2.514   1.269   0.190  0.00  0.00    +0.000 N 
ATOM      2  C   UNL     1      -3.681   0.526   0.687  0.00  0.00    +0.000 C 
ATOM      3  N   UNL     1      -3.535   0.940  -0.699  0.00  0.00    +0.000 NA
ATOM      4  H   UNL     1      -3.369   0.238  -1.421  0.00  0.00    +0.000 HD
ENDROOT
BRANCH   2   5
ATOM      5  C   UNL     1      -4.680   1.258   1.540  0.00  0.00    +0.000 A 
ATOM      6  C   UNL     1      -6.062   1.151   1.294  0.00  0.00    +0.000 A 
ATOM      7  C   UNL     1      -6.999   1.818   2.090  0.00  0.00    +0.000 A 
ATOM      8  C   UNL     1      -6.567   2.603   3.154  0.00  0.00    +0.000 A 
ATOM      9  C   UNL     1      -5.209   2.724   3.428  0.00  0.00    +0.000 A 
ATOM     10  C   UNL     1      -4.278   2.054   2.628  0.00  0.00    +0.000 A 
ATOM     11 CL   UNL     1      -7.716   3.424   4.135  0.00  0.00    +0.000 Cl
ENDBRANCH   2   5
BRANCH   1  15
ATOM     12  C   UNL     1       1.239  -0.665  -0.198  0.00  0.00    +0.000 A 
ATOM     13  C   UNL     1       0.106  -1.290  -0.714  0.00  0.00    +0.000 A 
ATOM     14  C   UNL     1      -1.146  -0.676  -0.604  0.00  0.00    +0.000 A 
ATOM     15  C   UNL     1      -1.286   0.571   0.027  0.00  0.00    +0.000 A 
ATOM     16  C   UNL     1      -0.129   1.187   0.530  0.00  0.00    +0.000 A 
ATOM     17  C   UNL     1       1.123   0.576   0.422  0.00  0.00    +0.000 A 
ENDBRANCH   1  15
TORSDOF 2
