REMARK  Name = *****
REMARK  4 active torsions:
REMARK  status: ('A' for Active; 'I' for Inactive)
REMARK    1  A    between atoms: C_1  and  C_2
REMARK    2  A    between atoms: C_2  and  C_4
REMARK    3  A    between atoms: C_9  and  C_10
REMARK    4  A    between atoms: C_11  and  C_12
REMARK                            x       y       z     vdW  Elec       q    Type
REMARK                         _______ _______ _______ _____ _____    ______ ____
ROOT
ATOM      1  C   UNL     1       3.376   1.045  -0.977  0.00  0.00    +0.000 A 
ATOM      2  C   UNL     1       2.963   2.387  -0.989  0.00  0.00    +0.000 A 
ATOM      3  C   UNL     1       3.609   3.312  -1.809  0.00  0.00    +0.000 A 
ATOM      4  C   UNL     1       4.668   2.904  -2.615  0.00  0.00    +0.000 A 
ATOM      5  C   UNL     1       5.083   1.570  -2.605  0.00  0.00    +0.000 A 
ATOM      6  C   UNL     1       4.441   0.621  -1.792  0.00  0.00    +0.000 A 
ENDROOT
BRANCH   1   8
ATOM      7  C   UNL     1       1.149   0.100  -0.138  0.00  0.00    +0.000 C 
ATOM      8  C   UNL     1       2.655   0.098  -0.086  0.00  0.00    +0.000 C 
ATOM      9  O   UNL     1       3.274  -0.628   0.686  0.00  0.00    +0.000 OA
ENDBRANCH   1   8
BRANCH   6  10
ATOM     10  C   UNL     1       4.906  -0.773  -1.817  0.00  0.00    +0.000 C 
ATOM     11  C   UNL     1       4.942  -1.507  -2.941  0.00  0.00    +0.000 C 
BRANCH  11  12
ATOM     12  C   UNL     1       5.380  -2.910  -2.984  0.00  0.00    +0.000 A 
ATOM     13  C   UNL     1       5.089  -3.815  -1.953  0.00  0.00    +0.000 A 
ATOM     14  C   UNL     1       5.494  -5.150  -2.043  0.00  0.00    +0.000 A 
ATOM     15  C   UNL     1       6.183  -5.590  -3.170  0.00  0.00    +0.000 A 
ATOM     16  C   UNL     1       6.467  -4.708  -4.209  0.00  0.00    +0.000 A 
ATOM     17  C   UNL     1       6.060  -3.373  -4.118  0.00  0.00    +0.000 A 
ATOM     18 CL   UNL     1       6.681  -7.233  -3.283  0.00  0.00    +0.000 Cl
ENDBRANCH  11  12
ENDBRANCH   6  10
TORSDOF 3
