REMARK  Name = *****
REMARK  3 active torsions:
REMARK  status: ('A' for Active; 'I' for Inactive)
REMARK    1  A    between atoms: C_1  and  C_2
REMARK    2  A    between atoms: C_2  and  C_11
REMARK    3  A    between atoms: N_3  and  C_4
REMARK                            x       y       z     vdW  Elec       q    Type
REMARK                         _______ _______ _______ _____ _____    ______ ____
ROOT
ATOM      1  C   UNL     1       1.268   0.871  -0.224  0.00  0.00    +0.000 C 
ATOM      2  C   UNL     1       2.598   0.164  -0.052  0.00  0.00    +0.000 C 
ATOM      3  N   UNL     1       3.115  -0.156   1.101  0.00  0.00    +0.000 NA
ENDROOT
BRANCH   3   4
ATOM      4  C   UNL     1       2.432   0.148   2.282  0.00  0.00    +0.000 A 
ATOM      5  C   UNL     1       1.489  -0.742   2.805  0.00  0.00    +0.000 A 
ATOM      6  C   UNL     1       0.825  -0.449   3.999  0.00  0.00    +0.000 A 
ATOM      7  C   UNL     1       1.119   0.732   4.679  0.00  0.00    +0.000 A 
ATOM      8  C   UNL     1       2.073   1.616   4.180  0.00  0.00    +0.000 A 
ATOM      9  C   UNL     1       2.733   1.318   2.985  0.00  0.00    +0.000 A 
ATOM     10 CL   UNL     1       0.303   1.096   6.150  0.00  0.00    +0.000 Cl
ENDBRANCH   3   4
BRANCH   2  11
ATOM     11  C   UNL     1       3.342  -0.188  -1.302  0.00  0.00    +0.000 C 
ATOM     12  C   UNL     1       4.641   0.146  -1.383  0.00  0.00    +0.000 C 
ATOM     13  C   UNL     1       5.494  -0.176  -2.574  0.00  0.00    +0.000 C 
ATOM     14  C   UNL     1       4.689  -0.656  -3.785  0.00  0.00    +0.000 C 
ATOM     15  C   UNL     1       3.572  -1.610  -3.370  0.00  0.00    +0.000 C 
ATOM     16  C   UNL     1       2.615  -0.939  -2.380  0.00  0.00    +0.000 C 
ENDBRANCH   2  11
TORSDOF 2
