REMARK  Name = *****
REMARK  3 active torsions:
REMARK  status: ('A' for Active; 'I' for Inactive)
REMARK    1  A    between atoms: C_4  and  C_7
REMARK    2  A    between atoms: C_8  and  C_9
REMARK    3  A    between atoms: C_9  and  C_11
REMARK                            x       y       z     vdW  Elec       q    Type
REMARK                         _______ _______ _______ _____ _____    ______ ____
ROOT
ATOM      1  C   UNL     1       2.762  -0.704  -0.413  0.00  0.00    +0.000 C 
ATOM      2  C   UNL     1       3.041  -0.727  -1.727  0.00  0.00    +0.000 C 
ATOM      3 CL   UNL     1       3.929  -1.148   0.794  0.00  0.00    +0.000 Cl
ENDROOT
BRANCH   1   7
ATOM      4  C   UNL     1      -1.469   0.370  -0.058  0.00  0.00    +0.000 C 
ATOM      5  C   UNL     1      -1.035  -1.034   0.350  0.00  0.00    +0.000 C 
ATOM      6  C   UNL     1       0.335  -1.391  -0.225  0.00  0.00    +0.000 C 
ATOM      7  C   UNL     1       1.398  -0.344   0.154  0.00  0.00    +0.000 C 
ATOM      8  C   UNL     1       0.949   1.069  -0.262  0.00  0.00    +0.000 C 
ATOM      9  C   UNL     1      -0.422   1.414   0.317  0.00  0.00    +0.000 C 
ENDBRANCH   1   7
BRANCH   2  10
ATOM     10  C   UNL     1       4.365  -1.045  -2.328  0.00  0.00    +0.000 C 
ATOM     11  O   UNL     1       5.420  -0.691  -1.818  0.00  0.00    +0.000 OA
BRANCH  10  12
ATOM     12  C   UNL     1       4.363  -1.725  -3.654  0.00  0.00    +0.000 A 
ATOM     13  C   UNL     1       5.471  -1.547  -4.492  0.00  0.00    +0.000 A 
ATOM     14  C   UNL     1       5.513  -2.163  -5.744  0.00  0.00    +0.000 A 
ATOM     15  C   UNL     1       4.454  -2.968  -6.160  0.00  0.00    +0.000 A 
ATOM     16  C   UNL     1       3.355  -3.164  -5.323  0.00  0.00    +0.000 A 
ATOM     17  C   UNL     1       3.308  -2.548  -4.070  0.00  0.00    +0.000 A 
ENDBRANCH  10  12
ENDBRANCH   2  10
TORSDOF 3
