REMARK  Name = *****
REMARK  4 active torsions:
REMARK  status: ('A' for Active; 'I' for Inactive)
REMARK    1  A    between atoms: C_2  and  C_3
REMARK    2  A    between atoms: C_8  and  O_9
REMARK    3  A    between atoms: O_9  and  C_10
REMARK    4  A    between atoms: C_10  and  C_11
REMARK                            x       y       z     vdW  Elec       q    Type
REMARK                         _______ _______ _______ _____ _____    ______ ____
ROOT
ATOM      1  C   UNL     1       3.153   0.773  -0.989  0.00  0.00    +0.000 A 
ATOM      2  C   UNL     1       2.656   2.067  -1.225  0.00  0.00    +0.000 A 
ATOM      3  C   UNL     1       3.225   2.880  -2.205  0.00  0.00    +0.000 A 
ATOM      4  C   UNL     1       4.294   2.408  -2.958  0.00  0.00    +0.000 A 
ATOM      5  C   UNL     1       4.801   1.125  -2.735  0.00  0.00    +0.000 A 
ATOM      6  C   UNL     1       4.241   0.299  -1.752  0.00  0.00    +0.000 A 
ENDROOT
BRANCH   1   8
ATOM      7  C   UNL     1       1.799  -1.143  -0.234  0.00  0.00    +0.000 C 
ATOM      8  C   UNL     1       2.511  -0.046   0.052  0.00  0.00    +0.000 C 
ATOM      9 CL   UNL     1       2.677   0.487   1.688  0.00  0.00    +0.000 Cl
ENDBRANCH   1   8
BRANCH   6  10
ATOM     10  O   UNL     1       4.679  -0.968  -1.464  0.00  0.00    +0.000 OA
BRANCH  10  11
ATOM     11  C   UNL     1       5.838  -1.447  -2.144  0.00  0.00    +0.000 C 
BRANCH  11  12
ATOM     12  C   UNL     1       6.156  -2.844  -1.662  0.00  0.00    +0.000 A 
ATOM     13  C   UNL     1       5.155  -3.824  -1.598  0.00  0.00    +0.000 A 
ATOM     14  C   UNL     1       5.456  -5.122  -1.182  0.00  0.00    +0.000 A 
ATOM     15  C   UNL     1       6.763  -5.457  -0.834  0.00  0.00    +0.000 A 
ATOM     16  C   UNL     1       7.769  -4.495  -0.902  0.00  0.00    +0.000 A 
ATOM     17  C   UNL     1       7.469  -3.196  -1.317  0.00  0.00    +0.000 A 
ENDBRANCH  11  12
ENDBRANCH  10  11
ENDBRANCH   6  10
TORSDOF 4
