REMARK  Name = *****
REMARK  4 active torsions:
REMARK  status: ('A' for Active; 'I' for Inactive)
REMARK    1  A    between atoms: C_1  and  C_2
REMARK    2  A    between atoms: C_5  and  C_8
REMARK    3  A    between atoms: C_8  and  O_9
REMARK    4  A    between atoms: O_9  and  C_10
REMARK                            x       y       z     vdW  Elec       q    Type
REMARK                         _______ _______ _______ _____ _____    ______ ____
ROOT
ATOM      1  O   UNL     1      -3.822   1.253   0.069  0.00  0.00    +0.000 OA
ENDROOT
BRANCH   1   2
ATOM      2  C   UNL     1      -5.178   1.427   0.085  0.00  0.00    +0.000 A 
ATOM      3  C   UNL     1      -5.593   2.712   0.448  0.00  0.00    +0.000 A 
ATOM      4  C   UNL     1      -6.951   3.023   0.504  0.00  0.00    +0.000 A 
ATOM      5  C   UNL     1      -7.909   2.062   0.200  0.00  0.00    +0.000 A 
ATOM      6  C   UNL     1      -7.493   0.784  -0.162  0.00  0.00    +0.000 A 
ATOM      7  C   UNL     1      -6.135   0.459  -0.222  0.00  0.00    +0.000 A 
ATOM      8 CL   UNL     1      -8.669  -0.415  -0.542  0.00  0.00    +0.000 Cl
ATOM      9 CL   UNL     1      -7.446   4.608   0.954  0.00  0.00    +0.000 Cl
ENDBRANCH   1   2
BRANCH   1  10
ATOM     10  C   UNL     1      -3.329  -0.036  -0.292  0.00  0.00    +0.000 C 
BRANCH  10  15
ATOM     11  C   UNL     1       2.489   0.099   0.016  0.00  0.00    +0.000 C 
ATOM     12  C   UNL     1       0.992   0.036  -0.060  0.00  0.00    +0.000 A 
ATOM     13  C   UNL     1       0.215   0.145   1.099  0.00  0.00    +0.000 A 
ATOM     14  C   UNL     1      -1.179   0.119   1.021  0.00  0.00    +0.000 A 
ATOM     15  C   UNL     1      -1.822  -0.007  -0.218  0.00  0.00    +0.000 A 
ATOM     16  C   UNL     1      -1.043  -0.094  -1.378  0.00  0.00    +0.000 A 
ATOM     17  C   UNL     1       0.352  -0.070  -1.299  0.00  0.00    +0.000 A 
ENDBRANCH  10  15
ENDBRANCH   1  10
TORSDOF 3
