REMARK  Name = *****
REMARK  4 active torsions:
REMARK  status: ('A' for Active; 'I' for Inactive)
REMARK    1  A    between atoms: C_2  and  C_3
REMARK    2  A    between atoms: C_4  and  S_8
REMARK    3  A    between atoms: S_8  and  C_9
REMARK    4  A    between atoms: C_9  and  C_10
REMARK                            x       y       z     vdW  Elec       q    Type
REMARK                         _______ _______ _______ _____ _____    ______ ____
ROOT
ATOM      1  S   UNL     1       3.979   2.851  -0.561  0.00  0.00    +0.000 S 
ENDROOT
BRANCH   1   3
ATOM      2  C   UNL     1       3.842   0.069  -0.564  0.00  0.00    +0.000 A 
ATOM      3  C   UNL     1       4.629   1.206  -0.502  0.00  0.00    +0.000 A 
ATOM      4  C   UNL     1       6.017   0.882  -0.413  0.00  0.00    +0.000 A 
ATOM      5  C   UNL     1       6.238  -0.478  -0.394  0.00  0.00    +0.000 A 
ATOM      6  S   UNL     1       4.782  -1.363  -0.493  0.00  0.00    +0.000 S 
BRANCH   2   8
ATOM      7  C   UNL     1       1.221  -0.024  -0.772  0.00  0.00    +0.000 C 
ATOM      8  C   UNL     1       2.417   0.020  -0.675  0.00  0.00    +0.000 C 
ENDBRANCH   2   8
ENDBRANCH   1   3
BRANCH   1   9
ATOM      9  C   UNL     1       5.368   3.888  -0.036  0.00  0.00    +0.000 C 
BRANCH   9  10
ATOM     10  C   UNL     1       4.966   5.336   0.097  0.00  0.00    +0.000 A 
ATOM     11  C   UNL     1       4.582   5.859   1.341  0.00  0.00    +0.000 A 
ATOM     12  C   UNL     1       4.206   7.198   1.460  0.00  0.00    +0.000 A 
ATOM     13  C   UNL     1       4.202   8.026   0.339  0.00  0.00    +0.000 A 
ATOM     14  C   UNL     1       4.571   7.516  -0.904  0.00  0.00    +0.000 A 
ATOM     15  C   UNL     1       4.949   6.178  -1.026  0.00  0.00    +0.000 A 
ENDBRANCH   9  10
ENDBRANCH   1   9
TORSDOF 4
