REMARK  Name = *****
REMARK  5 active torsions:
REMARK  status: ('A' for Active; 'I' for Inactive)
REMARK    1  A    between atoms: C_1  and  C_2
REMARK    2  A    between atoms: C_8  and  C_9
REMARK    3  A    between atoms: C_8  and  C_10
REMARK    4  A    between atoms: C_10  and  S_11
REMARK    5  A    between atoms: S_11  and  C_12
REMARK                            x       y       z     vdW  Elec       q    Type
REMARK                         _______ _______ _______ _____ _____    ______ ____
ROOT
ATOM      1  C   UNL     1       0.999   0.248   0.082  0.00  0.00    +0.000 C 
ATOM      2  C   UNL     1       2.521   0.211  -0.145  0.00  0.00    +0.000 C 
ATOM      3  C   UNL     1       2.890   1.145  -1.318  0.00  0.00    +0.000 C 
ATOM      4  C   UNL     1       2.423   0.602  -2.665  0.00  0.00    +0.000 C 
ATOM      5  C   UNL     1       2.941  -0.802  -2.925  0.00  0.00    +0.000 C 
ATOM      6  C   UNL     1       2.671  -1.722  -1.751  0.00  0.00    +0.000 C 
ATOM      7  O   UNL     1       2.211  -2.850  -1.943  0.00  0.00    +0.000 OA
ATOM      8  C   UNL     1       3.086  -1.234  -0.349  0.00  0.00    +0.000 C 
ATOM      9  C   UNL     1       4.632  -1.233  -0.306  0.00  0.00    +0.000 C 
ENDROOT
BRANCH   8  10
ATOM     10  C   UNL     1       2.554  -2.268   0.686  0.00  0.00    +0.000 C 
BRANCH  10  11
ATOM     11  S   UNL     1       2.910  -1.852   2.438  0.00  0.00    +0.000 S 
BRANCH  11  12
ATOM     12  C   UNL     1       2.336  -3.291   3.336  0.00  0.00    +0.000 A 
ATOM     13  C   UNL     1       1.583  -4.332   2.784  0.00  0.00    +0.000 A 
ATOM     14  C   UNL     1       1.177  -5.414   3.572  0.00  0.00    +0.000 A 
ATOM     15  C   UNL     1       1.516  -5.466   4.921  0.00  0.00    +0.000 A 
ATOM     16  C   UNL     1       2.260  -4.435   5.486  0.00  0.00    +0.000 A 
ATOM     17  C   UNL     1       2.665  -3.355   4.697  0.00  0.00    +0.000 A 
ENDBRANCH  11  12
ENDBRANCH  10  11
ENDBRANCH   8  10
TORSDOF 3
