REMARK  Name = *****
REMARK  1 active torsions:
REMARK  status: ('A' for Active; 'I' for Inactive)
REMARK    1  A    between atoms: C_4  and  C_7
REMARK                            x       y       z     vdW  Elec       q    Type
REMARK                         _______ _______ _______ _____ _____    ______ ____
ROOT
ATOM      1  C   UNL     1       2.829  -0.658  -0.256  0.00  0.00    +0.000 A 
ATOM      2  N   UNL     1       3.254  -0.799  -1.498  0.00  0.00    +0.000 NA
ATOM      3  C   UNL     1       4.588  -1.085  -1.355  0.00  0.00    +0.000 A 
ATOM      4  C   UNL     1       4.921  -1.103  -0.010  0.00  0.00    +0.000 A 
ATOM      5  O   UNL     1       3.792  -0.829   0.704  0.00  0.00    +0.000 OA
ATOM      6  C   UNL     1       6.192  -1.360   0.489  0.00  0.00    +0.000 A 
ATOM      7  C   UNL     1       7.178  -1.614  -0.473  0.00  0.00    +0.000 A 
ATOM      8  C   UNL     1       6.875  -1.603  -1.841  0.00  0.00    +0.000 A 
ATOM      9  C   UNL     1       5.581  -1.339  -2.308  0.00  0.00    +0.000 A 
ATOM     10 CL   UNL     1       8.129  -1.922  -2.980  0.00  0.00    +0.000 Cl
ENDROOT
BRANCH   1  14
ATOM     11  C   UNL     1      -1.391   0.322  -0.239  0.00  0.00    +0.000 C 
ATOM     12  C   UNL     1      -0.969  -1.071   0.218  0.00  0.00    +0.000 C 
ATOM     13  C   UNL     1       0.452  -1.405  -0.231  0.00  0.00    +0.000 C 
ATOM     14  C   UNL     1       1.455  -0.339   0.233  0.00  0.00    +0.000 C 
ATOM     15  C   UNL     1       1.025   1.059  -0.234  0.00  0.00    +0.000 C 
ATOM     16  C   UNL     1      -0.397   1.388   0.214  0.00  0.00    +0.000 C 
ENDBRANCH   1  14
TORSDOF 1
