REMARK  Name = *****
REMARK  2 active torsions:
REMARK  status: ('A' for Active; 'I' for Inactive)
REMARK    1  A    between atoms: C_3  and  N_8
REMARK    2  A    between atoms: C_9  and  C_10
REMARK                            x       y       z     vdW  Elec       q    Type
REMARK                         _______ _______ _______ _____ _____    ______ ____
ROOT
ATOM      1  N   UNL     1      -1.989   2.436  -0.077  0.00  0.00    +0.000 NA
ATOM      2  C   UNL     1      -1.350   3.545   0.136  0.00  0.00    +0.000 C 
ENDROOT
BRANCH   2   3
ATOM      3  C   UNL     1      -2.039   4.854   0.099  0.00  0.00    +0.000 A 
ATOM      4  C   UNL     1      -1.353   6.057   0.315  0.00  0.00    +0.000 A 
ATOM      5  C   UNL     1      -2.042   7.274   0.272  0.00  0.00    +0.000 A 
ATOM      6  C   UNL     1      -3.411   7.289   0.013  0.00  0.00    +0.000 A 
ATOM      7  C   UNL     1      -4.103   6.100  -0.204  0.00  0.00    +0.000 A 
ATOM      8  C   UNL     1      -3.418   4.884  -0.162  0.00  0.00    +0.000 A 
ATOM      9 CL   UNL     1      -4.253   8.788  -0.039  0.00  0.00    +0.000 Cl
ATOM     10 CL   UNL     1       0.343   6.125   0.642  0.00  0.00    +0.000 Cl
ENDBRANCH   2   3
BRANCH   1  13
ATOM     11  C   UNL     1      -0.443  -0.667   1.237  0.00  0.00    +0.000 A 
ATOM     12  C   UNL     1      -1.188   0.513   1.166  0.00  0.00    +0.000 A 
ATOM     13  C   UNL     1      -1.224   1.263  -0.015  0.00  0.00    +0.000 A 
ATOM     14  C   UNL     1      -0.528   0.809  -1.136  0.00  0.00    +0.000 A 
ATOM     15  C   UNL     1       0.211  -0.366  -1.057  0.00  0.00    +0.000 A 
ATOM     16  C   UNL     1       0.263  -1.106   0.119  0.00  0.00    +0.000 A 
ATOM     17  F   UNL     1       0.885  -0.794  -2.133  0.00  0.00    +0.000 F 
ENDBRANCH   1  13
TORSDOF 2
