REMARK  Name = *****
REMARK  4 active torsions:
REMARK  status: ('A' for Active; 'I' for Inactive)
REMARK    1  A    between atoms: C_4  and  C_7
REMARK    2  A    between atoms: C_7  and  C_8
REMARK    3  A    between atoms: C_8  and  C_9
REMARK    4  A    between atoms: C_10  and  C_16
REMARK                            x       y       z     vdW  Elec       q    Type
REMARK                         _______ _______ _______ _____ _____    ______ ____
ROOT
ATOM      1  C   UNL     1      -5.084  -0.559  -0.440  0.00  0.00    +0.000 A 
ATOM      2  C   UNL     1      -5.911  -1.696  -0.612  0.00  0.00    +0.000 A 
ATOM      3  C   UNL     1      -7.306  -1.560  -0.728  0.00  0.00    +0.000 A 
ATOM      4  C   UNL     1      -7.898  -0.301  -0.677  0.00  0.00    +0.000 A 
ATOM      5  C   UNL     1      -7.095   0.816  -0.510  0.00  0.00    +0.000 A 
ATOM      6  C   UNL     1      -5.710   0.700  -0.393  0.00  0.00    +0.000 A 
ATOM      7  F   UNL     1      -7.657   2.030  -0.459  0.00  0.00    +0.000 F 
ENDROOT
BRANCH   2   8
ATOM      8  C   UNL     1      -5.355  -3.072  -0.677  0.00  0.00    +0.000 C 
ATOM      9  O   UNL     1      -6.071  -4.057  -0.825  0.00  0.00    +0.000 OA
ENDBRANCH   2   8
BRANCH   1  10
ATOM     10  C   UNL     1      -3.578  -0.704  -0.312  0.00  0.00    +0.000 C 
BRANCH  10  11
ATOM     11  C   UNL     1      -2.755   0.578  -0.124  0.00  0.00    +0.000 C 
BRANCH  11  15
ATOM     12  C   UNL     1       1.445  -0.340   0.222  0.00  0.00    +0.000 A 
ATOM     13  C   UNL     1       0.884  -0.104  -1.032  0.00  0.00    +0.000 A 
ATOM     14  C   UNL     1      -0.473   0.200  -1.145  0.00  0.00    +0.000 A 
ATOM     15  C   UNL     1      -1.281   0.274  -0.002  0.00  0.00    +0.000 A 
ATOM     16  C   UNL     1      -0.708   0.030   1.254  0.00  0.00    +0.000 A 
ATOM     17  C   UNL     1       0.649  -0.274   1.364  0.00  0.00    +0.000 A 
ENDBRANCH  11  15
ENDBRANCH  10  11
ENDBRANCH   1  10
TORSDOF 4
