REMARK  Name = *****
REMARK  3 active torsions:
REMARK  status: ('A' for Active; 'I' for Inactive)
REMARK    1  A    between atoms: C_4  and  N_7
REMARK    2  A    between atoms: N_7  and  N_8
REMARK    3  A    between atoms: N_8  and  C_10
REMARK                            x       y       z     vdW  Elec       q    Type
REMARK                         _______ _______ _______ _____ _____    ______ ____
ROOT
ATOM      1  N   UNL     1      -3.778  -0.762  -0.522  0.00  0.00    +0.000 N 
ATOM      2  O   UNL     1      -3.500  -1.875  -0.922  0.00  0.00    +0.000 OA
ENDROOT
BRANCH   1   3
ATOM      3  C   UNL     1      -5.183  -0.428  -0.423  0.00  0.00    +0.000 A 
ATOM      4  C   UNL     1      -5.697   0.778  -0.917  0.00  0.00    +0.000 A 
ATOM      5  C   UNL     1      -7.071   1.031  -0.775  0.00  0.00    +0.000 A 
ATOM      6  C   UNL     1      -7.909   0.092  -0.159  0.00  0.00    +0.000 A 
ATOM      7  C   UNL     1      -7.388  -1.109   0.318  0.00  0.00    +0.000 A 
ATOM      8  C   UNL     1      -6.027  -1.372   0.185  0.00  0.00    +0.000 A 
ATOM      9 CL   UNL     1      -7.810   2.493  -1.336  0.00  0.00    +0.000 Cl
ATOM     10 CL   UNL     1      -4.672   1.930  -1.708  0.00  0.00    +0.000 Cl
ENDBRANCH   1   3
BRANCH   1  11
ATOM     11  N   UNL     1      -2.794   0.134  -0.035  0.00  0.00    +0.000 N 
ATOM     12  H   UNL     1      -3.150   0.969   0.345  0.00  0.00    +0.000 HD
BRANCH  11  16
ATOM     13  C   UNL     1       1.424  -0.075   0.140  0.00  0.00    +0.000 A 
ATOM     14  C   UNL     1       0.703  -1.173  -0.318  0.00  0.00    +0.000 A 
ATOM     15  C   UNL     1      -0.694  -1.121  -0.387  0.00  0.00    +0.000 A 
ATOM     16  C   UNL     1      -1.394   0.027  -0.004  0.00  0.00    +0.000 A 
ATOM     17  C   UNL     1      -0.647   1.122   0.464  0.00  0.00    +0.000 A 
ATOM     18  C   UNL     1       0.748   1.075   0.533  0.00  0.00    +0.000 A 
ENDBRANCH  11  16
ENDBRANCH   1  11
TORSDOF 3
