REMARK  Name = *****
REMARK  4 active torsions:
REMARK  status: ('A' for Active; 'I' for Inactive)
REMARK    1  A    between atoms: C_1  and  N_2
REMARK    2  A    between atoms: N_2  and  C_3
REMARK    3  A    between atoms: N_2  and  N_4
REMARK    4  A    between atoms: C_10  and  C_13
REMARK                            x       y       z     vdW  Elec       q    Type
REMARK                         _______ _______ _______ _____ _____    ______ ____
ROOT
ATOM      1  N   UNL     1       3.228  -0.911   0.874  0.00  0.00    +0.000 N 
ATOM      2  C   UNL     1       4.278  -0.352   1.557  0.00  0.00    +0.000 A 
ATOM      3  C   UNL     1       4.651  -1.224   2.555  0.00  0.00    +0.000 A 
ATOM      4  C   UNL     1       3.804  -2.363   2.470  0.00  0.00    +0.000 A 
ATOM      5  C   UNL     1       2.919  -2.144   1.413  0.00  0.00    +0.000 A 
ATOM      6  C   UNL     1       1.939  -3.087   1.051  0.00  0.00    +0.000 A 
ATOM      7  C   UNL     1       1.850  -4.295   1.768  0.00  0.00    +0.000 A 
ATOM      8  C   UNL     1       2.741  -4.513   2.831  0.00  0.00    +0.000 A 
ATOM      9  C   UNL     1       3.710  -3.565   3.193  0.00  0.00    +0.000 A 
ENDROOT
BRANCH   7  10
ATOM     10  C   UNL     1       0.848  -5.315   1.399  0.00  0.00    +0.000 A 
ATOM     11  C   UNL     1       0.686  -5.723   0.063  0.00  0.00    +0.000 A 
ATOM     12  C   UNL     1      -0.258  -6.692  -0.289  0.00  0.00    +0.000 A 
ATOM     13  C   UNL     1      -1.058  -7.274   0.690  0.00  0.00    +0.000 A 
ATOM     14  C   UNL     1      -0.916  -6.886   2.020  0.00  0.00    +0.000 A 
ATOM     15  C   UNL     1       0.028  -5.915   2.370  0.00  0.00    +0.000 A 
ENDBRANCH   7  10
BRANCH   1  17
ATOM     16  C   UNL     1       1.978   0.966   0.045  0.00  0.00    +0.000 C 
ATOM     17  N   UNL     1       2.547  -0.342  -0.257  0.00  0.00    +0.000 N 
ATOM     18  C   UNL     1       3.407  -0.310  -1.435  0.00  0.00    +0.000 C 
ENDBRANCH   1  17
TORSDOF 2
