REMARK  Name = *****
REMARK  4 active torsions:
REMARK  status: ('A' for Active; 'I' for Inactive)
REMARK    1  A    between atoms: C_4  and  C_7
REMARK    2  A    between atoms: C_7  and  C_8
REMARK    3  A    between atoms: C_8  and  C_9
REMARK    4  A    between atoms: C_9  and  C_10
REMARK                            x       y       z     vdW  Elec       q    Type
REMARK                         _______ _______ _______ _____ _____    ______ ____
ROOT
ATOM      1  C   UNL     1      -2.865   0.442  -0.140  0.00  0.00    +0.000 C 
ENDROOT
BRANCH   1   5
ATOM      2  C   UNL     1       1.295  -0.357   0.662  0.00  0.00    +0.000 A 
ATOM      3  C   UNL     1       0.847  -0.250  -0.653  0.00  0.00    +0.000 A 
ATOM      4  C   UNL     1      -0.499   0.013  -0.914  0.00  0.00    +0.000 A 
ATOM      5  C   UNL     1      -1.408   0.177   0.140  0.00  0.00    +0.000 A 
ATOM      6  C   UNL     1      -0.948   0.060   1.459  0.00  0.00    +0.000 A 
ATOM      7  C   UNL     1       0.398  -0.203   1.718  0.00  0.00    +0.000 A 
ENDBRANCH   1   5
BRANCH   1   8
ATOM      8  C   UNL     1      -3.660  -0.859  -0.278  0.00  0.00    +0.000 C 
BRANCH   8   9
ATOM      9  C   UNL     1      -5.142  -0.575  -0.547  0.00  0.00    +0.000 C 
BRANCH   9  10
ATOM     10  C   UNL     1      -5.959  -1.856  -0.761  0.00  0.00    +0.000 C 
ATOM     11  C   UNL     1      -7.400  -1.545  -1.087  0.00  0.00    +0.000 C 
ATOM     12  C   UNL     1      -8.209  -2.106  -0.175  0.00  0.00    +0.000 C 
ATOM     13  C   UNL     1      -7.415  -2.816   0.795  0.00  0.00    +0.000 C 
ATOM     14  C   UNL     1      -6.117  -2.693   0.485  0.00  0.00    +0.000 C 
ENDBRANCH   9  10
ENDBRANCH   8   9
ENDBRANCH   1   8
TORSDOF 4
