REMARK  Name = *****
REMARK  3 active torsions:
REMARK  status: ('A' for Active; 'I' for Inactive)
REMARK    1  A    between atoms: C_4  and  S_7
REMARK    2  A    between atoms: S_7  and  C_8
REMARK    3  A    between atoms: C_8  and  C_9
REMARK                            x       y       z     vdW  Elec       q    Type
REMARK                         _______ _______ _______ _____ _____    ______ ____
ROOT
ATOM      1  C   UNL     1      -3.965  -0.964  -0.378  0.00  0.00    +0.000 C 
ENDROOT
BRANCH   1   2
ATOM      2  C   UNL     1      -5.455  -0.767  -0.526  0.00  0.00    +0.000 A 
ATOM      3  C   UNL     1      -6.009  -0.438  -1.776  0.00  0.00    +0.000 A 
ATOM      4  C   UNL     1      -7.385  -0.240  -1.907  0.00  0.00    +0.000 A 
ATOM      5  C   UNL     1      -8.212  -0.363  -0.794  0.00  0.00    +0.000 A 
ATOM      6  C   UNL     1      -7.679  -0.679   0.452  0.00  0.00    +0.000 A 
ATOM      7  C   UNL     1      -6.304  -0.877   0.588  0.00  0.00    +0.000 A 
ATOM      8  F   UNL     1      -9.537  -0.178  -0.899  0.00  0.00    +0.000 F 
ATOM      9 CL   UNL     1      -8.039   0.155  -3.450  0.00  0.00    +0.000 Cl
ENDBRANCH   1   2
BRANCH   1  10
ATOM     10  S   UNL     1      -3.132   0.611  -0.001  0.00  0.00    +0.000 S 
BRANCH  10  14
ATOM     11  C   UNL     1       1.345  -0.357   0.432  0.00  0.00    +0.000 A 
ATOM     12  C   UNL     1       0.472  -1.387   0.093  0.00  0.00    +0.000 A 
ATOM     13  C   UNL     1      -0.897  -1.134  -0.048  0.00  0.00    +0.000 A 
ATOM     14  C   UNL     1      -1.409   0.152   0.150  0.00  0.00    +0.000 A 
ATOM     15  C   UNL     1      -0.516   1.179   0.491  0.00  0.00    +0.000 A 
ATOM     16  C   UNL     1       0.851   0.928   0.632  0.00  0.00    +0.000 A 
ENDBRANCH  10  14
ENDBRANCH   1  10
TORSDOF 3
