REMARK  Name = *****
REMARK  3 active torsions:
REMARK  status: ('A' for Active; 'I' for Inactive)
REMARK    1  A    between atoms: C_6  and  O_8
REMARK    2  A    between atoms: O_8  and  C_9
REMARK    3  A    between atoms: C_9  and  C_10
REMARK                            x       y       z     vdW  Elec       q    Type
REMARK                         _______ _______ _______ _____ _____    ______ ____
ROOT
ATOM      1  O   UNL     1      -0.226  -0.956   1.871  0.00  0.00    +0.000 OA
ENDROOT
BRANCH   1   7
ATOM      2  C   UNL     1      -1.466   1.045  -0.262  0.00  0.00    +0.000 C 
ATOM      3  C   UNL     1      -0.073   1.436  -0.831  0.00  0.00    +0.000 C 
ATOM      4  C   UNL     1       0.926   0.728   0.011  0.00  0.00    +0.000 C 
ATOM      5  C   UNL     1       2.103  -0.190  -0.127  0.00  0.00    +0.000 C 
ATOM      6  C   UNL     1       0.733  -0.754  -0.321  0.00  0.00    +0.000 C 
ATOM      7  C   UNL     1      -0.427  -1.240   0.489  0.00  0.00    +0.000 C 
ATOM      8  C   UNL     1      -1.670  -0.488  -0.080  0.00  0.00    +0.000 C 
ENDBRANCH   1   7
BRANCH   1   9
ATOM      9  C   UNL     1      -0.969  -1.816   2.730  0.00  0.00    +0.000 C 
BRANCH   9  10
ATOM     10  C   UNL     1      -0.729  -1.415   4.164  0.00  0.00    +0.000 A 
ATOM     11  C   UNL     1      -1.804  -1.239   5.047  0.00  0.00    +0.000 A 
ATOM     12  C   UNL     1      -1.576  -0.895   6.381  0.00  0.00    +0.000 A 
ATOM     13  C   UNL     1      -0.273  -0.730   6.848  0.00  0.00    +0.000 A 
ATOM     14  C   UNL     1       0.804  -0.909   5.982  0.00  0.00    +0.000 A 
ATOM     15  C   UNL     1       0.577  -1.251   4.649  0.00  0.00    +0.000 A 
ENDBRANCH   9  10
ENDBRANCH   1   9
TORSDOF 3
