REMARK  Name = *****
REMARK  5 active torsions:
REMARK  status: ('A' for Active; 'I' for Inactive)
REMARK    1  A    between atoms: C_1  and  C_2
REMARK    2  A    between atoms: C_2  and  C_3
REMARK    3  A    between atoms: C_3  and  C_4
REMARK    4  A    between atoms: C_3  and  C_10
REMARK    5  A    between atoms: C_4  and  C_5
REMARK                            x       y       z     vdW  Elec       q    Type
REMARK                         _______ _______ _______ _____ _____    ______ ____
ROOT
ATOM      1  C   UNL     1       3.097   0.888   0.974  0.00  0.00    +0.000 C 
ENDROOT
BRANCH   1   2
ATOM      2  C   UNL     1       4.611   1.019   1.109  0.00  0.00    +0.000 A 
ATOM      3  C   UNL     1       5.330   1.656   0.083  0.00  0.00    +0.000 A 
ATOM      4  C   UNL     1       6.718   1.796   0.154  0.00  0.00    +0.000 A 
ATOM      5  C   UNL     1       7.411   1.302   1.254  0.00  0.00    +0.000 A 
ATOM      6  C   UNL     1       6.717   0.669   2.282  0.00  0.00    +0.000 A 
ATOM      7  C   UNL     1       5.328   0.527   2.210  0.00  0.00    +0.000 A 
ENDBRANCH   1   2
BRANCH   1   9
ATOM      8  C   UNL     1       0.838   0.810   2.201  0.00  0.00    +0.000 C 
ATOM      9  C   UNL     1       2.353   0.718   2.321  0.00  0.00    +0.000 C 
ENDBRANCH   1   9
BRANCH   1  10
ATOM     10  C   UNL     1       2.685  -0.149  -0.105  0.00  0.00    +0.000 C 
BRANCH  10  11
ATOM     11  C   UNL     1       2.934  -1.627   0.238  0.00  0.00    +0.000 C 
ATOM     12  C   UNL     1       4.331  -2.109  -0.073  0.00  0.00    +0.000 C 
ATOM     13  C   UNL     1       4.291  -3.096  -0.981  0.00  0.00    +0.000 C 
ATOM     14  C   UNL     1       2.923  -3.359  -1.342  0.00  0.00    +0.000 C 
ATOM     15  C   UNL     1       2.118  -2.535  -0.658  0.00  0.00    +0.000 C 
ENDBRANCH  10  11
ENDBRANCH   1  10
TORSDOF 4
