REMARK  Name = *****
REMARK  3 active torsions:
REMARK  status: ('A' for Active; 'I' for Inactive)
REMARK    1  A    between atoms: C_5  and  C_7
REMARK    2  A    between atoms: C_7  and  S_8
REMARK    3  A    between atoms: S_8  and  C_9
REMARK                            x       y       z     vdW  Elec       q    Type
REMARK                         _______ _______ _______ _____ _____    ______ ____
ROOT
ATOM      1  C   UNL     1       0.053   2.362  -0.017  0.00  0.00    +0.000 C 
ENDROOT
BRANCH   1   6
ATOM      2  C   UNL     1       1.708  -0.704   1.521  0.00  0.00    +0.000 A 
ATOM      3  C   UNL     1       2.175  -1.390   0.404  0.00  0.00    +0.000 A 
ATOM      4  C   UNL     1       1.960  -0.868  -0.870  0.00  0.00    +0.000 A 
ATOM      5  C   UNL     1       1.278   0.344  -1.034  0.00  0.00    +0.000 A 
ATOM      6  C   UNL     1       0.809   1.055   0.083  0.00  0.00    +0.000 A 
ATOM      7  C   UNL     1       1.029   0.506   1.362  0.00  0.00    +0.000 A 
ATOM      8 BR   UNL     1       1.026   0.956  -2.815  0.00  0.00    +0.000 Br
ENDBRANCH   1   6
BRANCH   1   9
ATOM      9  S   UNL     1      -1.740   2.069  -0.188  0.00  0.00    +0.000 S 
BRANCH   9  10
ATOM     10  C   UNL     1      -2.454   3.711  -0.202  0.00  0.00    +0.000 A 
ATOM     11  C   UNL     1      -3.856   3.762  -0.279  0.00  0.00    +0.000 A 
ATOM     12  C   UNL     1      -4.538   4.984  -0.296  0.00  0.00    +0.000 A 
ATOM     13  C   UNL     1      -3.829   6.179  -0.239  0.00  0.00    +0.000 A 
ATOM     14  C   UNL     1      -2.439   6.150  -0.165  0.00  0.00    +0.000 A 
ATOM     15  C   UNL     1      -1.763   4.928  -0.147  0.00  0.00    +0.000 A 
ATOM     16  F   UNL     1      -0.426   4.975  -0.073  0.00  0.00    +0.000 F 
ENDBRANCH   9  10
ENDBRANCH   1   9
TORSDOF 3
