REMARK  Name = *****
REMARK  5 active torsions:
REMARK  status: ('A' for Active; 'I' for Inactive)
REMARK    1  A    between atoms: C_1  and  C_2
REMARK    2  A    between atoms: C_5  and  C_8
REMARK    3  A    between atoms: C_8  and  O_10
REMARK    4  A    between atoms: O_10  and  C_11
REMARK    5  A    between atoms: C_11  and  C_12
REMARK                            x       y       z     vdW  Elec       q    Type
REMARK                         _______ _______ _______ _____ _____    ______ ____
ROOT
ATOM      1  C   UNL     1      -3.284   2.270  -1.330  0.00  0.00    +0.000 C 
ATOM      2  O   UNL     1      -3.679   2.045  -2.463  0.00  0.00    +0.000 OA
ENDROOT
BRANCH   1   7
ATOM      3  C   UNL     1       1.854   4.781  -0.344  0.00  0.00    +0.000 C 
ATOM      4  C   UNL     1       0.512   4.155  -0.585  0.00  0.00    +0.000 A 
ATOM      5  C   UNL     1       0.062   3.924  -1.890  0.00  0.00    +0.000 A 
ATOM      6  C   UNL     1      -1.175   3.312  -2.114  0.00  0.00    +0.000 A 
ATOM      7  C   UNL     1      -1.974   2.914  -1.035  0.00  0.00    +0.000 A 
ATOM      8  C   UNL     1      -1.518   3.129   0.271  0.00  0.00    +0.000 A 
ATOM      9  C   UNL     1      -0.281   3.742   0.493  0.00  0.00    +0.000 A 
ENDBRANCH   1   7
BRANCH   1  10
ATOM     10  O   UNL     1      -3.950   2.000  -0.181  0.00  0.00    +0.000 OA
BRANCH  10  11
ATOM     11  C   UNL     1      -5.252   1.414  -0.305  0.00  0.00    +0.000 C 
BRANCH  11  12
ATOM     12  C   UNL     1      -6.383   2.380   0.055  0.00  0.00    +0.000 C 
ATOM     13  C   UNL     1      -6.415   3.717  -0.752  0.00  0.00    +0.000 C 
ATOM     14  C   UNL     1      -6.579   4.783   0.355  0.00  0.00    +0.000 C 
ATOM     15  C   UNL     1      -7.430   4.034   1.384  0.00  0.00    +0.000 C 
ATOM     16  C   UNL     1      -6.419   2.886   1.525  0.00  0.00    +0.000 C 
ATOM     17  C   UNL     1      -5.195   3.712   1.843  0.00  0.00    +0.000 C 
ATOM     18  C   UNL     1      -5.284   4.845   1.131  0.00  0.00    +0.000 C 
ENDBRANCH  11  12
ENDBRANCH  10  11
ENDBRANCH   1  10
TORSDOF 4
