REMARK  Name = *****
REMARK  3 active torsions:
REMARK  status: ('A' for Active; 'I' for Inactive)
REMARK    1  A    between atoms: C_1  and  C_2
REMARK    2  A    between atoms: C_9  and  C_11
REMARK    3  A    between atoms: C_14  and  C_17
REMARK                            x       y       z     vdW  Elec       q    Type
REMARK                         _______ _______ _______ _____ _____    ______ ____
ROOT
ATOM      1  C   UNL     1       0.999  -0.080  -0.039  0.00  0.00    +0.000 C 
ATOM      2  C   UNL     1       2.500  -0.007  -0.006  0.00  0.00    +0.000 A 
ATOM      3  C   UNL     1       3.267  -1.180  -0.109  0.00  0.00    +0.000 A 
ATOM      4  C   UNL     1       4.647  -1.012  -0.086  0.00  0.00    +0.000 A 
ATOM      5  C   UNL     1       5.293   0.207   0.028  0.00  0.00    +0.000 A 
ATOM      6  C   UNL     1       4.526   1.373   0.128  0.00  0.00    +0.000 A 
ATOM      7  C   UNL     1       3.127   1.248   0.107  0.00  0.00    +0.000 A 
ATOM      8  N   UNL     1       6.651   0.017   0.014  0.00  0.00    +0.000 NA
ATOM      9  C   UNL     1       6.785  -1.292  -0.112  0.00  0.00    +0.000 A 
ATOM     10  O   UNL     1       5.599  -1.983  -0.175  0.00  0.00    +0.000 OA
ENDROOT
BRANCH   9  11
ATOM     11  C   UNL     1       8.011  -2.083  -0.208  0.00  0.00    +0.000 A 
ATOM     12  C   UNL     1       9.256  -1.441  -0.143  0.00  0.00    +0.000 A 
ATOM     13  C   UNL     1      10.446  -2.168  -0.249  0.00  0.00    +0.000 A 
ATOM     14  C   UNL     1      10.418  -3.556  -0.431  0.00  0.00    +0.000 A 
ATOM     15  C   UNL     1       9.177  -4.205  -0.480  0.00  0.00    +0.000 A 
ATOM     16  C   UNL     1       7.987  -3.475  -0.372  0.00  0.00    +0.000 A 
BRANCH  14  17
ATOM     17  C   UNL     1      11.696  -4.339  -0.544  0.00  0.00    +0.000 C 
ATOM     18 CL   UNL     1      12.240  -4.880   1.055  0.00  0.00    +0.000 Cl
ENDBRANCH  14  17
ENDBRANCH   9  11
TORSDOF 2
