REMARK  Name = *****
REMARK  4 active torsions:
REMARK  status: ('A' for Active; 'I' for Inactive)
REMARK    1  A    between atoms: C_1  and  C_2
REMARK    2  A    between atoms: C_3  and  C_9
REMARK    3  A    between atoms: C_4  and  C_8
REMARK    4  A    between atoms: C_10  and  C_11
REMARK                            x       y       z     vdW  Elec       q    Type
REMARK                         _______ _______ _______ _____ _____    ______ ____
ROOT
ATOM      1  C   UNL     1       0.844  -0.018   0.140  0.00  0.00    +0.000 C 
ATOM      2  C   UNL     1       2.350  -0.040   0.113  0.00  0.00    +0.000 A 
ATOM      3  C   UNL     1       3.078  -1.248   0.126  0.00  0.00    +0.000 A 
ATOM      4  C   UNL     1       4.488  -1.229   0.066  0.00  0.00    +0.000 A 
ATOM      5  C   UNL     1       5.153   0.005   0.001  0.00  0.00    +0.000 A 
ATOM      6  C   UNL     1       4.436   1.198  -0.024  0.00  0.00    +0.000 A 
ATOM      7  C   UNL     1       3.044   1.176   0.025  0.00  0.00    +0.000 A 
ATOM      8  C   UNL     1       5.300  -2.496   0.104  0.00  0.00    +0.000 C 
ENDROOT
BRANCH   3   9
ATOM      9  C   UNL     1       2.383  -2.503   0.205  0.00  0.00    +0.000 C 
ATOM     10  C   UNL     1       1.799  -3.551   0.277  0.00  0.00    +0.000 C 
BRANCH  10  11
ATOM     11  C   UNL     1       1.109  -4.797   0.372  0.00  0.00    +0.000 A 
ATOM     12  C   UNL     1       1.803  -5.996   0.443  0.00  0.00    +0.000 A 
ATOM     13  C   UNL     1       1.068  -7.175   0.538  0.00  0.00    +0.000 A 
ATOM     14  C   UNL     1      -0.321  -7.110   0.559  0.00  0.00    +0.000 A 
ATOM     15  C   UNL     1      -0.922  -5.863   0.482  0.00  0.00    +0.000 A 
ATOM     16  N   UNL     1      -0.238  -4.703   0.389  0.00  0.00    +0.000 NA
ENDBRANCH  10  11
ENDBRANCH   3   9
TORSDOF 2
