REMARK  Name = *****
REMARK  2 active torsions:
REMARK  status: ('A' for Active; 'I' for Inactive)
REMARK    1  A    between atoms: C_4  and  C_6
REMARK    2  A    between atoms: C_7  and  C_8
REMARK                            x       y       z     vdW  Elec       q    Type
REMARK                         _______ _______ _______ _____ _____    ______ ____
ROOT
ATOM      1  C   UNL     1      -0.139  -2.670  -0.059  0.00  0.00    +0.000 C 
ATOM      2  C   UNL     1       0.766  -3.663  -0.011  0.00  0.00    +0.000 C 
ENDROOT
BRANCH   1   6
ATOM      3  C   UNL     1       1.373   0.762   0.040  0.00  0.00    +0.000 A 
ATOM      4  C   UNL     1       0.071   1.195  -0.041  0.00  0.00    +0.000 A 
ATOM      5  S   UNL     1      -1.032  -0.105  -0.110  0.00  0.00    +0.000 S 
ATOM      6  C   UNL     1       0.227  -1.289  -0.034  0.00  0.00    +0.000 A 
ATOM      7  C   UNL     1       1.461  -0.661   0.044  0.00  0.00    +0.000 A 
ENDBRANCH   1   6
BRANCH   2   8
ATOM      8  C   UNL     1       0.488  -5.073  -0.034  0.00  0.00    +0.000 A 
ATOM      9  C   UNL     1      -0.767  -5.644  -0.095  0.00  0.00    +0.000 A 
ATOM     10  S   UNL     1      -0.709  -7.357  -0.105  0.00  0.00    +0.000 S 
ATOM     11  C   UNL     1       0.998  -7.353  -0.027  0.00  0.00    +0.000 A 
ATOM     12  C   UNL     1       1.510  -6.074   0.007  0.00  0.00    +0.000 A 
ENDBRANCH   2   8
TORSDOF 2
