REMARK  Name = *****
REMARK  2 active torsions:
REMARK  status: ('A' for Active; 'I' for Inactive)
REMARK    1  A    between atoms: C_4  and  C_7
REMARK    2  A    between atoms: N_8  and  C_9
REMARK                            x       y       z     vdW  Elec       q    Type
REMARK                         _______ _______ _______ _____ _____    ______ ____
ROOT
ATOM      1  C   UNL     1      -2.902   0.287  -0.185  0.00  0.00    +0.000 C 
ATOM      2  N   UNL     1      -3.653  -0.589  -0.777  0.00  0.00    +0.000 NA
ENDROOT
BRANCH   2   3
ATOM      3  C   UNL     1      -5.023  -0.306  -0.810  0.00  0.00    +0.000 A 
ATOM      4  C   UNL     1      -5.557   0.495  -1.822  0.00  0.00    +0.000 A 
ATOM      5  C   UNL     1      -6.930   0.758  -1.865  0.00  0.00    +0.000 A 
ATOM      6  C   UNL     1      -7.777   0.207  -0.896  0.00  0.00    +0.000 A 
ATOM      7  C   UNL     1      -7.246  -0.608   0.107  0.00  0.00    +0.000 A 
ATOM      8  C   UNL     1      -5.874  -0.866   0.145  0.00  0.00    +0.000 A 
ATOM      9 CL   UNL     1      -9.481   0.490  -0.884  0.00  0.00    +0.000 Cl
ATOM     10 CL   UNL     1      -7.515   1.770  -3.138  0.00  0.00    +0.000 Cl
ENDBRANCH   2   3
BRANCH   1  14
ATOM     11  C   UNL     1       1.324  -0.157   0.153  0.00  0.00    +0.000 A 
ATOM     12  C   UNL     1       0.577  -1.145  -0.489  0.00  0.00    +0.000 A 
ATOM     13  C   UNL     1      -0.807  -1.009  -0.605  0.00  0.00    +0.000 A 
ATOM     14  C   UNL     1      -1.440   0.119  -0.076  0.00  0.00    +0.000 A 
ATOM     15  C   UNL     1      -0.694   1.110   0.569  0.00  0.00    +0.000 A 
ATOM     16  C   UNL     1       0.690   0.969   0.681  0.00  0.00    +0.000 A 
ENDBRANCH   1  14
TORSDOF 2
