REMARK  Name = *****
REMARK  6 active torsions:
REMARK  status: ('A' for Active; 'I' for Inactive)
REMARK    1  A    between atoms: C_1  and  C_2
REMARK    2  A    between atoms: C_4  and  C_19
REMARK    3  A    between atoms: C_5  and  C_8
REMARK    4  A    between atoms: C_8  and  C_9
REMARK    5  A    between atoms: C_9  and  C_10
REMARK    6  A    between atoms: C_10  and  C_12
REMARK                            x       y       z     vdW  Elec       q    Type
REMARK                         _______ _______ _______ _____ _____    ______ ____
ROOT
ATOM      1  C   UNL     1      -2.266  -3.396   0.448  0.00  0.00    +0.000 C 
ENDROOT
BRANCH   1   2
ATOM      2  C   UNL     1      -3.586  -4.089   0.724  0.00  0.00    +0.000 C 
ATOM      3  O   UNL     1      -4.665  -3.584   0.411  0.00  0.00    +0.000 OA
BRANCH   2   4
ATOM      4  C   UNL     1      -3.592  -5.419   1.399  0.00  0.00    +0.000 A 
ATOM      5  C   UNL     1      -4.825  -5.949   1.812  0.00  0.00    +0.000 A 
ATOM      6  C   UNL     1      -4.889  -7.189   2.453  0.00  0.00    +0.000 A 
ATOM      7  C   UNL     1      -3.722  -7.915   2.686  0.00  0.00    +0.000 A 
ATOM      8  C   UNL     1      -2.494  -7.400   2.276  0.00  0.00    +0.000 A 
ATOM      9  C   UNL     1      -2.434  -6.161   1.637  0.00  0.00    +0.000 A 
ATOM     10  F   UNL     1      -1.227  -5.722   1.254  0.00  0.00    +0.000 F 
ENDBRANCH   2   4
ENDBRANCH   1   2
BRANCH   1  11
ATOM     11  C   UNL     1      -2.475  -1.970  -0.067  0.00  0.00    +0.000 C 
BRANCH  11  16
ATOM     12  C   UNL     1       2.650   0.641  -1.051  0.00  0.00    +0.000 C 
ATOM     13  C   UNL     1       1.318  -0.000  -0.797  0.00  0.00    +0.000 A 
ATOM     14  C   UNL     1       0.681   0.153   0.441  0.00  0.00    +0.000 A 
ATOM     15  C   UNL     1      -0.551  -0.468   0.713  0.00  0.00    +0.000 A 
ATOM     16  C   UNL     1      -1.157  -1.258  -0.284  0.00  0.00    +0.000 A 
ATOM     17  C   UNL     1      -0.503  -1.424  -1.516  0.00  0.00    +0.000 A 
ATOM     18  C   UNL     1       0.723  -0.806  -1.768  0.00  0.00    +0.000 A 
ATOM     19  C   UNL     1      -1.195  -0.244   2.054  0.00  0.00    +0.000 C 
ENDBRANCH  11  16
ENDBRANCH   1  11
TORSDOF 4
