REMARK  Name = *****
REMARK  4 active torsions:
REMARK  status: ('A' for Active; 'I' for Inactive)
REMARK    1  A    between atoms: C_4  and  C_7
REMARK    2  A    between atoms: C_7  and  N_8
REMARK    3  A    between atoms: N_8  and  N_9
REMARK    4  A    between atoms: N_8  and  N_11
REMARK                            x       y       z     vdW  Elec       q    Type
REMARK                         _______ _______ _______ _____ _____    ______ ____
ROOT
ATOM      1  N   UNL     1      -3.847  -1.900  -0.486  0.00  0.00    +0.000 N 
ENDROOT
BRANCH   1   2
ATOM      2  N   UNL     1      -5.171  -2.000  -1.056  0.00  0.00    +0.000 N 
ATOM      3  C   UNL     1      -6.225  -2.642  -0.434  0.00  0.00    +0.000 A 
ATOM      4  C   UNL     1      -6.338  -3.386   0.748  0.00  0.00    +0.000 A 
ATOM      5  C   UNL     1      -7.606  -3.894   1.053  0.00  0.00    +0.000 A 
ATOM      6  C   UNL     1      -8.700  -3.665   0.215  0.00  0.00    +0.000 A 
ATOM      7  C   UNL     1      -8.561  -2.917  -0.962  0.00  0.00    +0.000 A 
ATOM      8  C   UNL     1      -7.297  -2.401  -1.282  0.00  0.00    +0.000 A 
ATOM      9  N   UNL     1      -6.888  -1.644  -2.343  0.00  0.00    +0.000 NA
ATOM     10  N   UNL     1      -5.594  -1.394  -2.196  0.00  0.00    +0.000 NA
ENDBRANCH   1   2
BRANCH   1  11
ATOM     11  N   UNL     1      -2.959  -2.606  -1.153  0.00  0.00    +0.000 NA
ATOM     12  O   UNL     1      -3.144  -3.817  -0.987  0.00  0.00    +0.000 OA
ENDBRANCH   1  11
BRANCH   1  13
ATOM     13  C   UNL     1      -3.494  -0.479  -0.347  0.00  0.00    +0.000 C 
BRANCH  13  17
ATOM     14  C   UNL     1      -0.163   0.192   2.325  0.00  0.00    +0.000 A 
ATOM     15  C   UNL     1      -0.016   0.416   0.958  0.00  0.00    +0.000 A 
ATOM     16  C   UNL     1      -1.090   0.199   0.093  0.00  0.00    +0.000 A 
ATOM     17  C   UNL     1      -2.324  -0.242   0.591  0.00  0.00    +0.000 A 
ATOM     18  C   UNL     1      -2.461  -0.466   1.970  0.00  0.00    +0.000 A 
ATOM     19  C   UNL     1      -1.384  -0.249   2.831  0.00  0.00    +0.000 A 
ENDBRANCH  13  17
ENDBRANCH   1  13
TORSDOF 4
