REMARK  Name = *****
REMARK  5 active torsions:
REMARK  status: ('A' for Active; 'I' for Inactive)
REMARK    1  A    between atoms: C_1  and  O_2
REMARK    2  A    between atoms: O_2  and  C_3
REMARK    3  A    between atoms: C_6  and  N_9
REMARK    4  A    between atoms: N_9  and  S_10
REMARK    5  A    between atoms: S_10  and  C_11
REMARK                            x       y       z     vdW  Elec       q    Type
REMARK                         _______ _______ _______ _____ _____    ______ ____
ROOT
ATOM      1  N   UNL     1       5.394  -4.617   0.550  0.00  0.00    +0.000 N 
ATOM      2  H   UNL     1       5.971  -4.785   1.329  0.00  0.00    +0.000 HD
ENDROOT
BRANCH   1   6
ATOM      3  C   UNL     1       3.157  -1.007   0.595  0.00  0.00    +0.000 A 
ATOM      4  C   UNL     1       2.767  -2.046  -0.246  0.00  0.00    +0.000 A 
ATOM      5  C   UNL     1       3.499  -3.242  -0.279  0.00  0.00    +0.000 A 
ATOM      6  C   UNL     1       4.646  -3.419   0.507  0.00  0.00    +0.000 A 
ATOM      7  C   UNL     1       5.005  -2.374   1.371  0.00  0.00    +0.000 A 
ATOM      8  C   UNL     1       4.277  -1.180   1.406  0.00  0.00    +0.000 A 
BRANCH   3  10
ATOM      9  C   UNL     1       1.378   0.419  -0.072  0.00  0.00    +0.000 C 
ATOM     10  O   UNL     1       2.536   0.204   0.724  0.00  0.00    +0.000 OA
ENDBRANCH   3  10
ENDBRANCH   1   6
BRANCH   1  11
ATOM     11  S   UNL     1       5.340  -5.758  -0.664  0.00  0.00    +0.000 S 
BRANCH  11  12
ATOM     12  C   UNL     1       6.895  -5.415  -1.473  0.00  0.00    +0.000 A 
ATOM     13  C   UNL     1       7.163  -4.159  -2.029  0.00  0.00    +0.000 A 
ATOM     14  C   UNL     1       8.385  -3.912  -2.657  0.00  0.00    +0.000 A 
ATOM     15  C   UNL     1       9.344  -4.921  -2.739  0.00  0.00    +0.000 A 
ATOM     16  C   UNL     1       9.081  -6.177  -2.195  0.00  0.00    +0.000 A 
ATOM     17  C   UNL     1       7.859  -6.424  -1.566  0.00  0.00    +0.000 A 
ENDBRANCH  11  12
ENDBRANCH   1  11
TORSDOF 4
