REMARK  Name = *****
REMARK  3 active torsions:
REMARK  status: ('A' for Active; 'I' for Inactive)
REMARK    1  A    between atoms: C_1  and  C_2
REMARK    2  A    between atoms: C_4  and  C_10
REMARK    3  A    between atoms: N_12  and  C_13
REMARK                            x       y       z     vdW  Elec       q    Type
REMARK                         _______ _______ _______ _____ _____    ______ ____
ROOT
ATOM      1  C   UNL     1       5.507  -2.276   0.087  0.00  0.00    +0.000 C 
ATOM      2  O   UNL     1       6.673  -2.016   0.364  0.00  0.00    +0.000 OA
ATOM      3  N   UNL     1       4.995  -3.543  -0.125  0.00  0.00    +0.000 N 
ATOM      4  H   UNL     1       4.035  -3.594  -0.339  0.00  0.00    +0.000 HD
ENDROOT
BRANCH   1   8
ATOM      5  C   UNL     1       4.722   2.669   0.322  0.00  0.00    +0.000 C 
ATOM      6  C   UNL     1       4.192   1.290   0.063  0.00  0.00    +0.000 A 
ATOM      7  C   UNL     1       5.035   0.171   0.171  0.00  0.00    +0.000 A 
ATOM      8  C   UNL     1       4.549  -1.134  -0.036  0.00  0.00    +0.000 A 
ATOM      9  C   UNL     1       3.199  -1.300  -0.343  0.00  0.00    +0.000 A 
ATOM     10  C   UNL     1       2.358  -0.196  -0.437  0.00  0.00    +0.000 A 
ATOM     11  C   UNL     1       2.839   1.093  -0.232  0.00  0.00    +0.000 A 
ATOM     12  F   UNL     1       1.060  -0.370  -0.725  0.00  0.00    +0.000 F 
ATOM     13  F   UNL     1       2.681  -2.522  -0.550  0.00  0.00    +0.000 F 
ENDBRANCH   1   8
BRANCH   3  14
ATOM     14  C   UNL     1       5.686  -4.773  -0.070  0.00  0.00    +0.000 A 
ATOM     15  C   UNL     1       7.045  -4.898   0.217  0.00  0.00    +0.000 A 
ATOM     16  C   UNL     1       7.633  -6.161   0.246  0.00  0.00    +0.000 A 
ATOM     17  C   UNL     1       6.893  -7.310  -0.005  0.00  0.00    +0.000 A 
ATOM     18  C   UNL     1       5.537  -7.197  -0.291  0.00  0.00    +0.000 A 
ATOM     19  C   UNL     1       4.937  -5.934  -0.323  0.00  0.00    +0.000 A 
ATOM     20  F   UNL     1       8.940  -6.273   0.522  0.00  0.00    +0.000 F 
ENDBRANCH   3  14
TORSDOF 2
