REMARK  Name = *****
REMARK  1 active torsions:
REMARK  status: ('A' for Active; 'I' for Inactive)
REMARK    1  A    between atoms: C_8  and  C_10
REMARK                            x       y       z     vdW  Elec       q    Type
REMARK                         _______ _______ _______ _____ _____    ______ ____
ROOT
ATOM      1  C   UNL     1      -2.627  -0.370  -0.070  0.00  0.00    +0.000 A 
ATOM      2  C   UNL     1      -2.331   0.980   0.059  0.00  0.00    +0.000 A 
ATOM      3  C   UNL     1      -1.005   1.412   0.138  0.00  0.00    +0.000 A 
ATOM      4  C   UNL     1       0.028   0.455   0.084  0.00  0.00    +0.000 A 
ATOM      5  C   UNL     1      -0.245  -0.907  -0.048  0.00  0.00    +0.000 A 
ATOM      6  C   UNL     1      -1.598  -1.315  -0.124  0.00  0.00    +0.000 A 
ATOM      7  C   UNL     1       0.966  -1.676  -0.083  0.00  0.00    +0.000 A 
ATOM      8  C   UNL     1       2.113  -0.911   0.014  0.00  0.00    +0.000 A 
ATOM      9  S   UNL     1       1.720   0.749   0.166  0.00  0.00    +0.000 S 
ENDROOT
BRANCH   8  10
ATOM     10  C   UNL     1       3.514  -1.357   0.031  0.00  0.00    +0.000 A 
ATOM     11  C   UNL     1       4.518  -0.664  -0.667  0.00  0.00    +0.000 A 
ATOM     12  C   UNL     1       5.842  -1.113  -0.647  0.00  0.00    +0.000 A 
ATOM     13  C   UNL     1       6.167  -2.259   0.067  0.00  0.00    +0.000 A 
ATOM     14  C   UNL     1       5.194  -2.966   0.761  0.00  0.00    +0.000 A 
ATOM     15  C   UNL     1       3.871  -2.517   0.742  0.00  0.00    +0.000 A 
ATOM     16  F   UNL     1       7.435  -2.689   0.085  0.00  0.00    +0.000 F 
ENDBRANCH   8  10
TORSDOF 1
