REMARK  Name = *****
REMARK  4 active torsions:
REMARK  status: ('A' for Active; 'I' for Inactive)
REMARK    1  A    between atoms: C_4  and  O_6
REMARK    2  A    between atoms: O_6  and  C_7
REMARK    3  A    between atoms: C_7  and  C_8
REMARK    4  A    between atoms: C_9  and  S_15
REMARK                            x       y       z     vdW  Elec       q    Type
REMARK                         _______ _______ _______ _____ _____    ______ ____
ROOT
ATOM      1  C   UNL     1      -2.943   1.619   3.132  0.00  0.00    +0.000 A 
ATOM      2  C   UNL     1      -2.654   2.915   3.609  0.00  0.00    +0.000 A 
ATOM      3  C   UNL     1      -2.865   3.227   4.961  0.00  0.00    +0.000 A 
ATOM      4  C   UNL     1      -3.338   2.259   5.848  0.00  0.00    +0.000 A 
ATOM      5  C   UNL     1      -3.598   0.979   5.381  0.00  0.00    +0.000 A 
ATOM      6  C   UNL     1      -3.405   0.652   4.043  0.00  0.00    +0.000 A 
ATOM      7  F   UNL     1      -4.041   0.044   6.231  0.00  0.00    +0.000 F 
ENDROOT
BRANCH   2   8
ATOM      8  S   UNL     1      -2.009   4.212   2.560  0.00  0.00    +0.000 S 
ATOM      9  H   UNL     1      -1.866   3.741   1.292  0.00  0.00    +0.000 HD
ENDBRANCH   2   8
BRANCH   1  10
ATOM     10  C   UNL     1      -2.747   1.220   1.692  0.00  0.00    +0.000 C 
BRANCH  10  11
ATOM     11  O   UNL     1      -1.350   1.040   1.468  0.00  0.00    +0.000 OA
BRANCH  11  15
ATOM     12  C   UNL     1       1.052  -0.477   0.315  0.00  0.00    +0.000 C 
ATOM     13  C   UNL     1       0.074  -1.463  -0.299  0.00  0.00    +0.000 C 
ATOM     14  C   UNL     1      -1.298  -0.812  -0.126  0.00  0.00    +0.000 C 
ATOM     15  C   UNL     1      -1.041   0.682   0.120  0.00  0.00    +0.000 C 
ATOM     16  C   UNL     1       0.464   0.869  -0.079  0.00  0.00    +0.000 C 
ENDBRANCH  11  15
ENDBRANCH  10  11
ENDBRANCH   1  10
TORSDOF 4
