REMARK  Name = *****
REMARK  6 active torsions:
REMARK  status: ('A' for Active; 'I' for Inactive)
REMARK    1  A    between atoms: C_1  and  C_2
REMARK    2  A    between atoms: C_5  and  C_8
REMARK    3  A    between atoms: C_9  and  C_10
REMARK    4  A    between atoms: C_15  and  C_16
REMARK    5  A    between atoms: C_16  and  O_18
REMARK    6  A    between atoms: O_18  and  C_19
REMARK                            x       y       z     vdW  Elec       q    Type
REMARK                         _______ _______ _______ _____ _____    ______ ____
ROOT
ATOM      1  C   UNL     1       9.374   0.162  -1.315  0.00  0.00    +0.000 A 
ATOM      2  C   UNL     1      10.024   1.393  -1.485  0.00  0.00    +0.000 A 
ATOM      3  C   UNL     1      11.398   1.443  -1.732  0.00  0.00    +0.000 A 
ATOM      4  C   UNL     1      12.138   0.265  -1.804  0.00  0.00    +0.000 A 
ATOM      5  C   UNL     1      11.503  -0.965  -1.639  0.00  0.00    +0.000 A 
ATOM      6  C   UNL     1      10.118  -1.024  -1.410  0.00  0.00    +0.000 A 
ENDROOT
BRANCH   1   8
ATOM      7  C   UNL     1       6.799   0.190  -0.756  0.00  0.00    +0.000 C 
ATOM      8  C   UNL     1       7.973   0.179  -1.010  0.00  0.00    +0.000 C 
BRANCH   7  13
ATOM      9  C   UNL     1       1.181   0.157   0.400  0.00  0.00    +0.000 C 
ATOM     10  C   UNL     1       2.656   0.170   0.127  0.00  0.00    +0.000 A 
ATOM     11  C   UNL     1       3.315   1.373  -0.153  0.00  0.00    +0.000 A 
ATOM     12  C   UNL     1       4.683   1.381  -0.440  0.00  0.00    +0.000 A 
ATOM     13  C   UNL     1       5.401   0.185  -0.459  0.00  0.00    +0.000 A 
ATOM     14  C   UNL     1       4.748  -1.020  -0.195  0.00  0.00    +0.000 A 
ATOM     15  C   UNL     1       3.380  -1.028   0.091  0.00  0.00    +0.000 A 
ENDBRANCH   7  13
ENDBRANCH   1   8
BRANCH   6  16
ATOM     16  C   UNL     1       9.530  -2.372  -1.248  0.00  0.00    +0.000 C 
ATOM     17  O   UNL     1      10.065  -3.264  -0.610  0.00  0.00    +0.000 OA
BRANCH  16  18
ATOM     18  O   UNL     1       8.405  -2.482  -1.995  0.00  0.00    +0.000 OA
ATOM     19  C   UNL     1       7.794  -3.770  -1.937  0.00  0.00    +0.000 C 
ENDBRANCH  16  18
ENDBRANCH   6  16
TORSDOF 4
