REMARK  Name = *****
REMARK  3 active torsions:
REMARK  status: ('A' for Active; 'I' for Inactive)
REMARK    1  A    between atoms: C_4  and  O_7
REMARK    2  A    between atoms: O_7  and  C_8
REMARK    3  A    between atoms: C_8  and  C_9
REMARK                            x       y       z     vdW  Elec       q    Type
REMARK                         _______ _______ _______ _____ _____    ______ ____
ROOT
ATOM      1  C   UNL     1      -3.904  -0.611  -0.310  0.00  0.00    +0.000 C 
ATOM      2  F   UNL     1      -4.141  -1.426   0.756  0.00  0.00    +0.000 F 
ATOM      3  F   UNL     1      -5.012   0.167  -0.464  0.00  0.00    +0.000 F 
ENDROOT
BRANCH   1   4
ATOM      4  C   UNL     1      -3.572  -1.389  -1.567  0.00  0.00    +0.000 A 
ATOM      5  C   UNL     1      -2.964  -2.653  -1.486  0.00  0.00    +0.000 A 
ATOM      6  C   UNL     1      -2.643  -3.362  -2.647  0.00  0.00    +0.000 A 
ATOM      7  C   UNL     1      -2.924  -2.810  -3.896  0.00  0.00    +0.000 A 
ATOM      8  C   UNL     1      -3.520  -1.555  -3.994  0.00  0.00    +0.000 A 
ATOM      9  C   UNL     1      -3.841  -0.845  -2.834  0.00  0.00    +0.000 A 
ATOM     10 CL   UNL     1      -2.528  -3.683  -5.324  0.00  0.00    +0.000 Cl
ENDBRANCH   1   4
BRANCH   1  11
ATOM     11  O   UNL     1      -2.787   0.228  -0.011  0.00  0.00    +0.000 OA
BRANCH  11  15
ATOM     12  C   UNL     1      -2.695   2.823   3.244  0.00  0.00    +0.000 A 
ATOM     13  C   UNL     1      -3.830   2.036   3.061  0.00  0.00    +0.000 A 
ATOM     14  C   UNL     1      -3.908   1.150   1.982  0.00  0.00    +0.000 A 
ATOM     15  C   UNL     1      -2.849   1.045   1.080  0.00  0.00    +0.000 A 
ATOM     16  C   UNL     1      -1.712   1.838   1.273  0.00  0.00    +0.000 A 
ATOM     17  C   UNL     1      -1.633   2.724   2.349  0.00  0.00    +0.000 A 
ENDBRANCH  11  15
ENDBRANCH   1  11
TORSDOF 3
