REMARK  Name = *****
REMARK  5 active torsions:
REMARK  status: ('A' for Active; 'I' for Inactive)
REMARK    1  A    between atoms: C_1  and  C_2
REMARK    2  A    between atoms: C_4  and  C_17
REMARK    3  A    between atoms: C_5  and  C_9
REMARK    4  A    between atoms: C_6  and  C_8
REMARK    5  A    between atoms: N_10  and  C_11
REMARK                            x       y       z     vdW  Elec       q    Type
REMARK                         _______ _______ _______ _____ _____    ______ ____
ROOT
ATOM      1  C   UNL     1       2.136   1.973   0.053  0.00  0.00    +0.000 C 
ATOM      2  C   UNL     1       1.056   0.933   0.005  0.00  0.00    +0.000 A 
ATOM      3  C   UNL     1       1.379  -0.426   0.058  0.00  0.00    +0.000 A 
ATOM      4  C   UNL     1       0.382  -1.418   0.040  0.00  0.00    +0.000 A 
ATOM      5  C   UNL     1      -0.974  -1.025  -0.000  0.00  0.00    +0.000 A 
ATOM      6  C   UNL     1      -1.314   0.348  -0.032  0.00  0.00    +0.000 A 
ATOM      7  C   UNL     1      -0.288   1.309  -0.031  0.00  0.00    +0.000 A 
ATOM      8  C   UNL     1      -2.739   0.832  -0.060  0.00  0.00    +0.000 C 
ATOM      9  C   UNL     1       0.822  -2.858   0.066  0.00  0.00    +0.000 C 
ENDROOT
BRANCH   5  10
ATOM     10  C   UNL     1      -2.079  -2.021  -0.020  0.00  0.00    +0.000 C 
ATOM     11  N   UNL     1      -1.970  -3.210   0.468  0.00  0.00    +0.000 NA
BRANCH  11  12
ATOM     12  C   UNL     1      -3.174  -4.043   0.356  0.00  0.00    +0.000 C 
ATOM     13  C   UNL     1      -4.060  -3.822   1.588  0.00  0.00    +0.000 C 
ATOM     14  C   UNL     1      -5.250  -4.777   1.602  0.00  0.00    +0.000 C 
ATOM     15  C   UNL     1      -4.805  -6.233   1.495  0.00  0.00    +0.000 C 
ATOM     16  C   UNL     1      -3.914  -6.462   0.277  0.00  0.00    +0.000 C 
ATOM     17  C   UNL     1      -2.724  -5.506   0.264  0.00  0.00    +0.000 C 
ENDBRANCH  11  12
ENDBRANCH   5  10
TORSDOF 2
