REMARK  Name = *****
REMARK  6 active torsions:
REMARK  status: ('A' for Active; 'I' for Inactive)
REMARK    1  A    between atoms: C_1  and  C_2
REMARK    2  A    between atoms: C_4  and  C_5
REMARK    3  A    between atoms: C_6  and  C_7
REMARK    4  A    between atoms: C_8  and  C_13
REMARK    5  A    between atoms: C_10  and  C_12
REMARK    6  A    between atoms: C_14  and  C_16
REMARK                            x       y       z     vdW  Elec       q    Type
REMARK                         _______ _______ _______ _____ _____    ______ ____
ROOT
ATOM      1  C   UNL     1       5.582  -1.428   0.101  0.00  0.00    +0.000 C 
ATOM      2  C   UNL     1       5.563  -2.879   0.048  0.00  0.00    +0.000 C 
ENDROOT
BRANCH   1   6
ATOM      3  C   UNL     1       0.899   0.268   0.145  0.00  0.00    +0.000 C 
ATOM      4  C   UNL     1       2.376   0.122   0.144  0.00  0.00    +0.000 C 
ATOM      5  C   UNL     1       3.104  -1.012   0.107  0.00  0.00    +0.000 C 
ATOM      6  C   UNL     1       4.508  -0.622   0.125  0.00  0.00    +0.000 C 
ATOM      7  C   UNL     1       4.550   0.839   0.176  0.00  0.00    +0.000 C 
ATOM      8  C   UNL     1       3.274   1.265   0.186  0.00  0.00    +0.000 C 
ATOM      9  C   UNL     1       5.780   1.671   0.208  0.00  0.00    +0.000 C 
ENDBRANCH   1   6
BRANCH   2  10
ATOM     10  C   UNL     1       6.635  -3.687   0.026  0.00  0.00    +0.000 C 
ATOM     11  C   UNL     1       6.592  -5.148  -0.030  0.00  0.00    +0.000 C 
ATOM     12  C   UNL     1       7.869  -5.575  -0.035  0.00  0.00    +0.000 C 
ATOM     13  C   UNL     1       8.764  -4.430   0.016  0.00  0.00    +0.000 C 
ATOM     14  C   UNL     1       8.036  -3.300   0.053  0.00  0.00    +0.000 C 
ATOM     15  C   UNL     1      10.241  -4.574   0.023  0.00  0.00    +0.000 C 
ATOM     16  C   UNL     1       5.362  -5.978  -0.072  0.00  0.00    +0.000 C 
ENDBRANCH   2  10
TORSDOF 2
