REMARK  Name = *****
REMARK  3 active torsions:
REMARK  status: ('A' for Active; 'I' for Inactive)
REMARK    1  A    between atoms: C_2  and  C_4
REMARK    2  A    between atoms: C_2  and  C_12
REMARK    3  A    between atoms: C_12  and  C_13
REMARK                            x       y       z     vdW  Elec       q    Type
REMARK                         _______ _______ _______ _____ _____    ______ ____
ROOT
ATOM      1  C   UNL     1      -0.439   0.619  -0.130  0.00  0.00    +0.000 C 
ATOM      2  C   UNL     1       0.654  -0.411   0.111  0.00  0.00    +0.000 C 
ATOM      3  O   UNL     1      -0.715  -0.781  -0.188  0.00  0.00    +0.000 OA
ENDROOT
BRANCH   2   4
ATOM      4  C   UNL     1       1.662  -0.697  -0.986  0.00  0.00    +0.000 A 
ATOM      5  C   UNL     1       2.521   0.301  -1.475  0.00  0.00    +0.000 A 
ATOM      6  C   UNL     1       3.461   0.053  -2.469  0.00  0.00    +0.000 A 
ATOM      7  C   UNL     1       3.553  -1.224  -2.999  0.00  0.00    +0.000 A 
ATOM      8  C   UNL     1       2.724  -2.244  -2.551  0.00  0.00    +0.000 A 
ATOM      9  C   UNL     1       1.784  -1.981  -1.551  0.00  0.00    +0.000 A 
ATOM     10  F   UNL     1       4.454  -1.479  -3.957  0.00  0.00    +0.000 F 
ATOM     11  F   UNL     1       2.435   1.542  -0.974  0.00  0.00    +0.000 F 
ENDBRANCH   2   4
BRANCH   2  12
ATOM     12  C   UNL     1       1.080  -0.721   1.544  0.00  0.00    +0.000 C 
ATOM     13  F   UNL     1       0.018  -0.530   2.385  0.00  0.00    +0.000 F 
ATOM     14  F   UNL     1       1.340  -2.064   1.617  0.00  0.00    +0.000 F 
BRANCH  12  15
ATOM     15  C   UNL     1       2.274   0.050   2.045  0.00  0.00    +0.000 A 
ATOM     16  C   UNL     1       3.575  -0.394   2.204  0.00  0.00    +0.000 A 
ATOM     17  C   UNL     1       4.442   0.625   2.693  0.00  0.00    +0.000 A 
ATOM     18  C   UNL     1       3.778   1.812   2.897  0.00  0.00    +0.000 A 
ATOM     19  S   UNL     1       2.118   1.696   2.505  0.00  0.00    +0.000 S 
ENDBRANCH  12  15
ENDBRANCH   2  12
TORSDOF 3
