REMARK  Name = *****
REMARK  3 active torsions:
REMARK  status: ('A' for Active; 'I' for Inactive)
REMARK    1  A    between atoms: C_4  and  S_7
REMARK    2  A    between atoms: S_7  and  S_8
REMARK    3  A    between atoms: S_8  and  C_9
REMARK                            x       y       z     vdW  Elec       q    Type
REMARK                         _______ _______ _______ _____ _____    ______ ____
ROOT
ATOM      1  S   UNL     1       3.582   0.094   1.014  0.00  0.00    +0.000 S 
ENDROOT
BRANCH   1   5
ATOM      2  C   UNL     1      -0.571  -0.128  -1.058  0.00  0.00    +0.000 C 
ATOM      3  C   UNL     1       0.172  -1.444  -0.863  0.00  0.00    +0.000 C 
ATOM      4  C   UNL     1       1.648  -1.222  -0.529  0.00  0.00    +0.000 C 
ATOM      5  C   UNL     1       1.818  -0.301   0.685  0.00  0.00    +0.000 C 
ATOM      6  C   UNL     1       1.068   1.023   0.477  0.00  0.00    +0.000 C 
ATOM      7  C   UNL     1      -0.406   0.788   0.150  0.00  0.00    +0.000 C 
ENDBRANCH   1   5
BRANCH   1   8
ATOM      8  S   UNL     1       4.367  -1.678   1.708  0.00  0.00    +0.000 S 
BRANCH   8   9
ATOM      9  C   UNL     1       4.972  -2.478   0.230  0.00  0.00    +0.000 A 
ATOM     10  C   UNL     1       5.846  -1.831  -0.651  0.00  0.00    +0.000 A 
ATOM     11  C   UNL     1       6.316  -2.487  -1.791  0.00  0.00    +0.000 A 
ATOM     12  C   UNL     1       5.923  -3.798  -2.053  0.00  0.00    +0.000 A 
ATOM     13  C   UNL     1       5.066  -4.457  -1.173  0.00  0.00    +0.000 A 
ATOM     14  C   UNL     1       4.597  -3.800  -0.033  0.00  0.00    +0.000 A 
ENDBRANCH   8   9
ENDBRANCH   1   8
TORSDOF 3
