REMARK  Name = *****
REMARK  3 active torsions:
REMARK  status: ('A' for Active; 'I' for Inactive)
REMARK    1  A    between atoms: C_4  and  C_7
REMARK    2  A    between atoms: C_4  and  C_15
REMARK    3  A    between atoms: C_8  and  C_9
REMARK                            x       y       z     vdW  Elec       q    Type
REMARK                         _______ _______ _______ _____ _____    ______ ____
ROOT
ATOM      1  C   UNL     1      -2.024  -0.254   0.664  0.00  0.00    +0.000 C 
ATOM      2  C   UNL     1      -1.346   1.110   0.661  0.00  0.00    +0.000 C 
ATOM      3  C   UNL     1      -0.540   1.343  -0.620  0.00  0.00    +0.000 C 
ATOM      4  C   UNL     1       0.484   0.220  -0.921  0.00  0.00    +0.000 C 
ATOM      5  C   UNL     1      -0.226  -1.157  -0.864  0.00  0.00    +0.000 C 
ATOM      6  C   UNL     1      -1.023  -1.377   0.425  0.00  0.00    +0.000 C 
ENDROOT
BRANCH   4   7
ATOM      7  C   UNL     1       1.132   0.525  -2.274  0.00  0.00    +0.000 C 
ATOM      8  C   UNL     1       1.181  -0.265  -3.360  0.00  0.00    +0.000 C 
BRANCH   8   9
ATOM      9  C   UNL     1       1.830   0.128  -4.619  0.00  0.00    +0.000 A 
ATOM     10  C   UNL     1       3.068   0.784  -4.646  0.00  0.00    +0.000 A 
ATOM     11  C   UNL     1       3.670   1.116  -5.863  0.00  0.00    +0.000 A 
ATOM     12  C   UNL     1       3.046   0.785  -7.064  0.00  0.00    +0.000 A 
ATOM     13  C   UNL     1       1.823   0.117  -7.049  0.00  0.00    +0.000 A 
ATOM     14  C   UNL     1       1.221  -0.215  -5.833  0.00  0.00    +0.000 A 
ENDBRANCH   8   9
ENDBRANCH   4   7
BRANCH   4  15
ATOM     15  C   UNL     1       1.576   0.253   0.092  0.00  0.00    +0.000 C 
ATOM     16  N   UNL     1       2.420   0.286   0.889  0.00  0.00    +0.000 NA
ENDBRANCH   4  15
TORSDOF 3
