REMARK  Name = *****
REMARK  2 active torsions:
REMARK  status: ('A' for Active; 'I' for Inactive)
REMARK    1  A    between atoms: C_4  and  C_6
REMARK    2  A    between atoms: C_8  and  C_11
REMARK                            x       y       z     vdW  Elec       q    Type
REMARK                         _______ _______ _______ _____ _____    ______ ____
ROOT
ATOM      1  C   UNL     1      -0.110  -2.186   1.019  0.00  0.00    +0.000 C 
ATOM      2  C   UNL     1      -0.089  -1.530   2.414  0.00  0.00    +0.000 C 
ATOM      3  C   UNL     1       1.324  -1.003   2.665  0.00  0.00    +0.000 C 
ATOM      4  S   UNL     1       2.409  -2.281   1.947  0.00  0.00    +0.000 S 
ATOM      5  C   UNL     1       1.082  -3.154   1.063  0.00  0.00    +0.000 C 
ENDROOT
BRANCH   1   9
ATOM      6  C   UNL     1      -1.944  -1.647  -2.067  0.00  0.00    +0.000 C 
ATOM      7  C   UNL     1      -2.073  -0.178  -1.728  0.00  0.00    +0.000 C 
ATOM      8  S   UNL     1      -1.338   0.091  -0.093  0.00  0.00    +0.000 S 
ATOM      9  C   UNL     1      -0.037  -1.203  -0.180  0.00  0.00    +0.000 C 
ATOM     10  S   UNL     1      -0.218  -2.093  -1.773  0.00  0.00    +0.000 S 
ENDBRANCH   1   9
BRANCH   3  11
ATOM     11  C   UNL     1       1.596  -0.762   4.122  0.00  0.00    +0.000 A 
ATOM     12  C   UNL     1       1.746  -1.671   5.156  0.00  0.00    +0.000 A 
ATOM     13  C   UNL     1       1.981  -1.040   6.411  0.00  0.00    +0.000 A 
ATOM     14  C   UNL     1       1.997   0.331   6.303  0.00  0.00    +0.000 A 
ATOM     15  S   UNL     1       1.729   0.851   4.698  0.00  0.00    +0.000 S 
ENDBRANCH   3  11
TORSDOF 2
