REMARK  Name = *****
REMARK  1 active torsions:
REMARK  status: ('A' for Active; 'I' for Inactive)
REMARK    1  A    between atoms: C_9  and  C_11
REMARK                            x       y       z     vdW  Elec       q    Type
REMARK                         _______ _______ _______ _____ _____    ______ ____
ROOT
ATOM      1  C   UNL     1      -1.633   0.438  -0.175  0.00  0.00    +0.000 C 
ATOM      2  C   UNL     1      -1.026  -0.919  -0.034  0.00  0.00    +0.000 C 
ATOM      3  C   UNL     1       0.274  -0.870   0.269  0.00  0.00    +0.000 C 
ATOM      4  C   UNL     1       0.772   0.533   0.409  0.00  0.00    +0.000 C 
ATOM      5  C   UNL     1      -0.469   1.405   0.089  0.00  0.00    +0.000 C 
ATOM      6  C   UNL     1      -0.004   2.210  -1.149  0.00  0.00    +0.000 C 
ATOM      7  C   UNL     1       0.903   1.228  -1.890  0.00  0.00    +0.000 C 
ATOM      8  C   UNL     1       1.795   0.978  -0.666  0.00  0.00    +0.000 C 
ATOM      9  C   UNL     1       2.263   2.417  -0.297  0.00  0.00    +0.000 C 
ATOM     10  C   UNL     1       1.024   3.266  -0.693  0.00  0.00    +0.000 C 
ENDROOT
BRANCH   9  11
ATOM     11  C   UNL     1       3.536   2.941  -0.933  0.00  0.00    +0.000 A 
ATOM     12  C   UNL     1       4.237   2.264  -1.939  0.00  0.00    +0.000 A 
ATOM     13  C   UNL     1       5.408   2.801  -2.482  0.00  0.00    +0.000 A 
ATOM     14  C   UNL     1       5.898   4.023  -2.027  0.00  0.00    +0.000 A 
ATOM     15  C   UNL     1       5.216   4.710  -1.027  0.00  0.00    +0.000 A 
ATOM     16  C   UNL     1       4.047   4.173  -0.485  0.00  0.00    +0.000 A 
ENDBRANCH   9  11
TORSDOF 1
