REMARK  Name = *****
REMARK  5 active torsions:
REMARK  status: ('A' for Active; 'I' for Inactive)
REMARK    1  A    between atoms: C_1  and  O_2
REMARK    2  A    between atoms: O_2  and  C_3
REMARK    3  A    between atoms: C_5  and  C_9
REMARK    4  A    between atoms: C_9  and  S_10
REMARK    5  A    between atoms: S_10  and  C_11
REMARK                            x       y       z     vdW  Elec       q    Type
REMARK                         _______ _______ _______ _____ _____    ______ ____
ROOT
ATOM      1  C   UNL     1       2.694  -1.091  -0.940  0.00  0.00    +0.000 C 
ATOM      2  C   UNL     1       2.395  -2.575  -0.677  0.00  0.00    +0.000 C 
ATOM      3  C   UNL     1       3.197  -3.496  -1.614  0.00  0.00    +0.000 C 
ATOM      4  C   UNL     1       4.710  -3.251  -1.428  0.00  0.00    +0.000 C 
ATOM      5  C   UNL     1       5.069  -1.798  -1.313  0.00  0.00    +0.000 C 
ATOM      6  C   UNL     1       4.162  -0.831  -1.108  0.00  0.00    +0.000 C 
ENDROOT
BRANCH   1   8
ATOM      7  C   UNL     1       0.867  -0.010   0.132  0.00  0.00    +0.000 C 
ATOM      8  O   UNL     1       2.258  -0.299   0.166  0.00  0.00    +0.000 OA
ENDBRANCH   1   8
BRANCH   3   9
ATOM      9  C   UNL     1       2.808  -4.962  -1.359  0.00  0.00    +0.000 C 
BRANCH   9  10
ATOM     10  S   UNL     1       3.539  -6.097  -2.592  0.00  0.00    +0.000 S 
BRANCH  10  11
ATOM     11  C   UNL     1       2.770  -7.627  -2.093  0.00  0.00    +0.000 A 
ATOM     12  C   UNL     1       1.992  -8.331  -3.018  0.00  0.00    +0.000 A 
ATOM     13  C   UNL     1       1.386  -9.537  -2.657  0.00  0.00    +0.000 A 
ATOM     14  C   UNL     1       1.563 -10.050  -1.374  0.00  0.00    +0.000 A 
ATOM     15  C   UNL     1       2.349  -9.361  -0.452  0.00  0.00    +0.000 A 
ATOM     16  C   UNL     1       2.955  -8.155  -0.812  0.00  0.00    +0.000 A 
ENDBRANCH  10  11
ENDBRANCH   9  10
ENDBRANCH   3   9
TORSDOF 4
