REMARK  Name = *****
REMARK  2 active torsions:
REMARK  status: ('A' for Active; 'I' for Inactive)
REMARK    1  A    between atoms: C_3  and  C_8
REMARK    2  A    between atoms: C_9  and  C_10
REMARK                            x       y       z     vdW  Elec       q    Type
REMARK                         _______ _______ _______ _____ _____    ______ ____
ROOT
ATOM      1  C   UNL     1       2.419   2.501  -0.012  0.00  0.00    +0.000 C 
ATOM      2  C   UNL     1       1.849   3.717  -0.043  0.00  0.00    +0.000 C 
ENDROOT
BRANCH   1   5
ATOM      3  C   UNL     1       1.496  -1.061   0.788  0.00  0.00    +0.000 A 
ATOM      4  C   UNL     1       2.169   0.164   0.756  0.00  0.00    +0.000 A 
ATOM      5  C   UNL     1       1.662   1.241   0.016  0.00  0.00    +0.000 A 
ATOM      6  C   UNL     1       0.481   1.061  -0.717  0.00  0.00    +0.000 A 
ATOM      7  C   UNL     1      -0.187  -0.163  -0.682  0.00  0.00    +0.000 A 
ATOM      8  C   UNL     1       0.314  -1.224   0.069  0.00  0.00    +0.000 A 
ATOM      9 CL   UNL     1      -1.641  -0.368  -1.581  0.00  0.00    +0.000 Cl
ENDBRANCH   1   5
BRANCH   2  10
ATOM     10  C   UNL     1       2.608   4.976  -0.052  0.00  0.00    +0.000 A 
ATOM     11  C   UNL     1       3.796   5.128  -0.784  0.00  0.00    +0.000 A 
ATOM     12  C   UNL     1       4.472   6.350  -0.792  0.00  0.00    +0.000 A 
ATOM     13  C   UNL     1       3.956   7.424  -0.078  0.00  0.00    +0.000 A 
ATOM     14  C   UNL     1       2.773   7.301   0.640  0.00  0.00    +0.000 A 
ATOM     15  C   UNL     1       2.097   6.079   0.649  0.00  0.00    +0.000 A 
ATOM     16  F   UNL     1       4.603   8.596  -0.088  0.00  0.00    +0.000 F 
ENDBRANCH   2  10
TORSDOF 2
