REMARK  Name = *****
REMARK  4 active torsions:
REMARK  status: ('A' for Active; 'I' for Inactive)
REMARK    1  A    between atoms: C_1  and  C_2
REMARK    2  A    between atoms: C_2  and  C_4
REMARK    3  A    between atoms: C_7  and  C_10
REMARK    4  A    between atoms: C_11  and  C_12
REMARK                            x       y       z     vdW  Elec       q    Type
REMARK                         _______ _______ _______ _____ _____    ______ ____
ROOT
ATOM      1  C   UNL     1       3.151   1.072  -0.581  0.00  0.00    +0.000 A 
ATOM      2  C   UNL     1       2.645   2.347  -0.308  0.00  0.00    +0.000 A 
ATOM      3  C   UNL     1       3.227   3.476  -0.899  0.00  0.00    +0.000 A 
ATOM      4  C   UNL     1       4.324   3.349  -1.760  0.00  0.00    +0.000 A 
ATOM      5  C   UNL     1       4.815   2.070  -2.043  0.00  0.00    +0.000 A 
ATOM      6  C   UNL     1       4.238   0.941  -1.454  0.00  0.00    +0.000 A 
ENDROOT
BRANCH   1   8
ATOM      7  C   UNL     1       1.402  -0.036   0.966  0.00  0.00    +0.000 C 
ATOM      8  C   UNL     1       2.568  -0.164   0.021  0.00  0.00    +0.000 C 
ATOM      9  O   UNL     1       3.040  -1.264  -0.259  0.00  0.00    +0.000 OA
ENDBRANCH   1   8
BRANCH   4  10
ATOM     10  C   UNL     1       4.935   4.510  -2.423  0.00  0.00    +0.000 C 
ATOM     11  C   UNL     1       5.184   5.670  -1.793  0.00  0.00    +0.000 C 
BRANCH  11  12
ATOM     12  C   UNL     1       5.784   6.787  -2.448  0.00  0.00    +0.000 A 
ATOM     13  C   UNL     1       6.161   6.980  -3.769  0.00  0.00    +0.000 A 
ATOM     14  C   UNL     1       6.734   8.263  -4.013  0.00  0.00    +0.000 A 
ATOM     15  C   UNL     1       6.782   9.027  -2.872  0.00  0.00    +0.000 A 
ATOM     16  S   UNL     1       6.140   8.203  -1.523  0.00  0.00    +0.000 S 
ENDBRANCH  11  12
ENDBRANCH   4  10
TORSDOF 3
