REMARK  Name = *****
REMARK  3 active torsions:
REMARK  status: ('A' for Active; 'I' for Inactive)
REMARK    1  A    between atoms: C_1  and  C_2
REMARK    2  A    between atoms: C_5  and  C_8
REMARK    3  A    between atoms: C_9  and  C_10
REMARK                            x       y       z     vdW  Elec       q    Type
REMARK                         _______ _______ _______ _____ _____    ______ ____
ROOT
ATOM      1  C   UNL     1       6.912   0.176  -0.771  0.00  0.00    +0.000 C 
ATOM      2  C   UNL     1       8.101   0.177  -0.945  0.00  0.00    +0.000 C 
ENDROOT
BRANCH   1   7
ATOM      3  C   UNL     1       1.230   0.167   0.021  0.00  0.00    +0.000 C 
ATOM      4  C   UNL     1       2.720   0.173  -0.158  0.00  0.00    +0.000 A 
ATOM      5  C   UNL     1       3.415   1.380  -0.302  0.00  0.00    +0.000 A 
ATOM      6  C   UNL     1       4.798   1.381  -0.501  0.00  0.00    +0.000 A 
ATOM      7  C   UNL     1       5.496   0.175  -0.568  0.00  0.00    +0.000 A 
ATOM      8  C   UNL     1       4.809  -1.033  -0.441  0.00  0.00    +0.000 A 
ATOM      9  C   UNL     1       3.425  -1.034  -0.242  0.00  0.00    +0.000 A 
ENDBRANCH   1   7
BRANCH   2  10
ATOM     10  C   UNL     1       9.561   0.184  -1.154  0.00  0.00    +0.000 C 
ATOM     11  C   UNL     1      10.021   1.501  -1.803  0.00  0.00    +0.000 C 
ATOM     12  C   UNL     1       9.797   1.508  -3.316  0.00  0.00    +0.000 C 
ATOM     13  C   UNL     1      10.512   0.337  -3.995  0.00  0.00    +0.000 C 
ATOM     14  C   UNL     1      10.383  -0.953  -3.240  0.00  0.00    +0.000 C 
ATOM     15  C   UNL     1       9.939  -1.022  -1.975  0.00  0.00    +0.000 C 
ENDBRANCH   2  10
TORSDOF 2
