REMARK  Name = *****
REMARK  3 active torsions:
REMARK  status: ('A' for Active; 'I' for Inactive)
REMARK    1  A    between atoms: C_1  and  C_2
REMARK    2  A    between atoms: C_5  and  C_8
REMARK    3  A    between atoms: C_9  and  C_10
REMARK                            x       y       z     vdW  Elec       q    Type
REMARK                         _______ _______ _______ _____ _____    ______ ____
ROOT
ATOM      1  C   UNL     1       6.795   0.026  -0.694  0.00  0.00    +0.000 C 
ATOM      2  C   UNL     1       7.976   0.007  -0.912  0.00  0.00    +0.000 C 
ENDROOT
BRANCH   1   7
ATOM      3  C   UNL     1       1.148   0.064   0.315  0.00  0.00    +0.000 C 
ATOM      4  C   UNL     1       2.629   0.058   0.080  0.00  0.00    +0.000 A 
ATOM      5  C   UNL     1       3.322   1.258  -0.122  0.00  0.00    +0.000 A 
ATOM      6  C   UNL     1       4.697   1.248  -0.373  0.00  0.00    +0.000 A 
ATOM      7  C   UNL     1       5.388   0.037  -0.436  0.00  0.00    +0.000 A 
ATOM      8  C   UNL     1       4.702  -1.164  -0.251  0.00  0.00    +0.000 A 
ATOM      9  C   UNL     1       3.327  -1.154   0.001  0.00  0.00    +0.000 A 
ENDBRANCH   1   7
BRANCH   2  10
ATOM     10  C   UNL     1       9.418  -0.017  -1.178  0.00  0.00    +0.000 C 
ATOM     11  C   UNL     1       9.764  -0.354  -2.642  0.00  0.00    +0.000 C 
ATOM     12  C   UNL     1      10.753  -1.527  -2.503  0.00  0.00    +0.000 C 
ATOM     13  C   UNL     1       9.970  -2.787  -2.098  0.00  0.00    +0.000 C 
ATOM     14  C   UNL     1       9.606  -2.507  -0.634  0.00  0.00    +0.000 C 
ATOM     15  C   UNL     1      10.190  -1.100  -0.391  0.00  0.00    +0.000 C 
ATOM     16  C   UNL     1      11.485  -1.180  -1.206  0.00  0.00    +0.000 C 
ENDBRANCH   2  10
TORSDOF 2
