REMARK  Name = *****
REMARK  2 active torsions:
REMARK  status: ('A' for Active; 'I' for Inactive)
REMARK    1  A    between atoms: C_3  and  C_9
REMARK    2  A    between atoms: N_10  and  C_11
REMARK                            x       y       z     vdW  Elec       q    Type
REMARK                         _______ _______ _______ _____ _____    ______ ____
ROOT
ATOM      1  C   UNL     1      -2.408  -2.083   0.195  0.00  0.00    +0.000 C 
ATOM      2  N   UNL     1      -2.615  -3.112  -0.565  0.00  0.00    +0.000 NA
ENDROOT
BRANCH   2   3
ATOM      3  C   UNL     1      -3.824  -3.813  -0.389  0.00  0.00    +0.000 A 
ATOM      4  C   UNL     1      -4.214  -4.378   0.834  0.00  0.00    +0.000 A 
ATOM      5  C   UNL     1      -5.406  -5.091   0.937  0.00  0.00    +0.000 A 
ATOM      6  C   UNL     1      -6.226  -5.266  -0.169  0.00  0.00    +0.000 A 
ATOM      7  C   UNL     1      -5.834  -4.720  -1.383  0.00  0.00    +0.000 A 
ATOM      8  C   UNL     1      -4.645  -4.004  -1.504  0.00  0.00    +0.000 A 
ATOM      9  F   UNL     1      -6.612  -4.887  -2.460  0.00  0.00    +0.000 F 
ATOM     10  F   UNL     1      -5.773  -5.617   2.114  0.00  0.00    +0.000 F 
ATOM     11  F   UNL     1      -3.442  -4.228   1.923  0.00  0.00    +0.000 F 
ENDBRANCH   2   3
BRANCH   1  14
ATOM     12  C   UNL     1       1.023  -0.892  -0.836  0.00  0.00    +0.000 A 
ATOM     13  C   UNL     1      -0.141  -1.661  -0.777  0.00  0.00    +0.000 A 
ATOM     14  C   UNL     1      -1.166  -1.296   0.103  0.00  0.00    +0.000 A 
ATOM     15  C   UNL     1      -1.020  -0.168   0.912  0.00  0.00    +0.000 A 
ATOM     16  C   UNL     1       0.137   0.601   0.856  0.00  0.00    +0.000 A 
ATOM     17  C   UNL     1       1.150   0.230  -0.020  0.00  0.00    +0.000 A 
ATOM     18  F   UNL     1       2.268   0.965  -0.081  0.00  0.00    +0.000 F 
ATOM     19  F   UNL     1      -1.996   0.196   1.756  0.00  0.00    +0.000 F 
ENDBRANCH   1  14
TORSDOF 2
