REMARK  Name = *****
REMARK  3 active torsions:
REMARK  status: ('A' for Active; 'I' for Inactive)
REMARK    1  A    between atoms: C_1  and  C_2
REMARK    2  A    between atoms: C_6  and  C_7
REMARK    3  A    between atoms: C_7  and  C_9
REMARK                            x       y       z     vdW  Elec       q    Type
REMARK                         _______ _______ _______ _____ _____    ______ ____
ROOT
ATOM      1  C   UNL     1       0.946  -0.084   0.171  0.00  0.00    +0.000 C 
ATOM      2  C   UNL     1       2.466  -0.104  -0.007  0.00  0.00    +0.000 C 
ATOM      3  C   UNL     1       2.937   0.974  -0.995  0.00  0.00    +0.000 C 
ATOM      4  C   UNL     1       2.608   0.651  -2.456  0.00  0.00    +0.000 C 
ATOM      5  C   UNL     1       3.099  -0.728  -2.833  0.00  0.00    +0.000 C 
ATOM      6  C   UNL     1       3.892  -1.026  -3.880  0.00  0.00    +0.000 C 
ATOM      7  C   UNL     1       2.631  -1.820  -1.896  0.00  0.00    +0.000 C 
ATOM      8  C   UNL     1       2.971  -1.489  -0.442  0.00  0.00    +0.000 C 
ENDROOT
BRANCH   6   9
ATOM      9  C   UNL     1       4.375  -0.060  -4.910  0.00  0.00    +0.000 C 
ATOM     10  O   UNL     1       3.705   0.900  -5.271  0.00  0.00    +0.000 OA
BRANCH   9  11
ATOM     11  C   UNL     1       5.678  -0.355  -5.567  0.00  0.00    +0.000 A 
ATOM     12  C   UNL     1       5.908   0.166  -6.848  0.00  0.00    +0.000 A 
ATOM     13  C   UNL     1       7.116  -0.080  -7.502  0.00  0.00    +0.000 A 
ATOM     14  C   UNL     1       8.105  -0.838  -6.877  0.00  0.00    +0.000 A 
ATOM     15  C   UNL     1       7.891  -1.345  -5.596  0.00  0.00    +0.000 A 
ATOM     16  C   UNL     1       6.683  -1.102  -4.938  0.00  0.00    +0.000 A 
ENDBRANCH   9  11
ENDBRANCH   6   9
TORSDOF 2
