REMARK  Name = *****
REMARK  3 active torsions:
REMARK  status: ('A' for Active; 'I' for Inactive)
REMARK    1  A    between atoms: C_2  and  O_6
REMARK    2  A    between atoms: O_6  and  C_7
REMARK    3  A    between atoms: C_7  and  C_9
REMARK                            x       y       z     vdW  Elec       q    Type
REMARK                         _______ _______ _______ _____ _____    ______ ____
ROOT
ATOM      1  C   UNL     1       0.554   4.029   0.501  0.00  0.00    +0.000 C 
ATOM      2  O   UNL     1       1.223   3.752   1.482  0.00  0.00    +0.000 OA
ENDROOT
BRANCH   1   3
ATOM      3  C   UNL     1       0.441   5.404  -0.058  0.00  0.00    +0.000 A 
ATOM      4  C   UNL     1      -0.307   5.690  -1.210  0.00  0.00    +0.000 A 
ATOM      5  C   UNL     1      -0.379   7.001  -1.693  0.00  0.00    +0.000 A 
ATOM      6  C   UNL     1       0.294   8.025  -1.028  0.00  0.00    +0.000 A 
ATOM      7  C   UNL     1       1.040   7.752   0.117  0.00  0.00    +0.000 A 
ATOM      8  C   UNL     1       1.114   6.443   0.602  0.00  0.00    +0.000 A 
ATOM      9 CL   UNL     1       0.203   9.635  -1.625  0.00  0.00    +0.000 Cl
ENDBRANCH   1   3
BRANCH   1  10
ATOM     10  O   UNL     1      -0.178   3.151  -0.228  0.00  0.00    +0.000 OA
BRANCH  10  12
ATOM     11  C   UNL     1       1.150   1.097  -0.173  0.00  0.00    +0.000 C 
ATOM     12  C   UNL     1      -0.157   1.782   0.237  0.00  0.00    +0.000 C 
ATOM     13  C   UNL     1      -1.328   1.058  -0.430  0.00  0.00    +0.000 C 
ATOM     14  S   UNL     1      -1.116  -0.712  -0.133  0.00  0.00    +0.000 S 
ATOM     15  S   UNL     1       0.926  -0.689   0.029  0.00  0.00    +0.000 S 
ENDBRANCH  10  12
ENDBRANCH   1  10
TORSDOF 3
