REMARK  Name = *****
REMARK  6 active torsions:
REMARK  status: ('A' for Active; 'I' for Inactive)
REMARK    1  A    between atoms: C_1  and  C_2
REMARK    2  A    between atoms: C_5  and  C_16
REMARK    3  A    between atoms: C_6  and  O_8
REMARK    4  A    between atoms: O_8  and  C_9
REMARK    5  A    between atoms: C_9  and  C_10
REMARK    6  A    between atoms: C_16  and  C_18
REMARK                            x       y       z     vdW  Elec       q    Type
REMARK                         _______ _______ _______ _____ _____    ______ ____
ROOT
ATOM      1  C   UNL     1       1.637   0.116   1.625  0.00  0.00    +0.000 C 
ATOM      2  C   UNL     1       1.215   0.119   0.153  0.00  0.00    +0.000 C 
ATOM      3  C   UNL     1       0.364   1.352  -0.184  0.00  0.00    +0.000 C 
ATOM      4  C   UNL     1      -1.089   1.236   0.283  0.00  0.00    +0.000 C 
ATOM      5  C   UNL     1      -1.737  -0.050  -0.257  0.00  0.00    +0.000 C 
ATOM      6  C   UNL     1      -0.949  -1.305   0.201  0.00  0.00    +0.000 C 
ATOM      7  C   UNL     1       0.513  -1.187  -0.271  0.00  0.00    +0.000 C 
ENDROOT
BRANCH   5   8
ATOM      8  C   UNL     1      -3.238  -0.104   0.029  0.00  0.00    +0.000 C 
ATOM      9  C   UNL     1      -4.134  -0.049  -0.973  0.00  0.00    +0.000 C 
ATOM     10  C   UNL     1      -3.705  -0.199   1.456  0.00  0.00    +0.000 C 
ENDBRANCH   5   8
BRANCH   6  11
ATOM     11  O   UNL     1      -0.984  -1.420   1.626  0.00  0.00    +0.000 OA
BRANCH  11  12
ATOM     12  C   UNL     1      -0.849  -2.764   2.090  0.00  0.00    +0.000 C 
BRANCH  12  13
ATOM     13  C   UNL     1      -0.774  -2.814   3.598  0.00  0.00    +0.000 A 
ATOM     14  C   UNL     1      -1.225  -1.759   4.403  0.00  0.00    +0.000 A 
ATOM     15  C   UNL     1      -1.170  -1.850   5.795  0.00  0.00    +0.000 A 
ATOM     16  C   UNL     1      -0.672  -3.001   6.401  0.00  0.00    +0.000 A 
ATOM     17  C   UNL     1      -0.230  -4.063   5.615  0.00  0.00    +0.000 A 
ATOM     18  C   UNL     1      -0.284  -3.972   4.223  0.00  0.00    +0.000 A 
ENDBRANCH  12  13
ENDBRANCH  11  12
ENDBRANCH   6  11
TORSDOF 4
