REMARK  Name = *****
REMARK  3 active torsions:
REMARK  status: ('A' for Active; 'I' for Inactive)
REMARK    1  A    between atoms: C_3  and  C_14
REMARK    2  A    between atoms: C_4  and  C_6
REMARK    3  A    between atoms: C_7  and  C_8
REMARK                            x       y       z     vdW  Elec       q    Type
REMARK                         _______ _______ _______ _____ _____    ______ ____
ROOT
ATOM      1  C   UNL     1      -1.160  -0.082  -0.124  0.00  0.00    +0.000 C 
ATOM      2  C   UNL     1      -0.306   1.157   0.132  0.00  0.00    +0.000 C 
ATOM      3  C   UNL     1       1.095   0.654  -0.090  0.00  0.00    +0.000 C 
ATOM      4  C   UNL     1       1.122  -0.689  -0.103  0.00  0.00    +0.000 C 
ATOM      5  C   UNL     1      -0.240  -1.276   0.111  0.00  0.00    +0.000 C 
ENDROOT
BRANCH   3   6
ATOM      6  C   UNL     1       2.219   1.544  -0.246  0.00  0.00    +0.000 C 
ATOM      7  C   UNL     1       2.122   2.839  -0.187  0.00  0.00    +0.000 C 
ATOM      8  O   UNL     1       2.032   4.010  -0.134  0.00  0.00    +0.000 OA
ENDBRANCH   3   6
BRANCH   4   9
ATOM      9  C   UNL     1       2.279  -1.489  -0.282  0.00  0.00    +0.000 C 
ATOM     10  C   UNL     1       3.257  -2.169  -0.436  0.00  0.00    +0.000 C 
BRANCH  10  11
ATOM     11  C   UNL     1       4.422  -2.978  -0.623  0.00  0.00    +0.000 A 
ATOM     12  C   UNL     1       5.654  -2.378  -0.899  0.00  0.00    +0.000 A 
ATOM     13  C   UNL     1       6.790  -3.168  -1.082  0.00  0.00    +0.000 A 
ATOM     14  C   UNL     1       6.697  -4.557  -0.990  0.00  0.00    +0.000 A 
ATOM     15  C   UNL     1       5.469  -5.157  -0.714  0.00  0.00    +0.000 A 
ATOM     16  C   UNL     1       4.331  -4.369  -0.530  0.00  0.00    +0.000 A 
ENDBRANCH  10  11
ENDBRANCH   4   9
TORSDOF 3
