REMARK  Name = *****
REMARK  3 active torsions:
REMARK  status: ('A' for Active; 'I' for Inactive)
REMARK    1  A    between atoms: C_1  and  C_2
REMARK    2  A    between atoms: C_4  and  S_8
REMARK    3  A    between atoms: S_8  and  N_10
REMARK                            x       y       z     vdW  Elec       q    Type
REMARK                         _______ _______ _______ _____ _____    ______ ____
ROOT
ATOM      1  S   UNL     1      -2.221   2.784  -0.546  0.00  0.00    +0.000 S 
ATOM      2  O   UNL     1      -3.327   2.637   0.463  0.00  0.00    +0.000 OA
ENDROOT
BRANCH   1   3
ATOM      3  N   UNL     1      -1.153   3.958  -0.121  0.00  0.00    +0.000 N 
ATOM      4  C   UNL     1      -1.045   4.479   1.141  0.00  0.00    +0.000 A 
ATOM      5  C   UNL     1      -0.054   5.434   1.111  0.00  0.00    +0.000 A 
ATOM      6  C   UNL     1       0.412   5.533  -0.231  0.00  0.00    +0.000 A 
ATOM      7  C   UNL     1       1.379   6.340  -0.862  0.00  0.00    +0.000 A 
ATOM      8  C   UNL     1       1.586   6.221  -2.239  0.00  0.00    +0.000 A 
ATOM      9  C   UNL     1       0.841   5.318  -2.992  0.00  0.00    +0.000 A 
ATOM     10  C   UNL     1      -0.122   4.502  -2.391  0.00  0.00    +0.000 A 
ATOM     11  C   UNL     1      -0.315   4.614  -1.001  0.00  0.00    +0.000 A 
ENDBRANCH   1   3
BRANCH   1  15
ATOM     12  C   UNL     1       1.800  -0.442  -1.834  0.00  0.00    +0.000 C 
ATOM     13  C   UNL     1       0.791  -0.006  -0.812  0.00  0.00    +0.000 A 
ATOM     14  C   UNL     1      -0.107   1.031  -1.100  0.00  0.00    +0.000 A 
ATOM     15  C   UNL     1      -1.065   1.431  -0.158  0.00  0.00    +0.000 A 
ATOM     16  C   UNL     1      -1.145   0.756   1.065  0.00  0.00    +0.000 A 
ATOM     17  C   UNL     1      -0.267  -0.289   1.351  0.00  0.00    +0.000 A 
ATOM     18  C   UNL     1       0.695  -0.670   0.416  0.00  0.00    +0.000 A 
ENDBRANCH   1  15
TORSDOF 2
