REMARK  Name = *****
REMARK  2 active torsions:
REMARK  status: ('A' for Active; 'I' for Inactive)
REMARK    1  A    between atoms: C_4  and  C_6
REMARK    2  A    between atoms: C_7  and  C_8
REMARK                            x       y       z     vdW  Elec       q    Type
REMARK                         _______ _______ _______ _____ _____    ______ ____
ROOT
ATOM      1  C   UNL     1       2.217   1.557   0.005  0.00  0.00    +0.000 C 
ATOM      2  C   UNL     1       3.181   2.274   0.008  0.00  0.00    +0.000 C 
ENDROOT
BRANCH   1   6
ATOM      3  C   UNL     1      -1.156   0.042  -0.001  0.00  0.00    +0.000 A 
ATOM      4  C   UNL     1      -0.515  -1.177  -0.001  0.00  0.00    +0.000 A 
ATOM      5  S   UNL     1       1.188  -1.005   0.003  0.00  0.00    +0.000 S 
ATOM      6  C   UNL     1       1.078   0.701   0.003  0.00  0.00    +0.000 A 
ATOM      7  C   UNL     1      -0.232   1.130   0.001  0.00  0.00    +0.000 A 
ENDBRANCH   1   6
BRANCH   2   8
ATOM      8  C   UNL     1       4.332   3.120   0.010  0.00  0.00    +0.000 A 
ATOM      9  C   UNL     1       4.254   4.495   0.003  0.00  0.00    +0.000 A 
ATOM     10  S   UNL     1       5.804   5.226   0.009  0.00  0.00    +0.000 S 
ATOM     11  C   UNL     1       6.582   3.701   0.021  0.00  0.00    +0.000 A 
ATOM     12  C   UNL     1       5.680   2.659   0.021  0.00  0.00    +0.000 A 
ENDBRANCH   2   8
TORSDOF 2
