REMARK  Name = *****
REMARK  3 active torsions:
REMARK  status: ('A' for Active; 'I' for Inactive)
REMARK    1  A    between atoms: C_4  and  O_7
REMARK    2  A    between atoms: O_7  and  C_8
REMARK    3  A    between atoms: C_8  and  C_10
REMARK                            x       y       z     vdW  Elec       q    Type
REMARK                         _______ _______ _______ _____ _____    ______ ____
ROOT
ATOM      1  C   UNL     1      -3.663  -0.693  -0.024  0.00  0.00    +0.000 C 
ATOM      2  O   UNL     1      -3.408  -1.744   0.546  0.00  0.00    +0.000 OA
ENDROOT
BRANCH   1   3
ATOM      3  C   UNL     1      -5.034  -0.337  -0.449  0.00  0.00    +0.000 A 
ATOM      4  C   UNL     1      -5.453   0.987  -0.613  0.00  0.00    +0.000 A 
ATOM      5  C   UNL     1      -6.756   1.279  -1.007  0.00  0.00    +0.000 A 
ATOM      6  C   UNL     1      -7.647   0.238  -1.230  0.00  0.00    +0.000 A 
ATOM      7  C   UNL     1      -7.260  -1.087  -1.060  0.00  0.00    +0.000 A 
ATOM      8  C   UNL     1      -5.952  -1.378  -0.664  0.00  0.00    +0.000 A 
ATOM      9  F   UNL     1      -8.902   0.514  -1.607  0.00  0.00    +0.000 F 
ATOM     10  F   UNL     1      -4.627   2.015  -0.370  0.00  0.00    +0.000 F 
ENDBRANCH   1   3
BRANCH   1  11
ATOM     11  O   UNL     1      -2.777   0.284  -0.432  0.00  0.00    +0.000 OA
BRANCH  11  15
ATOM     12  C   UNL     1       1.284  -0.103   0.469  0.00  0.00    +0.000 A 
ATOM     13  C   UNL     1       0.639  -1.136  -0.215  0.00  0.00    +0.000 A 
ATOM     14  C   UNL     1      -0.720  -1.035  -0.516  0.00  0.00    +0.000 A 
ATOM     15  C   UNL     1      -1.425   0.097  -0.111  0.00  0.00    +0.000 A 
ATOM     16  C   UNL     1      -0.785   1.144   0.553  0.00  0.00    +0.000 A 
ATOM     17  C   UNL     1       0.573   1.038   0.849  0.00  0.00    +0.000 A 
ENDBRANCH  11  15
ENDBRANCH   1  11
TORSDOF 3
