REMARK  Name = *****
REMARK  2 active torsions:
REMARK  status: ('A' for Active; 'I' for Inactive)
REMARK    1  A    between atoms: C_6  and  N_7
REMARK    2  A    between atoms: C_8  and  C_9
REMARK                            x       y       z     vdW  Elec       q    Type
REMARK                         _______ _______ _______ _____ _____    ______ ____
ROOT
ATOM      1  N   UNL     1      -3.381  -0.115  -0.171  0.00  0.00    +0.000 NA
ATOM      2  C   UNL     1      -4.069   0.945   0.117  0.00  0.00    +0.000 C 
ENDROOT
BRANCH   2   3
ATOM      3  C   UNL     1      -5.540   0.949   0.058  0.00  0.00    +0.000 A 
ATOM      4  C   UNL     1      -6.225   2.124   0.366  0.00  0.00    +0.000 A 
ATOM      5  C   UNL     1      -7.614   2.168   0.322  0.00  0.00    +0.000 A 
ATOM      6  C   UNL     1      -8.313   1.021  -0.033  0.00  0.00    +0.000 A 
ATOM      7  C   UNL     1      -7.647  -0.162  -0.343  0.00  0.00    +0.000 A 
ATOM      8  C   UNL     1      -6.252  -0.202  -0.298  0.00  0.00    +0.000 A 
ATOM      9  F   UNL     1      -9.651   1.053  -0.078  0.00  0.00    +0.000 F 
ATOM     10  F   UNL     1      -5.556   3.234   0.709  0.00  0.00    +0.000 F 
ENDBRANCH   2   3
BRANCH   1  16
ATOM     11  C   UNL     1      -1.247   0.503  -1.157  0.00  0.00    +0.000 A 
ATOM     12  C   UNL     1       0.141   0.613  -1.066  0.00  0.00    +0.000 A 
ATOM     13  C   UNL     1       0.782   0.221   0.104  0.00  0.00    +0.000 A 
ATOM     14  C   UNL     1       0.062  -0.283   1.181  0.00  0.00    +0.000 A 
ATOM     15  C   UNL     1      -1.327  -0.391   1.087  0.00  0.00    +0.000 A 
ATOM     16  C   UNL     1      -1.989   0.013  -0.077  0.00  0.00    +0.000 A 
ATOM     17  F   UNL     1       2.114   0.325   0.193  0.00  0.00    +0.000 F 
ENDBRANCH   1  16
TORSDOF 2
