REMARK  Name = *****
REMARK  4 active torsions:
REMARK  status: ('A' for Active; 'I' for Inactive)
REMARK    1  A    between atoms: N_2  and  C_3
REMARK    2  A    between atoms: C_4  and  C_5
REMARK    3  A    between atoms: C_5  and  C_6
REMARK    4  A    between atoms: C_6  and  C_7
REMARK                            x       y       z     vdW  Elec       q    Type
REMARK                         _______ _______ _______ _____ _____    ______ ____
ROOT
ATOM      1  C   UNL     1       5.917  -0.603  -1.010  0.00  0.00    +0.000 C 
ENDROOT
BRANCH   1   3
ATOM      2  C   UNL     1       3.610   0.009  -1.775  0.00  0.00    +0.000 C 
ATOM      3  C   UNL     1       4.421  -0.619  -0.913  0.00  0.00    +0.000 C 
ATOM      4  F   UNL     1       3.867  -1.324   0.101  0.00  0.00    +0.000 F 
ATOM      5  F   UNL     1       4.138   0.718  -2.798  0.00  0.00    +0.000 F 
BRANCH   2   7
ATOM      6  C   UNL     1       1.024  -0.093  -1.523  0.00  0.00    +0.000 C 
ATOM      7  N   UNL     1       2.190  -0.054  -1.628  0.00  0.00    +0.000 NA
ENDBRANCH   2   7
ENDBRANCH   1   3
BRANCH   1   8
ATOM      8  C   UNL     1       6.540   0.096   0.201  0.00  0.00    +0.000 C 
BRANCH   8   9
ATOM      9  C   UNL     1       8.046   0.100   0.123  0.00  0.00    +0.000 A 
ATOM     10  C   UNL     1       8.723   1.160  -0.496  0.00  0.00    +0.000 A 
ATOM     11  C   UNL     1      10.116   1.151  -0.586  0.00  0.00    +0.000 A 
ATOM     12  C   UNL     1      10.843   0.083  -0.065  0.00  0.00    +0.000 A 
ATOM     13  C   UNL     1      10.179  -0.978   0.547  0.00  0.00    +0.000 A 
ATOM     14  C   UNL     1       8.786  -0.972   0.639  0.00  0.00    +0.000 A 
ENDBRANCH   8   9
ENDBRANCH   1   8
TORSDOF 4
