REMARK  Name = *****
REMARK  3 active torsions:
REMARK  status: ('A' for Active; 'I' for Inactive)
REMARK    1  A    between atoms: C_5  and  C_6
REMARK    2  A    between atoms: C_6  and  S_7
REMARK    3  A    between atoms: S_7  and  C_8
REMARK                            x       y       z     vdW  Elec       q    Type
REMARK                         _______ _______ _______ _____ _____    ______ ____
ROOT
ATOM      1  C   UNL     1      -0.711  -1.053  -0.120  0.00  0.00    +0.000 C 
ATOM      2  C   UNL     1       0.824  -1.013  -0.155  0.00  0.00    +0.000 C 
ATOM      3  C   UNL     1       1.203   0.406   0.238  0.00  0.00    +0.000 C 
ATOM      4  C   UNL     1      -0.011   1.258  -0.146  0.00  0.00    +0.000 C 
ATOM      5  C   UNL     1      -1.196   0.362   0.294  0.00  0.00    +0.000 C 
ATOM      6 CL   UNL     1       0.009   2.883   0.590  0.00  0.00    +0.000 Cl
ATOM      7 CL   UNL     1      -0.078   1.499  -1.944  0.00  0.00    +0.000 Cl
ATOM      8  F   UNL     1       1.424   0.439   1.578  0.00  0.00    +0.000 F 
ATOM      9  F   UNL     1       2.352   0.790  -0.353  0.00  0.00    +0.000 F 
ENDROOT
BRANCH   5  10
ATOM     10  C   UNL     1      -1.535   0.429   1.797  0.00  0.00    +0.000 C 
BRANCH  10  11
ATOM     11  S   UNL     1      -3.037  -0.551   2.179  0.00  0.00    +0.000 S 
BRANCH  11  12
ATOM     12  C   UNL     1      -3.128  -0.328   3.949  0.00  0.00    +0.000 A 
ATOM     13  C   UNL     1      -4.099  -1.021   4.663  0.00  0.00    +0.000 A 
ATOM     14  C   UNL     1      -4.170  -0.845   6.043  0.00  0.00    +0.000 A 
ATOM     15  C   UNL     1      -3.276   0.017   6.665  0.00  0.00    +0.000 A 
ATOM     16  C   UNL     1      -2.343   0.668   5.877  0.00  0.00    +0.000 A 
ATOM     17  N   UNL     1      -2.250   0.513   4.538  0.00  0.00    +0.000 NA
ENDBRANCH  11  12
ENDBRANCH  10  11
ENDBRANCH   5  10
TORSDOF 3
