REMARK  Name = *****
REMARK  3 active torsions:
REMARK  status: ('A' for Active; 'I' for Inactive)
REMARK    1  A    between atoms: C_7  and  O_19
REMARK    2  A    between atoms: N_8  and  C_11
REMARK    3  A    between atoms: O_19  and  O_20
REMARK                            x       y       z     vdW  Elec       q    Type
REMARK                         _______ _______ _______ _____ _____    ______ ____
ROOT
ATOM      1  C   UNL     1      -2.043  -0.986   0.495  0.00  0.00    +0.000 C 
ATOM      2  C   UNL     1      -2.288   0.505   0.252  0.00  0.00    +0.000 C 
ATOM      3  C   UNL     1      -1.038   1.340   0.556  0.00  0.00    +0.000 C 
ATOM      4  C   UNL     1       0.201   0.703   0.019  0.00  0.00    +0.000 C 
ATOM      5  C   UNL     1       0.270  -0.567  -0.397  0.00  0.00    +0.000 C 
ATOM      6  C   UNL     1      -0.880  -1.520  -0.351  0.00  0.00    +0.000 C 
ATOM      7  C   UNL     1       1.614  -0.999  -0.882  0.00  0.00    +0.000 C 
ATOM      8  N   UNL     1       2.496   0.153  -0.715  0.00  0.00    +0.000 N 
ATOM      9  S   UNL     1       1.737   1.567  -0.208  0.00  0.00    +0.000 S 
ATOM     10  O   UNL     1       2.212   1.998   1.144  0.00  0.00    +0.000 OA
ENDROOT
BRANCH   8  11
ATOM     11  C   UNL     1       3.835  -0.082  -0.349  0.00  0.00    +0.000 A 
ATOM     12  C   UNL     1       4.865   0.268  -1.252  0.00  0.00    +0.000 A 
ATOM     13  C   UNL     1       6.215   0.069  -0.942  0.00  0.00    +0.000 A 
ATOM     14  C   UNL     1       6.574  -0.482   0.283  0.00  0.00    +0.000 A 
ATOM     15  C   UNL     1       5.583  -0.835   1.195  0.00  0.00    +0.000 A 
ATOM     16  C   UNL     1       4.229  -0.638   0.888  0.00  0.00    +0.000 A 
ATOM     17 CL   UNL     1       3.088  -1.107   2.107  0.00  0.00    +0.000 Cl
ATOM     18 CL   UNL     1       4.498   0.937  -2.811  0.00  0.00    +0.000 Cl
ENDBRANCH   8  11
BRANCH   7  19
ATOM     19  O   UNL     1       1.562  -1.430  -2.257  0.00  0.00    +0.000 OA
BRANCH  19  20
ATOM     20  O   UNL     1       1.248  -0.265  -3.094  0.00  0.00    +0.000 OA
ATOM     21  H   UNL     1       1.208  -0.537  -4.024  0.00  0.00    +0.000 HD
ENDBRANCH  19  20
ENDBRANCH   7  19
TORSDOF 3
