REMARK  Name = *****
REMARK  4 active torsions:
REMARK  status: ('A' for Active; 'I' for Inactive)
REMARK    1  A    between atoms: C_1  and  C_2
REMARK    2  A    between atoms: C_4  and  C_8
REMARK    3  A    between atoms: C_8  and  C_9
REMARK    4  A    between atoms: C_9  and  C_10
REMARK                            x       y       z     vdW  Elec       q    Type
REMARK                         _______ _______ _______ _____ _____    ______ ____
ROOT
ATOM      1  C   UNL     1      -1.519   1.498  -1.661  0.00  0.00    +0.000 C 
ENDROOT
BRANCH   1   5
ATOM      2  C   UNL     1       2.552  -0.057   0.344  0.00  0.00    +0.000 C 
ATOM      3  C   UNL     1       1.061  -0.028   0.172  0.00  0.00    +0.000 C 
ATOM      4  C   UNL     1       0.392   1.117  -0.055  0.00  0.00    +0.000 C 
ATOM      5  C   UNL     1      -1.109   1.210  -0.201  0.00  0.00    +0.000 C 
ATOM      6  C   UNL     1      -1.801  -0.063   0.326  0.00  0.00    +0.000 C 
ATOM      7  C   UNL     1      -1.103  -1.331  -0.155  0.00  0.00    +0.000 C 
ATOM      8  C   UNL     1       0.362  -1.361   0.283  0.00  0.00    +0.000 C 
ENDBRANCH   1   5
BRANCH   1   9
ATOM      9  C   UNL     1      -1.058   2.873  -2.159  0.00  0.00    +0.000 C 
BRANCH   9  10
ATOM     10  C   UNL     1      -1.558   3.153  -3.556  0.00  0.00    +0.000 A 
ATOM     11  C   UNL     1      -2.764   3.837  -3.757  0.00  0.00    +0.000 A 
ATOM     12  C   UNL     1      -3.231   4.079  -5.050  0.00  0.00    +0.000 A 
ATOM     13  C   UNL     1      -2.501   3.635  -6.151  0.00  0.00    +0.000 A 
ATOM     14  C   UNL     1      -1.304   2.947  -5.961  0.00  0.00    +0.000 A 
ATOM     15  C   UNL     1      -0.835   2.705  -4.669  0.00  0.00    +0.000 A 
ENDBRANCH   9  10
ENDBRANCH   1   9
TORSDOF 3
