REMARK  Name = *****
REMARK  2 active torsions:
REMARK  status: ('A' for Active; 'I' for Inactive)
REMARK    1  A    between atoms: C_1  and  C_2
REMARK    2  A    between atoms: C_9  and  C_11
REMARK                            x       y       z     vdW  Elec       q    Type
REMARK                         _______ _______ _______ _____ _____    ______ ____
ROOT
ATOM      1  C   UNL     1       1.069   0.000   0.054  0.00  0.00    +0.000 C 
ATOM      2  C   UNL     1       2.571  -0.026   0.076  0.00  0.00    +0.000 A 
ATOM      3  C   UNL     1       3.260  -1.254   0.040  0.00  0.00    +0.000 A 
ATOM      4  C   UNL     1       4.661  -1.237   0.049  0.00  0.00    +0.000 A 
ATOM      5  C   UNL     1       5.316  -0.019   0.088  0.00  0.00    +0.000 A 
ATOM      6  C   UNL     1       4.687   1.218   0.118  0.00  0.00    +0.000 A 
ATOM      7  C   UNL     1       3.286   1.186   0.109  0.00  0.00    +0.000 A 
ATOM      8  O   UNL     1       6.656  -0.266   0.089  0.00  0.00    +0.000 OA
ATOM      9  C   UNL     1       6.745  -1.634   0.050  0.00  0.00    +0.000 A 
ATOM     10  N   UNL     1       5.578  -2.257   0.025  0.00  0.00    +0.000 NA
ENDROOT
BRANCH   9  11
ATOM     11  C   UNL     1       8.081  -2.220   0.044  0.00  0.00    +0.000 A 
ATOM     12  C   UNL     1       9.254  -1.452   0.060  0.00  0.00    +0.000 A 
ATOM     13  C   UNL     1      10.517  -2.051   0.054  0.00  0.00    +0.000 A 
ATOM     14  C   UNL     1      10.626  -3.439   0.030  0.00  0.00    +0.000 A 
ATOM     15  C   UNL     1       9.471  -4.210   0.014  0.00  0.00    +0.000 A 
ATOM     16  C   UNL     1       8.210  -3.618   0.020  0.00  0.00    +0.000 A 
ATOM     17  F   UNL     1       9.572  -5.545  -0.009  0.00  0.00    +0.000 F 
ATOM     18  F   UNL     1       9.206  -0.112   0.082  0.00  0.00    +0.000 F 
ENDBRANCH   9  11
TORSDOF 1
