REMARK  Name = *****
REMARK  3 active torsions:
REMARK  status: ('A' for Active; 'I' for Inactive)
REMARK    1  A    between atoms: C_4  and  C_7
REMARK    2  A    between atoms: C_8  and  C_9
REMARK    3  A    between atoms: C_12  and  C_15
REMARK                            x       y       z     vdW  Elec       q    Type
REMARK                         _______ _______ _______ _____ _____    ______ ____
ROOT
ATOM      1  C   UNL     1       2.956   0.193  -0.338  0.00  0.00    +0.000 C 
ATOM      2  C   UNL     1       4.146   0.268  -0.487  0.00  0.00    +0.000 C 
ENDROOT
BRANCH   1   6
ATOM      3  C   UNL     1      -1.228  -0.071   0.173  0.00  0.00    +0.000 A 
ATOM      4  C   UNL     1      -0.614   1.179   0.086  0.00  0.00    +0.000 A 
ATOM      5  C   UNL     1       0.769   1.267  -0.082  0.00  0.00    +0.000 A 
ATOM      6  C   UNL     1       1.539   0.104  -0.163  0.00  0.00    +0.000 A 
ATOM      7  C   UNL     1       0.922  -1.146  -0.076  0.00  0.00    +0.000 A 
ATOM      8  C   UNL     1      -0.461  -1.233   0.092  0.00  0.00    +0.000 A 
ENDBRANCH   1   6
BRANCH   2   9
ATOM      9  C   UNL     1       5.561   0.358  -0.668  0.00  0.00    +0.000 A 
ATOM     10  C   UNL     1       6.179   1.609  -0.741  0.00  0.00    +0.000 A 
ATOM     11  C   UNL     1       7.563   1.697  -0.921  0.00  0.00    +0.000 A 
ATOM     12  C   UNL     1       8.333   0.534  -1.028  0.00  0.00    +0.000 A 
ATOM     13  C   UNL     1       7.712  -0.718  -0.954  0.00  0.00    +0.000 A 
ATOM     14  C   UNL     1       6.328  -0.805  -0.774  0.00  0.00    +0.000 A 
BRANCH  12  15
ATOM     15  C   UNL     1       9.752   0.624  -1.214  0.00  0.00    +0.000 C 
ATOM     16  N   UNL     1      10.900   0.696  -1.365  0.00  0.00    +0.000 NA
ENDBRANCH  12  15
ENDBRANCH   2   9
TORSDOF 3
