REMARK  Name = *****
REMARK  4 active torsions:
REMARK  status: ('A' for Active; 'I' for Inactive)
REMARK    1  A    between atoms: C_7  and  C_8
REMARK    2  A    between atoms: C_8  and  O_9
REMARK    3  A    between atoms: O_9  and  C_10
REMARK    4  A    between atoms: C_10  and  C_11
REMARK                            x       y       z     vdW  Elec       q    Type
REMARK                         _______ _______ _______ _____ _____    ______ ____
ROOT
ATOM      1  C   UNL     1       2.582   1.260   0.041  0.00  0.00    +0.000 C 
ENDROOT
BRANCH   1   8
ATOM      2  C   UNL     1      -1.304  -0.695  -0.480  0.00  0.00    +0.000 C 
ATOM      3  C   UNL     1      -1.253   0.836  -0.373  0.00  0.00    +0.000 C 
ATOM      4  C   UNL     1       0.043   1.083   0.423  0.00  0.00    +0.000 C 
ATOM      5  C   UNL     1       0.014  -0.089   1.407  0.00  0.00    +0.000 C 
ATOM      6  C   UNL     1      -0.056  -1.139   0.301  0.00  0.00    +0.000 C 
ATOM      7  C   UNL     1       1.201  -0.809  -0.525  0.00  0.00    +0.000 C 
ATOM      8  C   UNL     1       1.248   0.733  -0.489  0.00  0.00    +0.000 C 
ENDBRANCH   1   8
BRANCH   1   9
ATOM      9  O   UNL     1       2.549   2.686   0.019  0.00  0.00    +0.000 OA
BRANCH   9  10
ATOM     10  C   UNL     1       3.772   3.251   0.490  0.00  0.00    +0.000 C 
BRANCH  10  11
ATOM     11  C   UNL     1       3.672   4.756   0.505  0.00  0.00    +0.000 A 
ATOM     12  C   UNL     1       2.512   5.397   0.965  0.00  0.00    +0.000 A 
ATOM     13  C   UNL     1       2.440   6.790   1.014  0.00  0.00    +0.000 A 
ATOM     14  C   UNL     1       3.529   7.559   0.612  0.00  0.00    +0.000 A 
ATOM     15  C   UNL     1       4.692   6.936   0.164  0.00  0.00    +0.000 A 
ATOM     16  C   UNL     1       4.766   5.542   0.115  0.00  0.00    +0.000 A 
ENDBRANCH  10  11
ENDBRANCH   9  10
ENDBRANCH   1   9
TORSDOF 4
