REMARK  Name = *****
REMARK  3 active torsions:
REMARK  status: ('A' for Active; 'I' for Inactive)
REMARK    1  A    between atoms: C_1  and  C_2
REMARK    2  A    between atoms: C_4  and  N_8
REMARK    3  A    between atoms: C_9  and  C_10
REMARK                            x       y       z     vdW  Elec       q    Type
REMARK                         _______ _______ _______ _____ _____    ______ ____
ROOT
ATOM      1  N   UNL     1      -1.648   2.552   0.255  0.00  0.00    +0.000 NA
ATOM      2  C   UNL     1      -1.529   3.443  -0.678  0.00  0.00    +0.000 C 
ENDROOT
BRANCH   1   6
ATOM      3  C   UNL     1       2.482  -0.154   0.592  0.00  0.00    +0.000 C 
ATOM      4  C   UNL     1       1.050  -0.005   0.173  0.00  0.00    +0.000 A 
ATOM      5  C   UNL     1       0.370   1.202   0.391  0.00  0.00    +0.000 A 
ATOM      6  C   UNL     1      -0.974   1.343   0.032  0.00  0.00    +0.000 A 
ATOM      7  C   UNL     1      -1.653   0.254  -0.516  0.00  0.00    +0.000 A 
ATOM      8  C   UNL     1      -0.993  -0.957  -0.724  0.00  0.00    +0.000 A 
ATOM      9  C   UNL     1       0.353  -1.086  -0.379  0.00  0.00    +0.000 A 
ENDBRANCH   1   6
BRANCH   2  10
ATOM     10  C   UNL     1      -2.181   4.762  -0.581  0.00  0.00    +0.000 A 
ATOM     11  C   UNL     1      -2.967   5.090   0.525  0.00  0.00    +0.000 A 
ATOM     12  C   UNL     1      -3.565   6.343   0.580  0.00  0.00    +0.000 A 
ATOM     13  C   UNL     1      -3.393   7.269  -0.445  0.00  0.00    +0.000 A 
ATOM     14  C   UNL     1      -2.606   6.940  -1.549  0.00  0.00    +0.000 A 
ATOM     15  C   UNL     1      -1.999   5.684  -1.620  0.00  0.00    +0.000 A 
ATOM     16  F   UNL     1      -4.322   6.667   1.636  0.00  0.00    +0.000 F 
ENDBRANCH   2  10
TORSDOF 2
