REMARK  Name = *****
REMARK  3 active torsions:
REMARK  status: ('A' for Active; 'I' for Inactive)
REMARK    1  A    between atoms: C_1  and  C_2
REMARK    2  A    between atoms: C_2  and  C_11
REMARK    3  A    between atoms: N_3  and  C_4
REMARK                            x       y       z     vdW  Elec       q    Type
REMARK                         _______ _______ _______ _____ _____    ______ ____
ROOT
ATOM      1  C   UNL     1       1.326  -0.566  -0.720  0.00  0.00    +0.000 C 
ATOM      2  C   UNL     1       2.640  -0.024  -0.186  0.00  0.00    +0.000 C 
ATOM      3  N   UNL     1       3.131   1.139  -0.507  0.00  0.00    +0.000 NA
ENDROOT
BRANCH   3   4
ATOM      4  C   UNL     1       2.437   1.984  -1.378  0.00  0.00    +0.000 A 
ATOM      5  C   UNL     1       1.448   2.846  -0.893  0.00  0.00    +0.000 A 
ATOM      6  C   UNL     1       0.774   3.709  -1.761  0.00  0.00    +0.000 A 
ATOM      7  C   UNL     1       1.102   3.719  -3.115  0.00  0.00    +0.000 A 
ATOM      8  C   UNL     1       2.101   2.880  -3.607  0.00  0.00    +0.000 A 
ATOM      9  C   UNL     1       2.771   2.019  -2.734  0.00  0.00    +0.000 A 
ATOM     10 CL   UNL     1       0.274   4.780  -4.187  0.00  0.00    +0.000 Cl
ENDBRANCH   3   4
BRANCH   2  11
ATOM     11  C   UNL     1       3.408  -0.875   0.776  0.00  0.00    +0.000 A 
ATOM     12  C   UNL     1       2.768  -1.799   1.610  0.00  0.00    +0.000 A 
ATOM     13  C   UNL     1       3.515  -2.573   2.502  0.00  0.00    +0.000 A 
ATOM     14  C   UNL     1       4.900  -2.424   2.568  0.00  0.00    +0.000 A 
ATOM     15  C   UNL     1       5.542  -1.496   1.750  0.00  0.00    +0.000 A 
ATOM     16  C   UNL     1       4.798  -0.720   0.859  0.00  0.00    +0.000 A 
ENDBRANCH   2  11
TORSDOF 2
