REMARK  Name = *****
REMARK  2 active torsions:
REMARK  status: ('A' for Active; 'I' for Inactive)
REMARK    1  A    between atoms: C_4  and  C_7
REMARK    2  A    between atoms: C_8  and  C_9
REMARK                            x       y       z     vdW  Elec       q    Type
REMARK                         _______ _______ _______ _____ _____    ______ ____
ROOT
ATOM      1  C   UNL     1       2.946   0.203  -0.263  0.00  0.00    +0.000 C 
ATOM      2  C   UNL     1       4.142   0.281  -0.347  0.00  0.00    +0.000 C 
ENDROOT
BRANCH   2   3
ATOM      3  C   UNL     1       5.563   0.371  -0.447  0.00  0.00    +0.000 A 
ATOM      4  N   UNL     1       6.202  -0.813  -0.520  0.00  0.00    +0.000 NA
ATOM      5  C   UNL     1       7.545  -0.753  -0.614  0.00  0.00    +0.000 A 
ATOM      6  C   UNL     1       8.282   0.420  -0.639  0.00  0.00    +0.000 A 
ATOM      7  C   UNL     1       7.591   1.625  -0.562  0.00  0.00    +0.000 A 
ATOM      8  C   UNL     1       6.202   1.604  -0.463  0.00  0.00    +0.000 A 
ATOM      9 CL   UNL     1       8.324  -2.278  -0.705  0.00  0.00    +0.000 Cl
ENDBRANCH   2   3
BRANCH   1  13
ATOM     10  C   UNL     1      -1.256  -0.104   0.033  0.00  0.00    +0.000 A 
ATOM     11  C   UNL     1      -0.651   1.152  -0.016  0.00  0.00    +0.000 A 
ATOM     12  C   UNL     1       0.738   1.255  -0.114  0.00  0.00    +0.000 A 
ATOM     13  C   UNL     1       1.523   0.101  -0.163  0.00  0.00    +0.000 A 
ATOM     14  C   UNL     1       0.916  -1.156  -0.114  0.00  0.00    +0.000 A 
ATOM     15  C   UNL     1      -0.473  -1.258  -0.016  0.00  0.00    +0.000 A 
ENDBRANCH   1  13
TORSDOF 2
