REMARK  Name = *****
REMARK  5 active torsions:
REMARK  status: ('A' for Active; 'I' for Inactive)
REMARK    1  A    between atoms: C_1  and  O_2
REMARK    2  A    between atoms: O_2  and  C_3
REMARK    3  A    between atoms: C_3  and  C_5
REMARK    4  A    between atoms: C_6  and  C_10
REMARK    5  A    between atoms: C_11  and  C_12
REMARK                            x       y       z     vdW  Elec       q    Type
REMARK                         _______ _______ _______ _____ _____    ______ ____
ROOT
ATOM      1  C   UNL     1       4.447  -0.236   1.146  0.00  0.00    +0.000 A 
ATOM      2  C   UNL     1       5.331   0.644   0.540  0.00  0.00    +0.000 A 
ATOM      3  C   UNL     1       6.697   0.293   0.767  0.00  0.00    +0.000 A 
ATOM      4  C   UNL     1       6.825  -0.838   1.538  0.00  0.00    +0.000 A 
ATOM      5  S   UNL     1       5.309  -1.474   1.987  0.00  0.00    +0.000 S 
ENDROOT
BRANCH   1   6
ATOM      6  C   UNL     1       2.993  -0.286   1.190  0.00  0.00    +0.000 C 
ATOM      7  O   UNL     1       2.317  -1.109   1.800  0.00  0.00    +0.000 OA
BRANCH   6   9
ATOM      8  C   UNL     1       1.022   0.744   0.435  0.00  0.00    +0.000 C 
ATOM      9  O   UNL     1       2.449   0.720   0.445  0.00  0.00    +0.000 OA
ENDBRANCH   6   9
ENDBRANCH   1   6
BRANCH   2  10
ATOM     10  C   UNL     1       4.961   1.792  -0.233  0.00  0.00    +0.000 C 
ATOM     11  C   UNL     1       4.659   2.756  -0.883  0.00  0.00    +0.000 C 
BRANCH  11  12
ATOM     12  C   UNL     1       4.293   3.903  -1.655  0.00  0.00    +0.000 A 
ATOM     13  C   UNL     1       3.825   3.746  -2.961  0.00  0.00    +0.000 A 
ATOM     14  C   UNL     1       3.467   4.865  -3.715  0.00  0.00    +0.000 A 
ATOM     15  C   UNL     1       3.576   6.142  -3.163  0.00  0.00    +0.000 A 
ATOM     16  C   UNL     1       4.042   6.301  -1.858  0.00  0.00    +0.000 A 
ATOM     17  C   UNL     1       4.400   5.182  -1.103  0.00  0.00    +0.000 A 
ENDBRANCH  11  12
ENDBRANCH   2  10
TORSDOF 4
