REMARK  Name = *****
REMARK  3 active torsions:
REMARK  status: ('A' for Active; 'I' for Inactive)
REMARK    1  A    between atoms: C_4  and  C_8
REMARK    2  A    between atoms: C_8  and  S_9
REMARK    3  A    between atoms: S_9  and  C_10
REMARK                            x       y       z     vdW  Elec       q    Type
REMARK                         _______ _______ _______ _____ _____    ______ ____
ROOT
ATOM      1  C   UNL     1      -0.508   2.189  -0.707  0.00  0.00    +0.000 C 
ENDROOT
BRANCH   1   5
ATOM      2  C   UNL     1      -0.146  -2.038   0.242  0.00  0.00    +0.000 A 
ATOM      3  C   UNL     1      -0.741  -1.636  -0.949  0.00  0.00    +0.000 A 
ATOM      4  C   UNL     1      -0.860  -0.276  -1.259  0.00  0.00    +0.000 A 
ATOM      5  C   UNL     1      -0.375   0.716  -0.384  0.00  0.00    +0.000 A 
ATOM      6  C   UNL     1       0.211   0.285   0.824  0.00  0.00    +0.000 A 
ATOM      7  C   UNL     1       0.327  -1.077   1.130  0.00  0.00    +0.000 A 
ATOM      8 CL   UNL     1       0.811   1.400   2.006  0.00  0.00    +0.000 Cl
ATOM      9 CL   UNL     1      -1.635   0.111  -2.757  0.00  0.00    +0.000 Cl
ENDBRANCH   1   5
BRANCH   1  10
ATOM     10  S   UNL     1      -2.067   2.863  -0.023  0.00  0.00    +0.000 S 
BRANCH  10  11
ATOM     11  C   UNL     1      -1.643   4.596   0.195  0.00  0.00    +0.000 A 
ATOM     12  N   UNL     1      -0.872   5.335  -0.716  0.00  0.00    +0.000 N 
ATOM     13  C   UNL     1      -0.632   6.677  -0.460  0.00  0.00    +0.000 A 
ATOM     14  C   UNL     1      -1.142   7.302   0.668  0.00  0.00    +0.000 A 
ATOM     15  C   UNL     1      -1.914   6.585   1.569  0.00  0.00    +0.000 A 
ATOM     16  C   UNL     1      -2.169   5.236   1.333  0.00  0.00    +0.000 A 
ATOM     17 CL   UNL     1      -0.820   8.966   0.943  0.00  0.00    +0.000 Cl
ATOM     18  O   UNL     1      -0.378   4.827  -1.775  0.00  0.00    +0.000 OA
ENDBRANCH  10  11
ENDBRANCH   1  10
TORSDOF 3
