REMARK  Name = *****
REMARK  2 active torsions:
REMARK  status: ('A' for Active; 'I' for Inactive)
REMARK    1  A    between atoms: C_1  and  C_2
REMARK    2  A    between atoms: C_5  and  C_8
REMARK                            x       y       z     vdW  Elec       q    Type
REMARK                         _______ _______ _______ _____ _____    ______ ____
ROOT
ATOM      1  C   UNL     1      -3.410   0.403  -0.115  0.00  0.00    +0.000 C 
ATOM      2  N   UNL     1      -3.773   1.301  -0.959  0.00  0.00    +0.000 NA
ATOM      3  C   UNL     1      -5.084   1.152  -1.570  0.00  0.00    +0.000 C 
ATOM      4  C   UNL     1      -6.153   0.660  -0.624  0.00  0.00    +0.000 C 
ATOM      5  C   UNL     1      -6.776   1.735   0.312  0.00  0.00    +0.000 C 
ATOM      6  C   UNL     1      -5.874   1.695   1.546  0.00  0.00    +0.000 C 
ATOM      7  C   UNL     1      -6.067   0.188   1.754  0.00  0.00    +0.000 C 
ATOM      8  C   UNL     1      -5.619  -0.386   0.381  0.00  0.00    +0.000 C 
ATOM      9  O   UNL     1      -4.199  -0.582   0.363  0.00  0.00    +0.000 OA
ATOM     10  C   UNL     1      -7.580   0.168   1.800  0.00  0.00    +0.000 C 
ATOM     11  C   UNL     1      -8.008   1.103   0.936  0.00  0.00    +0.000 C 
ENDROOT
BRANCH   1  16
ATOM     12  C   UNL     1       1.962   0.212   2.066  0.00  0.00    +0.000 C 
ATOM     13  C   UNL     1       0.562   0.273   1.530  0.00  0.00    +0.000 A 
ATOM     14  C   UNL     1      -0.411  -0.625   1.983  0.00  0.00    +0.000 A 
ATOM     15  C   UNL     1      -1.707  -0.593   1.459  0.00  0.00    +0.000 A 
ATOM     16  C   UNL     1      -2.045   0.334   0.465  0.00  0.00    +0.000 A 
ATOM     17  C   UNL     1      -1.068   1.224   0.002  0.00  0.00    +0.000 A 
ATOM     18  C   UNL     1       0.228   1.189   0.526  0.00  0.00    +0.000 A 
ENDBRANCH   1  16
TORSDOF 1
