REMARK  Name = *****
REMARK  3 active torsions:
REMARK  status: ('A' for Active; 'I' for Inactive)
REMARK    1  A    between atoms: C_1  and  C_2
REMARK    2  A    between atoms: C_3  and  N_9
REMARK    3  A    between atoms: C_4  and  C_8
REMARK                            x       y       z     vdW  Elec       q    Type
REMARK                         _______ _______ _______ _____ _____    ______ ____
ROOT
ATOM      1  N   UNL     1       0.010   2.506  -0.070  0.00  0.00    +0.000 N 
ATOM      2  C   UNL     1      -0.040   3.157   1.045  0.00  0.00    +0.000 C 
ATOM      3  C   UNL     1      -0.155   4.620   1.053  0.00  0.00    +0.000 A 
ATOM      4  C   UNL     1       0.045   5.331   2.235  0.00  0.00    +0.000 A 
ATOM      5  C   UNL     1      -0.086   6.719   2.217  0.00  0.00    +0.000 A 
ATOM      6  C   UNL     1      -0.423   7.379   1.032  0.00  0.00    +0.000 A 
ATOM      7  C   UNL     1      -0.633   6.658  -0.146  0.00  0.00    +0.000 A 
ATOM      8  C   UNL     1      -0.490   5.269  -0.146  0.00  0.00    +0.000 A 
ATOM      9  C   UNL     1      -0.777   4.447  -1.377  0.00  0.00    +0.000 C 
ATOM     10  C   UNL     1       0.058   3.165  -1.406  0.00  0.00    +0.000 C 
ENDROOT
BRANCH   1  13
ATOM     11  C   UNL     1      -2.422   1.070   0.762  0.00  0.00    +0.000 C 
ATOM     12  C   UNL     1      -1.133   0.389   0.372  0.00  0.00    +0.000 A 
ATOM     13  C   UNL     1       0.033   1.089  -0.027  0.00  0.00    +0.000 A 
ATOM     14  C   UNL     1       1.207   0.391  -0.395  0.00  0.00    +0.000 A 
ATOM     15  C   UNL     1       1.188  -1.012  -0.371  0.00  0.00    +0.000 A 
ATOM     16  C   UNL     1       0.051  -1.706   0.035  0.00  0.00    +0.000 A 
ATOM     17  C   UNL     1      -1.097  -1.013   0.410  0.00  0.00    +0.000 A 
ATOM     18  C   UNL     1       2.486   1.063  -0.821  0.00  0.00    +0.000 C 
ENDBRANCH   1  13
TORSDOF 1
