REMARK  Name = *****
REMARK  1 active torsions:
REMARK  status: ('A' for Active; 'I' for Inactive)
REMARK    1  A    between atoms: C_6  and  C_7
REMARK                            x       y       z     vdW  Elec       q    Type
REMARK                         _______ _______ _______ _____ _____    ______ ____
ROOT
ATOM      1  C   UNL     1      -2.430   0.671  -0.416  0.00  0.00    +0.000 C 
ATOM      2  C   UNL     1      -1.223   1.496   0.029  0.00  0.00    +0.000 C 
ATOM      3  C   UNL     1       0.068   0.714   0.020  0.00  0.00    +0.000 A 
ATOM      4  C   UNL     1       0.074  -0.695   0.026  0.00  0.00    +0.000 A 
ATOM      5  C   UNL     1      -1.203  -1.497  -0.044  0.00  0.00    +0.000 C 
ATOM      6  C   UNL     1      -2.454  -0.676   0.321  0.00  0.00    +0.000 C 
ATOM      7  C   UNL     1       1.302  -1.368   0.036  0.00  0.00    +0.000 A 
ATOM      8  C   UNL     1       2.501  -0.664   0.068  0.00  0.00    +0.000 A 
ATOM      9  C   UNL     1       2.502   0.724   0.085  0.00  0.00    +0.000 A 
ATOM     10  C   UNL     1       1.288   1.412   0.064  0.00  0.00    +0.000 A 
ATOM     11  F   UNL     1       3.669  -1.322   0.082  0.00  0.00    +0.000 F 
ATOM     12  F   UNL     1       1.325  -2.709   0.013  0.00  0.00    +0.000 F 
ENDROOT
BRANCH   6  13
ATOM     13  C   UNL     1      -3.735  -1.448   0.058  0.00  0.00    +0.000 A 
ATOM     14  C   UNL     1      -4.565  -1.806   1.132  0.00  0.00    +0.000 A 
ATOM     15  C   UNL     1      -5.748  -2.515   0.914  0.00  0.00    +0.000 A 
ATOM     16  C   UNL     1      -6.116  -2.879  -0.379  0.00  0.00    +0.000 A 
ATOM     17  C   UNL     1      -5.302  -2.533  -1.455  0.00  0.00    +0.000 A 
ATOM     18  C   UNL     1      -4.119  -1.822  -1.239  0.00  0.00    +0.000 A 
ENDBRANCH   6  13
TORSDOF 1
