REMARK  Name = *****
REMARK  3 active torsions:
REMARK  status: ('A' for Active; 'I' for Inactive)
REMARK    1  A    between atoms: C_5  and  S_7
REMARK    2  A    between atoms: S_7  and  C_8
REMARK    3  A    between atoms: C_8  and  C_10
REMARK                            x       y       z     vdW  Elec       q    Type
REMARK                         _______ _______ _______ _____ _____    ______ ____
ROOT
ATOM      1  C   UNL     1      -1.766  -2.621   0.343  0.00  0.00    +0.000 C 
ATOM      2  O   UNL     1      -2.147  -2.316  -0.778  0.00  0.00    +0.000 OA
ENDROOT
BRANCH   1   3
ATOM      3  C   UNL     1      -2.709  -3.026   1.395  0.00  0.00    +0.000 A 
ATOM      4  C   UNL     1      -3.802  -2.235   1.720  0.00  0.00    +0.000 A 
ATOM      5  N   UNL     1      -4.714  -2.568   2.667  0.00  0.00    +0.000 NA
ATOM      6  C   UNL     1      -4.534  -3.743   3.307  0.00  0.00    +0.000 A 
ATOM      7  C   UNL     1      -3.481  -4.605   3.048  0.00  0.00    +0.000 A 
ATOM      8  C   UNL     1      -2.555  -4.242   2.073  0.00  0.00    +0.000 A 
ATOM      9 CL   UNL     1      -4.116  -0.693   1.025  0.00  0.00    +0.000 Cl
ENDBRANCH   1   3
BRANCH   1  10
ATOM     10  S   UNL     1      -0.058  -2.656   0.771  0.00  0.00    +0.000 S 
BRANCH  10  15
ATOM     11  C   UNL     1       1.452   0.384  -1.450  0.00  0.00    +0.000 A 
ATOM     12  C   UNL     1       1.197   1.521  -0.687  0.00  0.00    +0.000 A 
ATOM     13  C   UNL     1       0.552   1.401   0.544  0.00  0.00    +0.000 A 
ATOM     14  C   UNL     1       0.158   0.143   1.013  0.00  0.00    +0.000 A 
ATOM     15  C   UNL     1       0.406  -1.008   0.247  0.00  0.00    +0.000 A 
ATOM     16  C   UNL     1       1.061  -0.873  -0.986  0.00  0.00    +0.000 A 
ATOM     17 CL   UNL     1      -0.620   0.078   2.558  0.00  0.00    +0.000 Cl
ENDBRANCH  10  15
ENDBRANCH   1  10
TORSDOF 3
