REMARK  Name = *****
REMARK  3 active torsions:
REMARK  status: ('A' for Active; 'I' for Inactive)
REMARK    1  A    between atoms: C_1  and  C_2
REMARK    2  A    between atoms: C_5  and  C_7
REMARK    3  A    between atoms: C_8  and  C_9
REMARK                            x       y       z     vdW  Elec       q    Type
REMARK                         _______ _______ _______ _____ _____    ______ ____
ROOT
ATOM      1  C   UNL     1      -1.662   2.402   0.062  0.00  0.00    +0.000 C 
ATOM      2  C   UNL     1      -3.001   2.410  -0.049  0.00  0.00    +0.000 C 
ENDROOT
BRANCH   2   3
ATOM      3  C   UNL     1      -3.807   3.640  -0.047  0.00  0.00    +0.000 A 
ATOM      4  C   UNL     1      -3.409   4.795  -0.738  0.00  0.00    +0.000 A 
ATOM      5  C   UNL     1      -4.218   5.934  -0.739  0.00  0.00    +0.000 A 
ATOM      6  C   UNL     1      -5.429   5.915  -0.058  0.00  0.00    +0.000 A 
ATOM      7  C   UNL     1      -5.850   4.778   0.619  0.00  0.00    +0.000 A 
ATOM      8  C   UNL     1      -5.042   3.638   0.619  0.00  0.00    +0.000 A 
ATOM      9  F   UNL     1      -6.204   7.007  -0.060  0.00  0.00    +0.000 F 
ENDBRANCH   2   3
BRANCH   1  14
ATOM     10  C   UNL     1      -0.329  -2.539  -0.045  0.00  0.00    +0.000 C 
ATOM     11  C   UNL     1      -0.182  -1.058   0.022  0.00  0.00    +0.000 A 
ATOM     12  C   UNL     1       1.016  -0.384   0.131  0.00  0.00    +0.000 A 
ATOM     13  S   UNL     1       0.819   1.309   0.186  0.00  0.00    +0.000 S 
ATOM     14  C   UNL     1      -0.899   1.196   0.065  0.00  0.00    +0.000 A 
ATOM     15  C   UNL     1      -1.279  -0.134  -0.015  0.00  0.00    +0.000 A 
ENDBRANCH   1  14
TORSDOF 2
