REMARK  Name = *****
REMARK  2 active torsions:
REMARK  status: ('A' for Active; 'I' for Inactive)
REMARK    1  A    between atoms: C_6  and  C_7
REMARK    2  A    between atoms: C_8  and  C_10
REMARK                            x       y       z     vdW  Elec       q    Type
REMARK                         _______ _______ _______ _____ _____    ______ ____
ROOT
ATOM      1  C   UNL     1       3.668  -0.107   0.334  0.00  0.00    +0.000 C 
ATOM      2  C   UNL     1       4.713   0.299   1.364  0.00  0.00    +0.000 C 
ATOM      3  O   UNL     1       4.591   0.968   0.099  0.00  0.00    +0.000 OA
ENDROOT
BRANCH   1   9
ATOM      4  C   UNL     1       4.233  -1.362  -1.803  0.00  0.00    +0.000 A 
ATOM      5  C   UNL     1       4.398  -2.545  -2.531  0.00  0.00    +0.000 A 
ATOM      6  C   UNL     1       4.180  -3.771  -1.912  0.00  0.00    +0.000 A 
ATOM      7  C   UNL     1       3.799  -3.822  -0.575  0.00  0.00    +0.000 A 
ATOM      8  C   UNL     1       3.637  -2.635   0.147  0.00  0.00    +0.000 A 
ATOM      9  C   UNL     1       3.855  -1.381  -0.450  0.00  0.00    +0.000 A 
ATOM     10 CL   UNL     1       4.380  -5.229  -2.802  0.00  0.00    +0.000 Cl
ENDBRANCH   1   9
BRANCH   2  11
ATOM     11  C   UNL     1       4.284   1.045   2.600  0.00  0.00    +0.000 A 
ATOM     12  C   UNL     1       3.623   0.385   3.651  0.00  0.00    +0.000 A 
ATOM     13  C   UNL     1       3.229   1.067   4.807  0.00  0.00    +0.000 A 
ATOM     14  C   UNL     1       3.496   2.427   4.930  0.00  0.00    +0.000 A 
ATOM     15  C   UNL     1       4.153   3.107   3.910  0.00  0.00    +0.000 A 
ATOM     16  C   UNL     1       4.544   2.417   2.758  0.00  0.00    +0.000 A 
ATOM     17 CL   UNL     1       3.014   3.268   6.350  0.00  0.00    +0.000 Cl
ENDBRANCH   2  11
TORSDOF 2
