REMARK  Name = *****
REMARK  0 active torsions:
REMARK  status: ('A' for Active; 'I' for Inactive)
REMARK                            x       y       z     vdW  Elec       q    Type
REMARK                         _______ _______ _______ _____ _____    ______ ____
ROOT
ATOM      1  C   UNL     1       3.005   1.825   0.643  0.00  0.00    +0.000 C 
ATOM      2  C   UNL     1       4.370   2.447   0.372  0.00  0.00    +0.000 C 
ATOM      3  C   UNL     1       5.597   1.582   0.641  0.00  0.00    +0.000 C 
ATOM      4  C   UNL     1       5.533   0.731   1.908  0.00  0.00    +0.000 C 
ATOM      5  C   UNL     1       4.853  -0.642   1.743  0.00  0.00    +0.000 C 
ATOM      6  C   UNL     1       3.335  -0.535   1.517  0.00  0.00    +0.000 C 
ATOM      7  C   UNL     1       2.895   0.335   0.339  0.00  0.00    +0.000 C 
ATOM      8  O   UNL     1       5.527  -1.312   0.660  0.00  0.00    +0.000 OA
ATOM      9  O   UNL     1       5.001  -2.677   0.558  0.00  0.00    +0.000 OA
ATOM     10  C   UNL     1       5.285  -3.358   1.792  0.00  0.00    +0.000 C 
ATOM     11  C   UNL     1       4.660  -4.756   1.662  0.00  0.00    +0.000 C 
ATOM     12  C   UNL     1       4.970  -5.650   2.862  0.00  0.00    +0.000 C 
ATOM     13  C   UNL     1       6.471  -5.747   3.115  0.00  0.00    +0.000 C 
ATOM     14  C   UNL     1       7.112  -4.368   3.247  0.00  0.00    +0.000 C 
ATOM     15  C   UNL     1       6.798  -3.487   2.039  0.00  0.00    +0.000 C 
ATOM     16  O   UNL     1       4.604  -2.702   2.876  0.00  0.00    +0.000 OA
ATOM     17  O   UNL     1       5.125  -1.335   2.984  0.00  0.00    +0.000 OA
ENDROOT
TORSDOF 0
