REMARK  Name = *****
REMARK  3 active torsions:
REMARK  status: ('A' for Active; 'I' for Inactive)
REMARK    1  A    between atoms: C_2  and  C_3
REMARK    2  A    between atoms: C_6  and  C_8
REMARK    3  A    between atoms: C_9  and  C_10
REMARK                            x       y       z     vdW  Elec       q    Type
REMARK                         _______ _______ _______ _____ _____    ______ ____
ROOT
ATOM      1  C   UNL     1       7.151  -1.850  -0.051  0.00  0.00    +0.000 C 
ATOM      2  C   UNL     1       8.131  -2.544  -0.066  0.00  0.00    +0.000 C 
ENDROOT
BRANCH   2   3
ATOM      3  C   UNL     1       9.293  -3.378  -0.084  0.00  0.00    +0.000 A 
ATOM      4  C   UNL     1      10.564  -2.807  -0.188  0.00  0.00    +0.000 A 
ATOM      5  C   UNL     1      11.697  -3.623  -0.206  0.00  0.00    +0.000 A 
ATOM      6  C   UNL     1      11.561  -5.009  -0.119  0.00  0.00    +0.000 A 
ATOM      7  C   UNL     1      10.293  -5.580  -0.015  0.00  0.00    +0.000 A 
ATOM      8  C   UNL     1       9.159  -4.765   0.003  0.00  0.00    +0.000 A 
ENDBRANCH   2   3
BRANCH   1  12
ATOM      9  C   UNL     1       3.702  -0.104  -0.014  0.00  0.00    +0.000 A 
ATOM     10  C   UNL     1       4.663   0.883   0.008  0.00  0.00    +0.000 A 
ATOM     11  C   UNL     1       5.986   0.345  -0.003  0.00  0.00    +0.000 A 
ATOM     12  C   UNL     1       5.984  -1.032  -0.033  0.00  0.00    +0.000 A 
ATOM     13  S   UNL     1       4.397  -1.665  -0.048  0.00  0.00    +0.000 S 
BRANCH   9  15
ATOM     14  C   UNL     1       1.110   0.321  -0.007  0.00  0.00    +0.000 C 
ATOM     15  C   UNL     1       2.295   0.127  -0.010  0.00  0.00    +0.000 C 
ENDBRANCH   9  15
ENDBRANCH   1  12
TORSDOF 3
