REMARK  Name = *****
REMARK  3 active torsions:
REMARK  status: ('A' for Active; 'I' for Inactive)
REMARK    1  A    between atoms: C_5  and  O_8
REMARK    2  A    between atoms: O_8  and  C_9
REMARK    3  A    between atoms: C_9  and  C_11
REMARK                            x       y       z     vdW  Elec       q    Type
REMARK                         _______ _______ _______ _____ _____    ______ ____
ROOT
ATOM      1  C   UNL     1      -2.897  -1.217  -3.569  0.00  0.00    +0.000 A 
ATOM      2  C   UNL     1      -3.578  -0.355  -4.424  0.00  0.00    +0.000 A 
ATOM      3  C   UNL     1      -3.542  -0.567  -5.798  0.00  0.00    +0.000 A 
ATOM      4  C   UNL     1      -2.833  -1.641  -6.320  0.00  0.00    +0.000 A 
ATOM      5  C   UNL     1      -2.159  -2.506  -5.468  0.00  0.00    +0.000 A 
ATOM      6  C   UNL     1      -2.192  -2.298  -4.093  0.00  0.00    +0.000 A 
ATOM      7  F   UNL     1      -1.557  -3.161  -3.286  0.00  0.00    +0.000 F 
ATOM      8  F   UNL     1      -1.480  -3.547  -5.970  0.00  0.00    +0.000 F 
ATOM      9  F   UNL     1      -2.799  -1.843  -7.645  0.00  0.00    +0.000 F 
ATOM     10  F   UNL     1      -4.188   0.270  -6.621  0.00  0.00    +0.000 F 
ATOM     11  F   UNL     1      -4.250   0.700  -3.943  0.00  0.00    +0.000 F 
ENDROOT
BRANCH   1  12
ATOM     12  C   UNL     1      -2.959  -0.993  -2.126  0.00  0.00    +0.000 C 
ATOM     13  O   UNL     1      -3.995  -0.811  -1.514  0.00  0.00    +0.000 OA
BRANCH  12  14
ATOM     14  O   UNL     1      -1.697  -0.973  -1.642  0.00  0.00    +0.000 OA
BRANCH  14  19
ATOM     15  C   UNL     1       1.739   0.057  -0.062  0.00  0.00    +0.000 C 
ATOM     16  C   UNL     1       0.922   1.276   0.350  0.00  0.00    +0.000 C 
ATOM     17  C   UNL     1      -0.336   1.529  -0.474  0.00  0.00    +0.000 C 
ATOM     18  C   UNL     1      -1.548   0.762   0.057  0.00  0.00    +0.000 C 
ATOM     19  C   UNL     1      -1.554  -0.743  -0.224  0.00  0.00    +0.000 C 
ATOM     20  C   UNL     1      -0.301  -1.488   0.258  0.00  0.00    +0.000 C 
ATOM     21  C   UNL     1       0.972  -1.177  -0.527  0.00  0.00    +0.000 C 
ENDBRANCH  14  19
ENDBRANCH  12  14
ENDBRANCH   1  12
TORSDOF 3
