REMARK  Name = *****
REMARK  3 active torsions:
REMARK  status: ('A' for Active; 'I' for Inactive)
REMARK    1  A    between atoms: C_4  and  C_7
REMARK    2  A    between atoms: C_7  and  O_9
REMARK    3  A    between atoms: O_9  and  C_10
REMARK                            x       y       z     vdW  Elec       q    Type
REMARK                         _______ _______ _______ _____ _____    ______ ____
ROOT
ATOM      1  O   UNL     1      -2.952  -0.388  -1.675  0.00  0.00    +0.000 OA
ENDROOT
BRANCH   1   2
ATOM      2  C   UNL     1      -4.214  -0.100  -2.204  0.00  0.00    +0.000 A 
ATOM      3  C   UNL     1      -5.373  -0.523  -1.546  0.00  0.00    +0.000 A 
ATOM      4  C   UNL     1      -6.620  -0.254  -2.111  0.00  0.00    +0.000 A 
ATOM      5  C   UNL     1      -6.700   0.422  -3.333  0.00  0.00    +0.000 A 
ATOM      6  C   UNL     1      -5.532   0.822  -3.988  0.00  0.00    +0.000 A 
ATOM      7  C   UNL     1      -4.282   0.557  -3.434  0.00  0.00    +0.000 A 
ATOM      8 CL   UNL     1      -5.641   1.640  -5.498  0.00  0.00    +0.000 Cl
ATOM      9 CL   UNL     1      -5.297  -1.385  -0.055  0.00  0.00    +0.000 Cl
ENDBRANCH   1   2
BRANCH   1  10
ATOM     10  C   UNL     1      -2.486   0.625  -0.858  0.00  0.00    +0.000 C 
ATOM     11  O   UNL     1      -3.020   1.704  -0.651  0.00  0.00    +0.000 OA
BRANCH  10  15
ATOM     12  C   UNL     1       1.286  -0.403   0.905  0.00  0.00    +0.000 A 
ATOM     13  C   UNL     1       0.576  -1.377   0.203  0.00  0.00    +0.000 A 
ATOM     14  C   UNL     1      -0.655  -1.064  -0.379  0.00  0.00    +0.000 A 
ATOM     15  C   UNL     1      -1.179   0.231  -0.262  0.00  0.00    +0.000 A 
ATOM     16  C   UNL     1      -0.461   1.202   0.450  0.00  0.00    +0.000 A 
ATOM     17  C   UNL     1       0.769   0.885   1.030  0.00  0.00    +0.000 A 
ENDBRANCH  10  15
ENDBRANCH   1  10
TORSDOF 3
