REMARK  Name = *****
REMARK  3 active torsions:
REMARK  status: ('A' for Active; 'I' for Inactive)
REMARK    1  A    between atoms: C_1  and  C_2
REMARK    2  A    between atoms: C_3  and  C_11
REMARK    3  A    between atoms: N_4  and  C_5
REMARK                            x       y       z     vdW  Elec       q    Type
REMARK                         _______ _______ _______ _____ _____    ______ ____
ROOT
ATOM      1  C   UNL     1       2.826   0.177   1.269  0.00  0.00    +0.000 C 
ATOM      2  C   UNL     1       2.812  -0.129  -0.188  0.00  0.00    +0.000 C 
ATOM      3  C   UNL     1       3.780   0.513  -1.182  0.00  0.00    +0.000 C 
ATOM      4  N   UNL     1       3.916  -0.885  -0.752  0.00  0.00    +0.000 N 
ENDROOT
BRANCH   4   5
ATOM      5  C   UNL     1       3.647  -1.924  -1.675  0.00  0.00    +0.000 A 
ATOM      6  C   UNL     1       4.271  -1.953  -2.930  0.00  0.00    +0.000 A 
ATOM      7  C   UNL     1       4.029  -2.998  -3.825  0.00  0.00    +0.000 A 
ATOM      8  C   UNL     1       3.175  -4.038  -3.466  0.00  0.00    +0.000 A 
ATOM      9  C   UNL     1       2.571  -4.040  -2.210  0.00  0.00    +0.000 A 
ATOM     10  C   UNL     1       2.814  -2.993  -1.318  0.00  0.00    +0.000 A 
ENDBRANCH   4   5
BRANCH   3  11
ATOM     11  C   UNL     1       4.821   1.506  -0.733  0.00  0.00    +0.000 A 
ATOM     12  C   UNL     1       6.172   1.154  -0.578  0.00  0.00    +0.000 A 
ATOM     13  C   UNL     1       7.130   2.089  -0.178  0.00  0.00    +0.000 A 
ATOM     14  C   UNL     1       6.755   3.406   0.072  0.00  0.00    +0.000 A 
ATOM     15  C   UNL     1       5.425   3.785  -0.079  0.00  0.00    +0.000 A 
ATOM     16  C   UNL     1       4.471   2.844  -0.479  0.00  0.00    +0.000 A 
ENDBRANCH   3  11
TORSDOF 2
