REMARK  Name = *****
REMARK  4 active torsions:
REMARK  status: ('A' for Active; 'I' for Inactive)
REMARK    1  A    between atoms: C_1  and  O_2
REMARK    2  A    between atoms: O_2  and  C_3
REMARK    3  A    between atoms: C_6  and  C_9
REMARK    4  A    between atoms: C_10  and  C_11
REMARK                            x       y       z     vdW  Elec       q    Type
REMARK                         _______ _______ _______ _____ _____    ______ ____
ROOT
ATOM      1  C   UNL     1       3.206   0.230   1.018  0.00  0.00    +0.000 A 
ATOM      2  C   UNL     1       2.501   0.588   2.166  0.00  0.00    +0.000 A 
ATOM      3  C   UNL     1       3.190   0.980   3.322  0.00  0.00    +0.000 A 
ATOM      4  C   UNL     1       4.589   1.008   3.350  0.00  0.00    +0.000 A 
ATOM      5  C   UNL     1       5.289   0.664   2.189  0.00  0.00    +0.000 A 
ATOM      6  C   UNL     1       4.601   0.274   1.036  0.00  0.00    +0.000 A 
ENDROOT
BRANCH   1   8
ATOM      7  C   UNL     1       1.242  -0.248  -0.233  0.00  0.00    +0.000 C 
ATOM      8  O   UNL     1       2.661  -0.168  -0.171  0.00  0.00    +0.000 OA
ENDBRANCH   1   8
BRANCH   4   9
ATOM      9  C   UNL     1       5.344   1.444   4.533  0.00  0.00    +0.000 C 
ATOM     10  C   UNL     1       4.991   1.151   5.796  0.00  0.00    +0.000 C 
BRANCH  10  11
ATOM     11  C   UNL     1       5.756   1.572   6.978  0.00  0.00    +0.000 A 
ATOM     12  C   UNL     1       6.362   2.833   7.069  0.00  0.00    +0.000 A 
ATOM     13  C   UNL     1       7.054   3.208   8.223  0.00  0.00    +0.000 A 
ATOM     14  C   UNL     1       7.139   2.331   9.303  0.00  0.00    +0.000 A 
ATOM     15  C   UNL     1       6.528   1.081   9.231  0.00  0.00    +0.000 A 
ATOM     16  C   UNL     1       5.835   0.706   8.077  0.00  0.00    +0.000 A 
ENDBRANCH  10  11
ENDBRANCH   4   9
TORSDOF 3
