REMARK  Name = *****
REMARK  3 active torsions:
REMARK  status: ('A' for Active; 'I' for Inactive)
REMARK    1  A    between atoms: C_1  and  C_2
REMARK    2  A    between atoms: C_5  and  C_8
REMARK    3  A    between atoms: C_9  and  C_10
REMARK                            x       y       z     vdW  Elec       q    Type
REMARK                         _______ _______ _______ _____ _____    ______ ____
ROOT
ATOM      1  C   UNL     1      -3.282   0.047  -0.069  0.00  0.00    +0.000 C 
ATOM      2  C   UNL     1      -4.052   1.148  -0.073  0.00  0.00    +0.000 C 
ENDROOT
BRANCH   2   3
ATOM      3  C   UNL     1      -5.521   1.118  -0.092  0.00  0.00    +0.000 A 
ATOM      4  C   UNL     1      -6.258   0.173   0.634  0.00  0.00    +0.000 A 
ATOM      5  C   UNL     1      -7.651   0.206   0.608  0.00  0.00    +0.000 A 
ATOM      6  C   UNL     1      -8.320   1.177  -0.126  0.00  0.00    +0.000 A 
ATOM      7  C   UNL     1      -7.607   2.132  -0.840  0.00  0.00    +0.000 A 
ATOM      8  C   UNL     1      -6.209   2.106  -0.818  0.00  0.00    +0.000 A 
ATOM      9  F   UNL     1      -9.660   1.205  -0.147  0.00  0.00    +0.000 F 
ATOM     10  F   UNL     1      -8.341  -0.707   1.304  0.00  0.00    +0.000 F 
ENDBRANCH   2   3
BRANCH   1  15
ATOM     11  C   UNL     1       2.508   0.008  -0.045  0.00  0.00    +0.000 C 
ATOM     12  C   UNL     1       1.009   0.050  -0.071  0.00  0.00    +0.000 A 
ATOM     13  C   UNL     1       0.310   0.984   0.701  0.00  0.00    +0.000 A 
ATOM     14  C   UNL     1      -1.088   1.000   0.702  0.00  0.00    +0.000 A 
ATOM     15  C   UNL     1      -1.813   0.083  -0.069  0.00  0.00    +0.000 A 
ATOM     16  C   UNL     1      -1.111  -0.871  -0.815  0.00  0.00    +0.000 A 
ATOM     17  C   UNL     1       0.287  -0.887  -0.817  0.00  0.00    +0.000 A 
ENDBRANCH   1  15
TORSDOF 2
