REMARK  Name = *****
REMARK  1 active torsions:
REMARK  status: ('A' for Active; 'I' for Inactive)
REMARK    1  A    between atoms: C_10  and  C_11
REMARK                            x       y       z     vdW  Elec       q    Type
REMARK                         _______ _______ _______ _____ _____    ______ ____
ROOT
ATOM      1  C   UNL     1      -2.168   0.906  -0.056  0.00  0.00    +0.000 C 
ATOM      2  C   UNL     1      -0.805   1.529   0.212  0.00  0.00    +0.000 C 
ATOM      3  C   UNL     1       0.365   0.658  -0.161  0.00  0.00    +0.000 A 
ATOM      4  C   UNL     1       1.605   1.290  -0.377  0.00  0.00    +0.000 A 
ATOM      5  C   UNL     1       2.743   0.553  -0.702  0.00  0.00    +0.000 A 
ATOM      6  C   UNL     1       2.661  -0.829  -0.807  0.00  0.00    +0.000 A 
ATOM      7  C   UNL     1       1.443  -1.470  -0.581  0.00  0.00    +0.000 A 
ATOM      8  C   UNL     1       0.289  -0.740  -0.250  0.00  0.00    +0.000 A 
ATOM      9  S   UNL     1      -1.193  -1.698   0.025  0.00  0.00    +0.000 S 
ATOM     10  C   UNL     1      -2.370  -0.443   0.634  0.00  0.00    +0.000 C 
ENDROOT
BRANCH  10  11
ATOM     11  C   UNL     1      -2.477  -0.338   2.150  0.00  0.00    +0.000 A 
ATOM     12  C   UNL     1      -1.372  -0.436   3.011  0.00  0.00    +0.000 A 
ATOM     13  C   UNL     1      -1.525  -0.302   4.394  0.00  0.00    +0.000 A 
ATOM     14  C   UNL     1      -2.783  -0.063   4.940  0.00  0.00    +0.000 A 
ATOM     15  C   UNL     1      -3.890   0.046   4.104  0.00  0.00    +0.000 A 
ATOM     16  C   UNL     1      -3.738  -0.088   2.722  0.00  0.00    +0.000 A 
ENDBRANCH  10  11
TORSDOF 1
