REMARK  Name = *****
REMARK  4 active torsions:
REMARK  status: ('A' for Active; 'I' for Inactive)
REMARK    1  A    between atoms: C_4  and  O_8
REMARK    2  A    between atoms: C_6  and  C_7
REMARK    3  A    between atoms: O_8  and  C_9
REMARK    4  A    between atoms: C_9  and  C_10
REMARK                            x       y       z     vdW  Elec       q    Type
REMARK                         _______ _______ _______ _____ _____    ______ ____
ROOT
ATOM      1  O   UNL     1       6.119   0.159  -0.469  0.00  0.00    +0.000 OA
ENDROOT
BRANCH   1   5
ATOM      2  C   UNL     1       1.982   0.052  -0.017  0.00  0.00    +0.000 A 
ATOM      3  C   UNL     1       2.696   1.248   0.005  0.00  0.00    +0.000 A 
ATOM      4  C   UNL     1       4.082   1.233  -0.150  0.00  0.00    +0.000 A 
ATOM      5  C   UNL     1       4.765   0.028  -0.328  0.00  0.00    +0.000 A 
ATOM      6  C   UNL     1       4.045  -1.170  -0.348  0.00  0.00    +0.000 A 
ATOM      7  C   UNL     1       2.650  -1.166  -0.192  0.00  0.00    +0.000 A 
ATOM      8  C   UNL     1       1.867  -2.446  -0.215  0.00  0.00    +0.000 C 
ENDBRANCH   1   5
BRANCH   1   9
ATOM      9  C   UNL     1       6.872  -1.036  -0.663  0.00  0.00    +0.000 C 
BRANCH   9  10
ATOM     10  C   UNL     1       8.326  -0.668  -0.846  0.00  0.00    +0.000 A 
ATOM     11  C   UNL     1       9.307  -1.153   0.030  0.00  0.00    +0.000 A 
ATOM     12  C   UNL     1      10.650  -0.820  -0.157  0.00  0.00    +0.000 A 
ATOM     13  C   UNL     1      11.026  -0.000  -1.220  0.00  0.00    +0.000 A 
ATOM     14  C   UNL     1      10.059   0.489  -2.097  0.00  0.00    +0.000 A 
ATOM     15  C   UNL     1       8.717   0.157  -1.912  0.00  0.00    +0.000 A 
ENDBRANCH   9  10
ENDBRANCH   1   9
TORSDOF 3
