REMARK  Name = *****
REMARK  3 active torsions:
REMARK  status: ('A' for Active; 'I' for Inactive)
REMARK    1  A    between atoms: C_4  and  O_7
REMARK    2  A    between atoms: O_7  and  C_8
REMARK    3  A    between atoms: C_8  and  C_10
REMARK                            x       y       z     vdW  Elec       q    Type
REMARK                         _______ _______ _______ _____ _____    ______ ____
ROOT
ATOM      1  C   UNL     1       3.035  -2.187  -0.167  0.00  0.00    +0.000 C 
ATOM      2  O   UNL     1       2.494  -2.900   0.669  0.00  0.00    +0.000 OA
ENDROOT
BRANCH   1   3
ATOM      3  C   UNL     1       4.492  -2.292  -0.562  0.00  0.00    +0.000 C 
ATOM      4  C   UNL     1       4.817  -1.955  -2.052  0.00  0.00    +0.000 C 
ATOM      5  C   UNL     1       5.580  -3.210  -2.530  0.00  0.00    +0.000 C 
ATOM      6  C   UNL     1       6.331  -3.614  -1.258  0.00  0.00    +0.000 C 
ATOM      7  C   UNL     1       5.050  -3.731  -0.423  0.00  0.00    +0.000 C 
ATOM      8  C   UNL     1       4.277  -4.666  -1.329  0.00  0.00    +0.000 C 
ATOM      9  C   UNL     1       4.590  -4.347  -2.593  0.00  0.00    +0.000 C 
ENDBRANCH   1   3
BRANCH   1  10
ATOM     10  O   UNL     1       2.441  -1.130  -0.787  0.00  0.00    +0.000 OA
BRANCH  10  14
ATOM     11  C   UNL     1      -1.611  -0.081  -1.476  0.00  0.00    +0.000 C 
ATOM     12  C   UNL     1      -1.301  -1.546  -1.181  0.00  0.00    +0.000 C 
ATOM     13  C   UNL     1       0.186  -1.849  -1.342  0.00  0.00    +0.000 C 
ATOM     14  C   UNL     1       1.050  -0.916  -0.487  0.00  0.00    +0.000 C 
ATOM     15  C   UNL     1       0.736   0.550  -0.800  0.00  0.00    +0.000 C 
ATOM     16  C   UNL     1      -0.749   0.858  -0.636  0.00  0.00    +0.000 C 
ENDBRANCH  10  14
ENDBRANCH   1  10
TORSDOF 3
