REMARK  Name = *****
REMARK  2 active torsions:
REMARK  status: ('A' for Active; 'I' for Inactive)
REMARK    1  A    between atoms: C_5  and  C_7
REMARK    2  A    between atoms: C_8  and  C_9
REMARK                            x       y       z     vdW  Elec       q    Type
REMARK                         _______ _______ _______ _____ _____    ______ ____
ROOT
ATOM      1  C   UNL     1      -0.563  -1.200   0.039  0.00  0.00    +0.000 A 
ATOM      2  C   UNL     1      -1.329  -0.037   0.092  0.00  0.00    +0.000 A 
ATOM      3  C   UNL     1      -0.707   1.211   0.025  0.00  0.00    +0.000 A 
ATOM      4  C   UNL     1       0.684   1.296  -0.096  0.00  0.00    +0.000 A 
ATOM      5  C   UNL     1       1.459   0.130  -0.151  0.00  0.00    +0.000 A 
ATOM      6  C   UNL     1       0.826  -1.117  -0.082  0.00  0.00    +0.000 A 
ATOM      7 BR   UNL     1       1.456   3.032  -0.182  0.00  0.00    +0.000 Br
ENDROOT
BRANCH   5   8
ATOM      8  C   UNL     1       2.886   0.161  -0.276  0.00  0.00    +0.000 C 
ATOM      9  C   UNL     1       4.083   0.187  -0.382  0.00  0.00    +0.000 C 
BRANCH   9  10
ATOM     10  C   UNL     1       5.501   0.227  -0.510  0.00  0.00    +0.000 A 
ATOM     11  C   UNL     1       6.253   1.380  -0.588  0.00  0.00    +0.000 A 
ATOM     12  C   UNL     1       7.648   1.107  -0.712  0.00  0.00    +0.000 A 
ATOM     13  C   UNL     1       7.908  -0.246  -0.725  0.00  0.00    +0.000 A 
ATOM     14  S   UNL     1       6.476  -1.175  -0.587  0.00  0.00    +0.000 S 
ENDBRANCH   9  10
ENDBRANCH   5   8
TORSDOF 2
