REMARK  Name = *****
REMARK  3 active torsions:
REMARK  status: ('A' for Active; 'I' for Inactive)
REMARK    1  A    between atoms: C_4  and  C_7
REMARK    2  A    between atoms: C_7  and  N_8
REMARK    3  A    between atoms: C_9  and  C_10
REMARK                            x       y       z     vdW  Elec       q    Type
REMARK                         _______ _______ _______ _____ _____    ______ ____
ROOT
ATOM      1  N   UNL     1      -3.483  -1.096  -0.199  0.00  0.00    +0.000 NA
ATOM      2  C   UNL     1      -4.693  -1.031  -0.653  0.00  0.00    +0.000 C 
ENDROOT
BRANCH   2   3
ATOM      3  C   UNL     1      -5.601  -2.196  -0.618  0.00  0.00    +0.000 A 
ATOM      4  C   UNL     1      -5.177  -3.419  -0.090  0.00  0.00    +0.000 A 
ATOM      5  C   UNL     1      -6.052  -4.505  -0.069  0.00  0.00    +0.000 A 
ATOM      6  C   UNL     1      -7.346  -4.370  -0.574  0.00  0.00    +0.000 A 
ATOM      7  C   UNL     1      -7.769  -3.148  -1.100  0.00  0.00    +0.000 A 
ATOM      8  C   UNL     1      -6.897  -2.058  -1.124  0.00  0.00    +0.000 A 
ENDBRANCH   2   3
BRANCH   1   9
ATOM      9  C   UNL     1      -2.742   0.051  -0.292  0.00  0.00    +0.000 C 
BRANCH   9  13
ATOM     10  C   UNL     1       1.301   0.281   1.088  0.00  0.00    +0.000 A 
ATOM     11  C   UNL     1       0.588  -0.907   1.229  0.00  0.00    +0.000 A 
ATOM     12  C   UNL     1      -0.733  -0.988   0.780  0.00  0.00    +0.000 A 
ATOM     13  C   UNL     1      -1.355   0.117   0.186  0.00  0.00    +0.000 A 
ATOM     14  C   UNL     1      -0.628   1.307   0.050  0.00  0.00    +0.000 A 
ATOM     15  C   UNL     1       0.694   1.388   0.499  0.00  0.00    +0.000 A 
ENDBRANCH   9  13
ENDBRANCH   1   9
TORSDOF 3
