REMARK  Name = *****
REMARK  3 active torsions:
REMARK  status: ('A' for Active; 'I' for Inactive)
REMARK    1  A    between atoms: C_5  and  O_7
REMARK    2  A    between atoms: O_7  and  C_8
REMARK    3  A    between atoms: C_8  and  C_10
REMARK                            x       y       z     vdW  Elec       q    Type
REMARK                         _______ _______ _______ _____ _____    ______ ____
ROOT
ATOM      1  C   UNL     1      -1.612  -2.582   1.869  0.00  0.00    +0.000 C 
ATOM      2  O   UNL     1      -1.571  -3.550   1.127  0.00  0.00    +0.000 OA
ENDROOT
BRANCH   1   3
ATOM      3  C   UNL     1      -2.011  -2.665   3.301  0.00  0.00    +0.000 A 
ATOM      4  C   UNL     1      -2.373  -3.919   3.815  0.00  0.00    +0.000 A 
ATOM      5  C   UNL     1      -2.755  -4.051   5.154  0.00  0.00    +0.000 A 
ATOM      6  C   UNL     1      -2.776  -2.930   5.981  0.00  0.00    +0.000 A 
ATOM      7  C   UNL     1      -2.417  -1.678   5.482  0.00  0.00    +0.000 A 
ATOM      8  C   UNL     1      -2.034  -1.544   4.144  0.00  0.00    +0.000 A 
ATOM      9 CL   UNL     1      -3.245  -3.090   7.627  0.00  0.00    +0.000 Cl
ENDBRANCH   1   3
BRANCH   1  10
ATOM     10  O   UNL     1      -1.314  -1.304   1.537  0.00  0.00    +0.000 OA
BRANCH  10  15
ATOM     11  C   UNL     1      -0.438   1.407   0.395  0.00  0.00    +0.000 C 
ATOM     12  C   UNL     1       1.021   1.215  -0.029  0.00  0.00    +0.000 C 
ATOM     13  C   UNL     1       1.458  -0.220   0.003  0.00  0.00    +0.000 C 
ATOM     14  C   UNL     1       0.598  -1.244   0.117  0.00  0.00    +0.000 C 
ATOM     15  C   UNL     1      -0.897  -1.079   0.178  0.00  0.00    +0.000 C 
ATOM     16  C   UNL     1      -1.342   0.338  -0.220  0.00  0.00    +0.000 C 
ENDBRANCH  10  15
ENDBRANCH   1  10
TORSDOF 3
