REMARK  Name = *****
REMARK  6 active torsions:
REMARK  status: ('A' for Active; 'I' for Inactive)
REMARK    1  A    between atoms: C_1  and  C_2
REMARK    2  A    between atoms: C_2  and  O_4
REMARK    3  A    between atoms: O_4  and  C_5
REMARK    4  A    between atoms: C_5  and  C_6
REMARK    5  A    between atoms: C_5  and  C_13
REMARK    6  A    between atoms: C_6  and  C_7
REMARK                            x       y       z     vdW  Elec       q    Type
REMARK                         _______ _______ _______ _____ _____    ______ ____
ROOT
ATOM      1  C   UNL     1       4.505  -1.286  -0.227  0.00  0.00    +0.000 C 
ENDROOT
BRANCH   1   2
ATOM      2  C   UNL     1       5.040  -2.651  -0.632  0.00  0.00    +0.000 A 
ATOM      3  C   UNL     1       6.051  -2.749  -1.600  0.00  0.00    +0.000 A 
ATOM      4  C   UNL     1       6.564  -3.994  -1.970  0.00  0.00    +0.000 A 
ATOM      5  C   UNL     1       6.075  -5.155  -1.375  0.00  0.00    +0.000 A 
ATOM      6  C   UNL     1       5.073  -5.074  -0.411  0.00  0.00    +0.000 A 
ATOM      7  C   UNL     1       4.559  -3.830  -0.040  0.00  0.00    +0.000 A 
ENDBRANCH   1   2
BRANCH   1   8
ATOM      8  O   UNL     1       3.065  -1.373  -0.193  0.00  0.00    +0.000 OA
BRANCH   8  10
ATOM      9  C   UNL     1       0.910  -0.591  -0.637  0.00  0.00    +0.000 C 
ATOM     10  C   UNL     1       2.382  -0.379  -0.817  0.00  0.00    +0.000 C 
ATOM     11  O   UNL     1       2.867   0.554  -1.439  0.00  0.00    +0.000 OA
ENDBRANCH   8  10
ENDBRANCH   1   8
BRANCH   1  12
ATOM     12  C   UNL     1       5.022  -0.895   1.175  0.00  0.00    +0.000 C 
BRANCH  12  13
ATOM     13  C   UNL     1       4.670   0.523   1.585  0.00  0.00    +0.000 C 
ATOM     14  C   UNL     1       3.771   0.777   2.554  0.00  0.00    +0.000 C 
ATOM     15  C   UNL     1       3.367   2.160   2.978  0.00  0.00    +0.000 C 
ATOM     16  C   UNL     1       3.831   3.246   2.008  0.00  0.00    +0.000 C 
ATOM     17  C   UNL     1       5.264   2.999   1.555  0.00  0.00    +0.000 C 
ATOM     18  C   UNL     1       5.400   1.637   0.868  0.00  0.00    +0.000 C 
ENDBRANCH  12  13
ENDBRANCH   1  12
TORSDOF 5
