REMARK  Name = *****
REMARK  3 active torsions:
REMARK  status: ('A' for Active; 'I' for Inactive)
REMARK    1  A    between atoms: C_5  and  C_7
REMARK    2  A    between atoms: C_7  and  S_8
REMARK    3  A    between atoms: S_8  and  C_9
REMARK                            x       y       z     vdW  Elec       q    Type
REMARK                         _______ _______ _______ _____ _____    ______ ____
ROOT
ATOM      1  S   UNL     1       2.779  -2.134  -0.491  0.00  0.00    +0.000 S 
ENDROOT
BRANCH   1   2
ATOM      2  C   UNL     1       3.547  -3.729  -0.243  0.00  0.00    +0.000 A 
ATOM      3  C   UNL     1       4.942  -3.749  -0.114  0.00  0.00    +0.000 A 
ATOM      4  C   UNL     1       5.618  -4.956   0.057  0.00  0.00    +0.000 A 
ATOM      5  C   UNL     1       4.922  -6.159   0.098  0.00  0.00    +0.000 A 
ATOM      6  C   UNL     1       3.536  -6.155  -0.037  0.00  0.00    +0.000 A 
ATOM      7  C   UNL     1       2.852  -4.944  -0.212  0.00  0.00    +0.000 A 
ATOM      8 CL   UNL     1       5.750  -7.653   0.305  0.00  0.00    +0.000 Cl
ATOM      9  F   UNL     1       6.954  -4.933   0.178  0.00  0.00    +0.000 F 
ENDBRANCH   1   2
BRANCH   1  10
ATOM     10  C   UNL     1       1.060  -2.413   0.058  0.00  0.00    +0.000 C 
BRANCH  10  15
ATOM     11  C   UNL     1      -0.332   0.953   1.197  0.00  0.00    +0.000 A 
ATOM     12  C   UNL     1      -1.173   1.279   0.133  0.00  0.00    +0.000 A 
ATOM     13  C   UNL     1      -1.290   0.410  -0.950  0.00  0.00    +0.000 A 
ATOM     14  C   UNL     1      -0.565  -0.778  -0.961  0.00  0.00    +0.000 A 
ATOM     15  C   UNL     1       0.280  -1.127   0.096  0.00  0.00    +0.000 A 
ATOM     16  C   UNL     1       0.393  -0.242   1.180  0.00  0.00    +0.000 A 
ATOM     17  F   UNL     1      -0.697  -1.602  -2.011  0.00  0.00    +0.000 F 
ENDBRANCH  10  15
ENDBRANCH   1  10
TORSDOF 3
