REMARK  Name = *****
REMARK  3 active torsions:
REMARK  status: ('A' for Active; 'I' for Inactive)
REMARK    1  A    between atoms: C_4  and  C_7
REMARK    2  A    between atoms: C_8  and  C_9
REMARK    3  A    between atoms: C_12  and  C_15
REMARK                            x       y       z     vdW  Elec       q    Type
REMARK                         _______ _______ _______ _____ _____    ______ ____
ROOT
ATOM      1  C   UNL     1      -0.775  -1.240   1.854  0.00  0.00    +0.000 C 
ATOM      2  C   UNL     1      -0.830  -1.296   3.052  0.00  0.00    +0.000 C 
ENDROOT
BRANCH   1   6
ATOM      3  C   UNL     1       0.758   1.319  -0.377  0.00  0.00    +0.000 C 
ATOM      4  C   UNL     1       1.503   0.106   0.172  0.00  0.00    +0.000 C 
ATOM      5  C   UNL     1       0.748  -1.194  -0.107  0.00  0.00    +0.000 C 
ATOM      6  C   UNL     1      -0.707  -1.160   0.380  0.00  0.00    +0.000 C 
ATOM      7  C   UNL     1      -1.436   0.088  -0.137  0.00  0.00    +0.000 C 
ATOM      8  C   UNL     1      -0.674   1.384   0.142  0.00  0.00    +0.000 C 
ENDBRANCH   1   6
BRANCH   2   9
ATOM      9  C   UNL     1      -0.893  -1.350   4.480  0.00  0.00    +0.000 A 
ATOM     10  C   UNL     1      -0.624  -2.546   5.148  0.00  0.00    +0.000 A 
ATOM     11  C   UNL     1      -0.684  -2.598   6.544  0.00  0.00    +0.000 A 
ATOM     12  C   UNL     1      -1.015  -1.451   7.275  0.00  0.00    +0.000 A 
ATOM     13  C   UNL     1      -1.285  -0.253   6.603  0.00  0.00    +0.000 A 
ATOM     14  C   UNL     1      -1.223  -0.204   5.207  0.00  0.00    +0.000 A 
BRANCH  12  15
ATOM     15  C   UNL     1      -1.077  -1.503   8.706  0.00  0.00    +0.000 C 
ATOM     16  N   UNL     1      -1.128  -1.544   9.865  0.00  0.00    +0.000 NA
ENDBRANCH  12  15
ENDBRANCH   2   9
TORSDOF 3
