REMARK  Name = *****
REMARK  2 active torsions:
REMARK  status: ('A' for Active; 'I' for Inactive)
REMARK    1  A    between atoms: C_6  and  C_7
REMARK    2  A    between atoms: C_8  and  C_9
REMARK                            x       y       z     vdW  Elec       q    Type
REMARK                         _______ _______ _______ _____ _____    ______ ____
ROOT
ATOM      1  C   UNL     1       1.317   2.623  -0.282  0.00  0.00    +0.000 C 
ATOM      2  C   UNL     1       1.852   3.694  -0.388  0.00  0.00    +0.000 C 
ENDROOT
BRANCH   1   8
ATOM      3  C   UNL     1      -0.715   1.264  -0.136  0.00  0.00    +0.000 A 
ATOM      4  C   UNL     1      -1.338   0.019  -0.013  0.00  0.00    +0.000 A 
ATOM      5  C   UNL     1      -0.563  -1.136   0.090  0.00  0.00    +0.000 A 
ATOM      6  C   UNL     1       0.829  -1.057   0.072  0.00  0.00    +0.000 A 
ATOM      7  C   UNL     1       1.451   0.188  -0.052  0.00  0.00    +0.000 A 
ATOM      8  C   UNL     1       0.680   1.349  -0.156  0.00  0.00    +0.000 A 
ATOM      9 CL   UNL     1      -1.330  -2.668   0.242  0.00  0.00    +0.000 Cl
ENDBRANCH   1   8
BRANCH   2  10
ATOM     10  C   UNL     1       2.489   4.967  -0.514  0.00  0.00    +0.000 A 
ATOM     11  C   UNL     1       1.856   6.115  -0.047  0.00  0.00    +0.000 A 
ATOM     12  C   UNL     1       2.513   7.324  -0.193  0.00  0.00    +0.000 A 
ATOM     13  N   UNL     1       3.732   7.453  -0.760  0.00  0.00    +0.000 NA
ATOM     14  C   UNL     1       4.321   6.320  -1.203  0.00  0.00    +0.000 A 
ATOM     15  C   UNL     1       3.746   5.065  -1.104  0.00  0.00    +0.000 A 
ENDBRANCH   2  10
TORSDOF 2
