REMARK  Name = *****
REMARK  3 active torsions:
REMARK  status: ('A' for Active; 'I' for Inactive)
REMARK    1  A    between atoms: C_4  and  C_7
REMARK    2  A    between atoms: C_7  and  C_8
REMARK    3  A    between atoms: C_8  and  C_9
REMARK                            x       y       z     vdW  Elec       q    Type
REMARK                         _______ _______ _______ _____ _____    ______ ____
ROOT
ATOM      1  C   UNL     1      -3.637  -0.773  -0.422  0.00  0.00    +0.000 C 
ATOM      2  F   UNL     1      -3.124  -1.252  -1.594  0.00  0.00    +0.000 F 
ATOM      3  F   UNL     1      -3.414  -1.751   0.504  0.00  0.00    +0.000 F 
ENDROOT
BRANCH   1   4
ATOM      4  C   UNL     1      -5.118  -0.464  -0.554  0.00  0.00    +0.000 A 
ATOM      5  C   UNL     1      -5.973  -0.591   0.553  0.00  0.00    +0.000 A 
ATOM      6  C   UNL     1      -7.328  -0.287   0.430  0.00  0.00    +0.000 A 
ATOM      7  C   UNL     1      -7.849   0.144  -0.788  0.00  0.00    +0.000 A 
ATOM      8  C   UNL     1      -7.010   0.271  -1.894  0.00  0.00    +0.000 A 
ATOM      9  C   UNL     1      -5.652  -0.031  -1.778  0.00  0.00    +0.000 A 
ATOM     10 CL   UNL     1      -8.364  -0.443   1.795  0.00  0.00    +0.000 Cl
ENDBRANCH   1   4
BRANCH   1  11
ATOM     11  C   UNL     1      -2.863   0.491  -0.015  0.00  0.00    +0.000 C 
BRANCH  11  15
ATOM     12  C   UNL     1       1.382  -0.157   0.431  0.00  0.00    +0.000 A 
ATOM     13  C   UNL     1       0.858   0.208  -0.808  0.00  0.00    +0.000 A 
ATOM     14  C   UNL     1      -0.514   0.419  -0.953  0.00  0.00    +0.000 A 
ATOM     15  C   UNL     1      -1.375   0.270   0.142  0.00  0.00    +0.000 A 
ATOM     16  C   UNL     1      -0.839  -0.106   1.382  0.00  0.00    +0.000 A 
ATOM     17  C   UNL     1       0.533  -0.316   1.525  0.00  0.00    +0.000 A 
ENDBRANCH  11  15
ENDBRANCH   1  11
TORSDOF 3
