REMARK  Name = *****
REMARK  2 active torsions:
REMARK  status: ('A' for Active; 'I' for Inactive)
REMARK    1  A    between atoms: C_4  and  C_7
REMARK    2  A    between atoms: C_7  and  P_8
REMARK                            x       y       z     vdW  Elec       q    Type
REMARK                         _______ _______ _______ _____ _____    ______ ____
ROOT
ATOM      1  C   UNL     1       2.220  -0.462   0.838  0.00  0.00    +0.000 C 
ENDROOT
BRANCH   1   2
ATOM      2  P   UNL     1       3.037  -1.941   1.564  0.00  0.00    +0.000 P 
ATOM      3  S   UNL     1       3.002  -3.477   0.347  0.00  0.00    +0.000 S 
ATOM      4  S   UNL     1       4.992  -1.228   2.005  0.00  0.00    +0.000 S 
ATOM      5  C   UNL     1       4.993  -0.863   3.780  0.00  0.00    +0.000 C 
ATOM      6  C   UNL     1       3.809   0.010   4.176  0.00  0.00    +0.000 C 
ATOM      7  C   UNL     1       2.483  -0.713   4.420  0.00  0.00    +0.000 C 
ATOM      8  S   UNL     1       2.157  -2.213   3.466  0.00  0.00    +0.000 S 
ENDBRANCH   1   2
BRANCH   1  12
ATOM      9  C   UNL     1      -1.956   0.104  -0.372  0.00  0.00    +0.000 C 
ATOM     10  C   UNL     1      -1.554  -1.269   0.150  0.00  0.00    +0.000 C 
ATOM     11  C   UNL     1      -0.037  -1.459   0.146  0.00  0.00    +0.000 C 
ATOM     12  C   UNL     1       0.688  -0.346   0.911  0.00  0.00    +0.000 C 
ATOM     13  C   UNL     1       0.259   1.037   0.384  0.00  0.00    +0.000 C 
ATOM     14  C   UNL     1      -1.256   1.215   0.400  0.00  0.00    +0.000 C 
ENDBRANCH   1  12
TORSDOF 2
