REMARK  Name = *****
REMARK  3 active torsions:
REMARK  status: ('A' for Active; 'I' for Inactive)
REMARK    1  A    between atoms: C_5  and  C_6
REMARK    2  A    between atoms: C_5  and  C_14
REMARK    3  A    between atoms: C_6  and  C_7
REMARK                            x       y       z     vdW  Elec       q    Type
REMARK                         _______ _______ _______ _____ _____    ______ ____
ROOT
ATOM      1  C   UNL     1       0.936   1.818   3.235  0.00  0.00    +0.000 C 
ATOM      2  C   UNL     1       2.290   1.605   2.587  0.00  0.00    +0.000 C 
ATOM      3  S   UNL     1       2.004   1.166   0.848  0.00  0.00    +0.000 S 
ATOM      4  C   UNL     1       0.562   2.143   0.632  0.00  0.00    +0.000 C 
ATOM      5  C   UNL     1      -0.045   2.307  -0.565  0.00  0.00    +0.000 C 
ATOM      6  S   UNL     1      -0.039   2.862   2.112  0.00  0.00    +0.000 S 
ENDROOT
BRANCH   5   7
ATOM      7  C   UNL     1       0.498   1.706  -1.747  0.00  0.00    +0.000 C 
ATOM      8  N   UNL     1       0.895   1.248  -2.736  0.00  0.00    +0.000 NA
ENDBRANCH   5   7
BRANCH   5   9
ATOM      9  C   UNL     1      -1.294   3.141  -0.795  0.00  0.00    +0.000 C 
BRANCH   9  10
ATOM     10  C   UNL     1      -2.576   2.341  -0.684  0.00  0.00    +0.000 A 
ATOM     11  C   UNL     1      -3.386   2.454   0.456  0.00  0.00    +0.000 A 
ATOM     12  C   UNL     1      -4.555   1.699   0.575  0.00  0.00    +0.000 A 
ATOM     13  C   UNL     1      -4.922   0.825  -0.445  0.00  0.00    +0.000 A 
ATOM     14  C   UNL     1      -4.133   0.704  -1.586  0.00  0.00    +0.000 A 
ATOM     15  C   UNL     1      -2.965   1.461  -1.707  0.00  0.00    +0.000 A 
ATOM     16 CL   UNL     1      -6.358  -0.111  -0.293  0.00  0.00    +0.000 Cl
ENDBRANCH   9  10
ENDBRANCH   5   9
TORSDOF 3
