REMARK  Name = *****
REMARK  3 active torsions:
REMARK  status: ('A' for Active; 'I' for Inactive)
REMARK    1  A    between atoms: C_1  and  C_2
REMARK    2  A    between atoms: C_2  and  C_10
REMARK    3  A    between atoms: C_10  and  C_12
REMARK                            x       y       z     vdW  Elec       q    Type
REMARK                         _______ _______ _______ _____ _____    ______ ____
ROOT
ATOM      1  C   UNL     1       1.228  -0.990   0.423  0.00  0.00    +0.000 C 
ATOM      2  C   UNL     1       2.659  -0.608   0.228  0.00  0.00    +0.000 C 
ATOM      3  C   UNL     1       3.370   0.030   1.137  0.00  0.00    +0.000 C 
ATOM      4  C   UNL     1       4.630   0.554   1.493  0.00  0.00    +0.000 C 
ATOM      5  C   UNL     1       3.367   0.636   2.411  0.00  0.00    +0.000 C 
ATOM      6  C   UNL     1       2.839   2.016   2.640  0.00  0.00    +0.000 C 
ATOM      7  C   UNL     1       3.980   2.965   3.018  0.00  0.00    +0.000 C 
ATOM      8  C   UNL     1       5.221   2.887   2.106  0.00  0.00    +0.000 C 
ATOM      9  C   UNL     1       5.127   1.863   0.971  0.00  0.00    +0.000 C 
ENDROOT
BRANCH   2  10
ATOM     10  C   UNL     1       3.384  -1.071  -0.989  0.00  0.00    +0.000 C 
ATOM     11  O   UNL     1       4.492  -1.596  -0.920  0.00  0.00    +0.000 OA
BRANCH  10  12
ATOM     12  C   UNL     1       2.708  -0.950  -2.304  0.00  0.00    +0.000 A 
ATOM     13  C   UNL     1       1.908   0.154  -2.623  0.00  0.00    +0.000 A 
ATOM     14  C   UNL     1       1.296   0.232  -3.876  0.00  0.00    +0.000 A 
ATOM     15  C   UNL     1       1.490  -0.783  -4.814  0.00  0.00    +0.000 A 
ATOM     16  C   UNL     1       2.305  -1.873  -4.507  0.00  0.00    +0.000 A 
ATOM     17  C   UNL     1       2.919  -1.954  -3.257  0.00  0.00    +0.000 A 
ENDBRANCH  10  12
ENDBRANCH   2  10
TORSDOF 2
