REMARK  Name = *****
REMARK  4 active torsions:
REMARK  status: ('A' for Active; 'I' for Inactive)
REMARK    1  A    between atoms: C_1  and  C_2
REMARK    2  A    between atoms: C_5  and  O_8
REMARK    3  A    between atoms: O_8  and  C_9
REMARK    4  A    between atoms: C_9  and  C_10
REMARK                            x       y       z     vdW  Elec       q    Type
REMARK                         _______ _______ _______ _____ _____    ______ ____
ROOT
ATOM      1  C   UNL     1       2.830   0.846   0.356  0.00  0.00    +0.000 C 
ATOM      2  C   UNL     1       1.597   0.017   0.154  0.00  0.00    +0.000 A 
ATOM      3  C   UNL     1       1.414  -1.183   0.847  0.00  0.00    +0.000 A 
ATOM      4  C   UNL     1       0.259  -1.943   0.652  0.00  0.00    +0.000 A 
ATOM      5  C   UNL     1      -0.736  -1.526  -0.235  0.00  0.00    +0.000 A 
ATOM      6  C   UNL     1      -0.559  -0.315  -0.911  0.00  0.00    +0.000 A 
ATOM      7  C   UNL     1       0.595   0.451  -0.721  0.00  0.00    +0.000 A 
ATOM      8  F   UNL     1       0.143  -3.083   1.349  0.00  0.00    +0.000 F 
ENDROOT
BRANCH   5   9
ATOM      9  O   UNL     1      -1.904  -2.170  -0.534  0.00  0.00    +0.000 OA
BRANCH   9  10
ATOM     10  C   UNL     1      -2.080  -3.483   0.000  0.00  0.00    +0.000 C 
BRANCH  10  11
ATOM     11  C   UNL     1      -3.345  -4.080  -0.574  0.00  0.00    +0.000 A 
ATOM     12  C   UNL     1      -3.335  -5.365  -1.135  0.00  0.00    +0.000 A 
ATOM     13  C   UNL     1      -4.507  -5.926  -1.647  0.00  0.00    +0.000 A 
ATOM     14  C   UNL     1      -5.702  -5.211  -1.598  0.00  0.00    +0.000 A 
ATOM     15  C   UNL     1      -5.728  -3.936  -1.035  0.00  0.00    +0.000 A 
ATOM     16  C   UNL     1      -4.557  -3.375  -0.522  0.00  0.00    +0.000 A 
ENDBRANCH  10  11
ENDBRANCH   9  10
ENDBRANCH   5   9
TORSDOF 3
