REMARK  Name = *****
REMARK  3 active torsions:
REMARK  status: ('A' for Active; 'I' for Inactive)
REMARK    1  A    between atoms: C_1  and  C_2
REMARK    2  A    between atoms: N_8  and  S_9
REMARK    3  A    between atoms: S_9  and  C_10
REMARK                            x       y       z     vdW  Elec       q    Type
REMARK                         _______ _______ _______ _____ _____    ______ ____
ROOT
ATOM      1  C   UNL     1       0.971   0.044   0.325  0.00  0.00    +0.000 C 
ATOM      2  C   UNL     1       2.480   0.124   0.104  0.00  0.00    +0.000 C 
ATOM      3  C   UNL     1       2.856   1.055  -1.058  0.00  0.00    +0.000 C 
ATOM      4  C   UNL     1       2.542   0.474  -2.436  0.00  0.00    +0.000 C 
ATOM      5  C   UNL     1       3.203  -0.889  -2.619  0.00  0.00    +0.000 C 
ATOM      6  C   UNL     1       2.776  -1.865  -1.534  0.00  0.00    +0.000 C 
ATOM      7  C   UNL     1       3.041  -1.277  -0.155  0.00  0.00    +0.000 C 
ATOM      8  N   UNL     1       3.672  -2.042   0.683  0.00  0.00    +0.000 NA
ENDROOT
BRANCH   8   9
ATOM      9  S   UNL     1       3.980  -1.525   2.236  0.00  0.00    +0.000 S 
BRANCH   9  10
ATOM     10  C   UNL     1       5.008  -2.866   2.819  0.00  0.00    +0.000 A 
ATOM     11  C   UNL     1       6.076  -2.580   3.677  0.00  0.00    +0.000 A 
ATOM     12  C   UNL     1       6.888  -3.607   4.166  0.00  0.00    +0.000 A 
ATOM     13  C   UNL     1       6.634  -4.929   3.804  0.00  0.00    +0.000 A 
ATOM     14  C   UNL     1       5.569  -5.225   2.955  0.00  0.00    +0.000 A 
ATOM     15  C   UNL     1       4.758  -4.198   2.466  0.00  0.00    +0.000 A 
ENDBRANCH   9  10
ENDBRANCH   8   9
TORSDOF 2
