REMARK  Name = *****
REMARK  4 active torsions:
REMARK  status: ('A' for Active; 'I' for Inactive)
REMARK    1  A    between atoms: C_1  and  N_2
REMARK    2  A    between atoms: N_2  and  C_3
REMARK    3  A    between atoms: N_2  and  C_9
REMARK    4  A    between atoms: C_3  and  C_4
REMARK                            x       y       z     vdW  Elec       q    Type
REMARK                         _______ _______ _______ _____ _____    ______ ____
ROOT
ATOM      1  C   UNL     1       0.943  -0.134  -0.401  0.00  0.00    +0.000 C 
ATOM      2  N   UNL     1       2.328  -0.077   0.054  0.00  0.00    +0.000 N 
ENDROOT
BRANCH   2   3
ATOM      3  C   UNL     1       3.131  -1.216   0.027  0.00  0.00    +0.000 A 
ATOM      4  C   UNL     1       2.722  -2.411  -0.589  0.00  0.00    +0.000 A 
ATOM      5  C   UNL     1       3.536  -3.549  -0.596  0.00  0.00    +0.000 A 
ATOM      6  C   UNL     1       4.780  -3.537   0.021  0.00  0.00    +0.000 A 
ATOM      7  C   UNL     1       5.208  -2.377   0.653  0.00  0.00    +0.000 A 
ATOM      8  C   UNL     1       4.390  -1.240   0.655  0.00  0.00    +0.000 A 
ATOM      9 CL   UNL     1       2.990  -4.983  -1.380  0.00  0.00    +0.000 Cl
ENDBRANCH   2   3
BRANCH   2  10
ATOM     10  C   UNL     1       2.943   1.256   0.071  0.00  0.00    +0.000 C 
BRANCH  10  11
ATOM     11  C   UNL     1       2.874   1.868   1.432  0.00  0.00    +0.000 C 
ATOM     12  C   UNL     1       2.399   1.379   2.592  0.00  0.00    +0.000 C 
ATOM     13  C   UNL     1       2.562   2.361   3.634  0.00  0.00    +0.000 C 
ATOM     14  C   UNL     1       3.137   3.459   3.124  0.00  0.00    +0.000 C 
ATOM     15  C   UNL     1       3.399   3.262   1.660  0.00  0.00    +0.000 C 
ENDBRANCH  10  11
ENDBRANCH   2  10
TORSDOF 3
