REMARK  Name = *****
REMARK  4 active torsions:
REMARK  status: ('A' for Active; 'I' for Inactive)
REMARK    1  A    between atoms: C_1  and  C_2
REMARK    2  A    between atoms: C_5  and  C_8
REMARK    3  A    between atoms: C_9  and  C_10
REMARK    4  A    between atoms: C_15  and  C_16
REMARK                            x       y       z     vdW  Elec       q    Type
REMARK                         _______ _______ _______ _____ _____    ______ ____
ROOT
ATOM      1  C   UNL     1       6.849   0.056  -0.723  0.00  0.00    +0.000 C 
ATOM      2  C   UNL     1       8.026   0.057  -0.965  0.00  0.00    +0.000 C 
ENDROOT
BRANCH   1   7
ATOM      3  C   UNL     1       1.196  -0.020   0.249  0.00  0.00    +0.000 C 
ATOM      4  C   UNL     1       2.679   0.010   0.022  0.00  0.00    +0.000 A 
ATOM      5  C   UNL     1       3.361   1.225  -0.115  0.00  0.00    +0.000 A 
ATOM      6  C   UNL     1       4.739   1.241  -0.351  0.00  0.00    +0.000 A 
ATOM      7  C   UNL     1       5.444   0.041  -0.459  0.00  0.00    +0.000 A 
ATOM      8  C   UNL     1       4.771  -1.174  -0.326  0.00  0.00    +0.000 A 
ATOM      9  C   UNL     1       3.394  -1.189  -0.089  0.00  0.00    +0.000 A 
ENDBRANCH   1   7
BRANCH   2  10
ATOM     10  C   UNL     1       9.425   0.055  -1.277  0.00  0.00    +0.000 A 
ATOM     11  C   UNL     1      10.076   1.290  -1.401  0.00  0.00    +0.000 A 
ATOM     12  C   UNL     1      11.436   1.346  -1.719  0.00  0.00    +0.000 A 
ATOM     13  C   UNL     1      12.156   0.170  -1.917  0.00  0.00    +0.000 A 
ATOM     14  C   UNL     1      11.518  -1.065  -1.794  0.00  0.00    +0.000 A 
ATOM     15  C   UNL     1      10.154  -1.127  -1.474  0.00  0.00    +0.000 A 
BRANCH  15  16
ATOM     16  C   UNL     1       9.519  -2.459  -1.354  0.00  0.00    +0.000 C 
ATOM     17  O   UNL     1      10.149  -3.496  -1.533  0.00  0.00    +0.000 OA
ENDBRANCH  15  16
ENDBRANCH   2  10
TORSDOF 3
