REMARK  Name = *****
REMARK  3 active torsions:
REMARK  status: ('A' for Active; 'I' for Inactive)
REMARK    1  A    between atoms: C_3  and  O_8
REMARK    2  A    between atoms: O_8  and  C_9
REMARK    3  A    between atoms: C_9  and  C_11
REMARK                            x       y       z     vdW  Elec       q    Type
REMARK                         _______ _______ _______ _____ _____    ______ ____
ROOT
ATOM      1  C   UNL     1       1.747   3.683  -0.538  0.00  0.00    +0.000 C 
ATOM      2  O   UNL     1       0.527   3.736  -0.499  0.00  0.00    +0.000 OA
ENDROOT
BRANCH   1   3
ATOM      3  C   UNL     1       2.618   4.877  -0.344  0.00  0.00    +0.000 A 
ATOM      4  C   UNL     1       4.019   4.805  -0.367  0.00  0.00    +0.000 A 
ATOM      5  C   UNL     1       4.785   5.961  -0.177  0.00  0.00    +0.000 A 
ATOM      6  C   UNL     1       4.155   7.187   0.034  0.00  0.00    +0.000 A 
ATOM      7  C   UNL     1       2.765   7.270   0.058  0.00  0.00    +0.000 A 
ATOM      8  C   UNL     1       1.997   6.117  -0.130  0.00  0.00    +0.000 A 
ATOM      9 CL   UNL     1       5.101   8.604   0.266  0.00  0.00    +0.000 Cl
ENDBRANCH   1   3
BRANCH   1  10
ATOM     10  O   UNL     1       2.528   2.565  -0.760  0.00  0.00    +0.000 OA
BRANCH  10  13
ATOM     11  C   UNL     1       1.043  -0.735  -0.136  0.00  0.00    +0.000 A 
ATOM     12  C   UNL     1       1.733   0.459   0.065  0.00  0.00    +0.000 A 
ATOM     13  C   UNL     1       1.787   1.398  -0.964  0.00  0.00    +0.000 A 
ATOM     14  C   UNL     1       1.195   1.155  -2.203  0.00  0.00    +0.000 A 
ATOM     15  C   UNL     1       0.508  -0.041  -2.392  0.00  0.00    +0.000 A 
ATOM     16  C   UNL     1       0.427  -0.985  -1.366  0.00  0.00    +0.000 A 
ATOM     17 CL   UNL     1      -0.241  -0.364  -3.908  0.00  0.00    +0.000 Cl
ENDBRANCH  10  13
ENDBRANCH   1  10
TORSDOF 3
