REMARK  Name = *****
REMARK  5 active torsions:
REMARK  status: ('A' for Active; 'I' for Inactive)
REMARK    1  A    between atoms: C_1  and  O_2
REMARK    2  A    between atoms: O_2  and  C_3
REMARK    3  A    between atoms: C_3  and  C_4
REMARK    4  A    between atoms: C_3  and  C_12
REMARK    5  A    between atoms: C_4  and  C_5
REMARK                            x       y       z     vdW  Elec       q    Type
REMARK                         _______ _______ _______ _____ _____    ______ ____
ROOT
ATOM      1  C   UNL     1       2.782   0.991  -0.792  0.00  0.00    +0.000 C 
ENDROOT
BRANCH   1   2
ATOM      2  C   UNL     1       4.301   0.922  -0.884  0.00  0.00    +0.000 A 
ATOM      3  C   UNL     1       4.943   1.241  -2.094  0.00  0.00    +0.000 A 
ATOM      4  C   UNL     1       6.336   1.217  -2.186  0.00  0.00    +0.000 A 
ATOM      5  C   UNL     1       7.092   0.878  -1.071  0.00  0.00    +0.000 A 
ATOM      6  C   UNL     1       6.482   0.561   0.136  0.00  0.00    +0.000 A 
ATOM      7  C   UNL     1       5.089   0.583   0.230  0.00  0.00    +0.000 A 
ATOM      8  F   UNL     1       8.428   0.860  -1.161  0.00  0.00    +0.000 F 
ENDBRANCH   1   2
BRANCH   1  10
ATOM      9  C   UNL     1       0.986  -0.379  -0.011  0.00  0.00    +0.000 C 
ATOM     10  O   UNL     1       2.312   0.079   0.211  0.00  0.00    +0.000 OA
ENDBRANCH   1  10
BRANCH   1  11
ATOM     11  C   UNL     1       2.266   2.431  -0.565  0.00  0.00    +0.000 C 
BRANCH  11  12
ATOM     12  C   UNL     1       2.692   3.082   0.735  0.00  0.00    +0.000 A 
ATOM     13  C   UNL     1       3.830   3.904   0.780  0.00  0.00    +0.000 A 
ATOM     14  C   UNL     1       4.227   4.494   1.980  0.00  0.00    +0.000 A 
ATOM     15  C   UNL     1       3.487   4.268   3.134  0.00  0.00    +0.000 A 
ATOM     16  C   UNL     1       2.358   3.459   3.111  0.00  0.00    +0.000 A 
ATOM     17  C   UNL     1       1.962   2.863   1.913  0.00  0.00    +0.000 A 
ATOM     18  F   UNL     1       3.868   4.837   4.285  0.00  0.00    +0.000 F 
ENDBRANCH  11  12
ENDBRANCH   1  11
TORSDOF 4
