REMARK  Name = *****
REMARK  2 active torsions:
REMARK  status: ('A' for Active; 'I' for Inactive)
REMARK    1  A    between atoms: C_4  and  C_7
REMARK    2  A    between atoms: C_8  and  C_9
REMARK                            x       y       z     vdW  Elec       q    Type
REMARK                         _______ _______ _______ _____ _____    ______ ____
ROOT
ATOM      1  C   UNL     1      -2.715   0.380  -0.386  0.00  0.00    +0.000 C 
ATOM      2  C   UNL     1      -3.623  -0.609  -0.290  0.00  0.00    +0.000 C 
ATOM      3 BR   UNL     1      -5.457  -0.241  -0.436  0.00  0.00    +0.000 Br
ENDROOT
BRANCH   1   7
ATOM      4  C   UNL     1       1.505  -0.137  -0.094  0.00  0.00    +0.000 A 
ATOM      5  C   UNL     1       0.873  -0.255  -1.331  0.00  0.00    +0.000 A 
ATOM      6  C   UNL     1      -0.509  -0.083  -1.429  0.00  0.00    +0.000 A 
ATOM      7  C   UNL     1      -1.264   0.205  -0.287  0.00  0.00    +0.000 A 
ATOM      8  C   UNL     1      -0.625   0.323   0.952  0.00  0.00    +0.000 A 
ATOM      9  C   UNL     1       0.758   0.151   1.047  0.00  0.00    +0.000 A 
ENDBRANCH   1   7
BRANCH   2  10
ATOM     10  C   UNL     1      -3.262  -2.018  -0.069  0.00  0.00    +0.000 A 
ATOM     11  C   UNL     1      -3.143  -2.522   1.233  0.00  0.00    +0.000 A 
ATOM     12  C   UNL     1      -2.793  -3.857   1.442  0.00  0.00    +0.000 A 
ATOM     13  C   UNL     1      -2.559  -4.696   0.354  0.00  0.00    +0.000 A 
ATOM     14  C   UNL     1      -2.675  -4.203  -0.945  0.00  0.00    +0.000 A 
ATOM     15  C   UNL     1      -3.025  -2.868  -1.157  0.00  0.00    +0.000 A 
ENDBRANCH   2  10
TORSDOF 2
