REMARK  Name = *****
REMARK  3 active torsions:
REMARK  status: ('A' for Active; 'I' for Inactive)
REMARK    1  A    between atoms: C_4  and  C_7
REMARK    2  A    between atoms: C_7  and  C_8
REMARK    3  A    between atoms: C_8  and  C_9
REMARK                            x       y       z     vdW  Elec       q    Type
REMARK                         _______ _______ _______ _____ _____    ______ ____
ROOT
ATOM      1  C   UNL     1       3.282  -2.077   0.151  0.00  0.00    +0.000 C 
ENDROOT
BRANCH   1   2
ATOM      2  C   UNL     1       4.693  -2.334  -0.332  0.00  0.00    +0.000 A 
ATOM      3  C   UNL     1       5.821  -2.075   0.358  0.00  0.00    +0.000 A 
ATOM      4  O   UNL     1       7.103  -2.363  -0.166  0.00  0.00    +0.000 OA
ATOM      5  C   UNL     1       7.251  -2.923  -1.398  0.00  0.00    +0.000 A 
ATOM      6  O   UNL     1       8.347  -3.186  -1.879  0.00  0.00    +0.000 OA
ATOM      7  C   UNL     1       6.024  -3.213  -2.155  0.00  0.00    +0.000 A 
ATOM      8  C   UNL     1       4.823  -2.932  -1.644  0.00  0.00    +0.000 A 
ATOM      9 CL   UNL     1       5.789  -1.348   1.930  0.00  0.00    +0.000 Cl
ENDBRANCH   1   2
BRANCH   1  10
ATOM     10  C   UNL     1       2.723  -0.757  -0.398  0.00  0.00    +0.000 C 
BRANCH  10  14
ATOM     11  C   UNL     1      -1.498   0.417  -0.181  0.00  0.00    +0.000 C 
ATOM     12  C   UNL     1      -1.128  -0.988   0.279  0.00  0.00    +0.000 C 
ATOM     13  C   UNL     1       0.255  -1.405  -0.220  0.00  0.00    +0.000 C 
ATOM     14  C   UNL     1       1.340  -0.390   0.176  0.00  0.00    +0.000 C 
ATOM     15  C   UNL     1       0.947   1.024  -0.288  0.00  0.00    +0.000 C 
ATOM     16  C   UNL     1      -0.433   1.431   0.220  0.00  0.00    +0.000 C 
ENDBRANCH  10  14
ENDBRANCH   1  10
TORSDOF 3
