REMARK  Name = *****
REMARK  3 active torsions:
REMARK  status: ('A' for Active; 'I' for Inactive)
REMARK    1  A    between atoms: C_5  and  C_7
REMARK    2  A    between atoms: C_7  and  S_8
REMARK    3  A    between atoms: S_8  and  C_9
REMARK                            x       y       z     vdW  Elec       q    Type
REMARK                         _______ _______ _______ _____ _____    ______ ____
ROOT
ATOM      1  C   UNL     1      -0.025   2.374   0.037  0.00  0.00    +0.000 C 
ENDROOT
BRANCH   1   6
ATOM      2  C   UNL     1       1.387  -0.845   1.495  0.00  0.00    +0.000 A 
ATOM      3  C   UNL     1       2.142  -1.350   0.442  0.00  0.00    +0.000 A 
ATOM      4  C   UNL     1       2.205  -0.652  -0.763  0.00  0.00    +0.000 A 
ATOM      5  C   UNL     1       1.515   0.556  -0.918  0.00  0.00    +0.000 A 
ATOM      6  C   UNL     1       0.754   1.085   0.139  0.00  0.00    +0.000 A 
ATOM      7  C   UNL     1       0.696   0.359   1.345  0.00  0.00    +0.000 A 
ATOM      8 BR   UNL     1       1.661   1.423  -2.603  0.00  0.00    +0.000 Br
ENDBRANCH   1   6
BRANCH   1   9
ATOM      9  S   UNL     1      -1.691   2.093  -0.656  0.00  0.00    +0.000 S 
BRANCH   9  10
ATOM     10  C   UNL     1      -2.430   3.696  -0.395  0.00  0.00    +0.000 A 
ATOM     11  C   UNL     1      -3.690   3.762   0.214  0.00  0.00    +0.000 A 
ATOM     12  C   UNL     1      -4.315   4.994   0.429  0.00  0.00    +0.000 A 
ATOM     13  C   UNL     1      -3.685   6.168   0.027  0.00  0.00    +0.000 A 
ATOM     14  C   UNL     1      -2.443   6.098  -0.593  0.00  0.00    +0.000 A 
ATOM     15  C   UNL     1      -1.813   4.877  -0.813  0.00  0.00    +0.000 A 
ATOM     16  F   UNL     1      -1.842   7.228  -0.990  0.00  0.00    +0.000 F 
ENDBRANCH   9  10
ENDBRANCH   1   9
TORSDOF 3
