REMARK  Name = *****
REMARK  4 active torsions:
REMARK  status: ('A' for Active; 'I' for Inactive)
REMARK    1  A    between atoms: C_1  and  C_2
REMARK    2  A    between atoms: C_5  and  S_8
REMARK    3  A    between atoms: S_8  and  C_10
REMARK    4  A    between atoms: C_10  and  C_11
REMARK                            x       y       z     vdW  Elec       q    Type
REMARK                         _______ _______ _______ _____ _____    ______ ____
ROOT
ATOM      1  S   UNL     1      -3.508   0.004  -0.317  0.00  0.00    +0.000 S 
ATOM      2  O   UNL     1      -4.135  -0.950   0.661  0.00  0.00    +0.000 OA
ENDROOT
BRANCH   1   7
ATOM      3  C   UNL     1       2.395   0.400   1.239  0.00  0.00    +0.000 C 
ATOM      4  C   UNL     1       0.942   0.327   0.873  0.00  0.00    +0.000 A 
ATOM      5  C   UNL     1       0.017  -0.239   1.759  0.00  0.00    +0.000 A 
ATOM      6  C   UNL     1      -1.330  -0.342   1.405  0.00  0.00    +0.000 A 
ATOM      7  C   UNL     1      -1.768   0.116   0.160  0.00  0.00    +0.000 A 
ATOM      8  C   UNL     1      -0.844   0.661  -0.737  0.00  0.00    +0.000 A 
ATOM      9  C   UNL     1       0.504   0.763  -0.383  0.00  0.00    +0.000 A 
ENDBRANCH   1   7
BRANCH   1  10
ATOM     10  C   UNL     1      -3.975   1.697   0.192  0.00  0.00    +0.000 C 
BRANCH  10  11
ATOM     11  C   UNL     1      -5.370   2.056  -0.258  0.00  0.00    +0.000 A 
ATOM     12  C   UNL     1      -6.490   1.484   0.368  0.00  0.00    +0.000 A 
ATOM     13  C   UNL     1      -7.780   1.813  -0.050  0.00  0.00    +0.000 A 
ATOM     14  C   UNL     1      -7.953   2.715  -1.092  0.00  0.00    +0.000 A 
ATOM     15  C   UNL     1      -6.860   3.292  -1.727  0.00  0.00    +0.000 A 
ATOM     16  C   UNL     1      -5.568   2.963  -1.313  0.00  0.00    +0.000 A 
ATOM     17  F   UNL     1      -9.191   3.032  -1.494  0.00  0.00    +0.000 F 
ENDBRANCH  10  11
ENDBRANCH   1  10
TORSDOF 3
