REMARK  Name = *****
REMARK  1 active torsions:
REMARK  status: ('A' for Active; 'I' for Inactive)
REMARK    1  A    between atoms: C_4  and  C_7
REMARK                            x       y       z     vdW  Elec       q    Type
REMARK                         _______ _______ _______ _____ _____    ______ ____
ROOT
ATOM      1  C   UNL     1      -3.047   0.151  -0.555  0.00  0.00    +0.000 A 
ATOM      2  N   UNL     1      -3.831   0.940  -1.270  0.00  0.00    +0.000 NA
ATOM      3  C   UNL     1      -5.101   0.493  -0.984  0.00  0.00    +0.000 A 
ATOM      4  C   UNL     1      -5.030  -0.565  -0.092  0.00  0.00    +0.000 A 
ATOM      5  O   UNL     1      -3.716  -0.791   0.189  0.00  0.00    +0.000 OA
ATOM      6  C   UNL     1      -6.128  -1.257   0.412  0.00  0.00    +0.000 A 
ATOM      7  C   UNL     1      -7.383  -0.827  -0.038  0.00  0.00    +0.000 A 
ATOM      8  C   UNL     1      -7.505   0.237  -0.939  0.00  0.00    +0.000 A 
ATOM      9  C   UNL     1      -6.369   0.902  -1.417  0.00  0.00    +0.000 A 
ATOM     10  F   UNL     1      -6.516   1.917  -2.280  0.00  0.00    +0.000 F 
ENDROOT
BRANCH   1  14
ATOM     11  C   UNL     1       1.220   0.203  -0.309  0.00  0.00    +0.000 A 
ATOM     12  C   UNL     1       0.548   1.122  -1.111  0.00  0.00    +0.000 A 
ATOM     13  C   UNL     1      -0.847   1.096  -1.184  0.00  0.00    +0.000 A 
ATOM     14  C   UNL     1      -1.589   0.153  -0.456  0.00  0.00    +0.000 A 
ATOM     15  C   UNL     1      -0.896  -0.766   0.347  0.00  0.00    +0.000 A 
ATOM     16  C   UNL     1       0.500  -0.741   0.420  0.00  0.00    +0.000 A 
ENDBRANCH   1  14
TORSDOF 1
