REMARK  Name = *****
REMARK  2 active torsions:
REMARK  status: ('A' for Active; 'I' for Inactive)
REMARK    1  A    between atoms: C_4  and  C_8
REMARK    2  A    between atoms: C_9  and  C_10
REMARK                            x       y       z     vdW  Elec       q    Type
REMARK                         _______ _______ _______ _____ _____    ______ ____
ROOT
ATOM      1  C   UNL     1       1.831  -2.402   0.604  0.00  0.00    +0.000 C 
ATOM      2  C   UNL     1       1.771  -3.438  -0.248  0.00  0.00    +0.000 C 
ENDROOT
BRANCH   1   6
ATOM      3  C   UNL     1       1.919   0.531   1.802  0.00  0.00    +0.000 C 
ATOM      4  C   UNL     1       3.420   0.427   2.086  0.00  0.00    +0.000 C 
ATOM      5  C   UNL     1       3.697  -1.043   1.696  0.00  0.00    +0.000 C 
ATOM      6  C   UNL     1       2.790  -1.249   0.438  0.00  0.00    +0.000 C 
ATOM      7  C   UNL     1       2.070   0.127   0.330  0.00  0.00    +0.000 C 
ATOM      8  C   UNL     1       3.115   1.147  -0.077  0.00  0.00    +0.000 C 
ATOM      9  C   UNL     1       3.930   1.317   0.975  0.00  0.00    +0.000 C 
ENDBRANCH   1   6
BRANCH   2  10
ATOM     10  C   UNL     1       0.854  -4.577  -0.103  0.00  0.00    +0.000 A 
ATOM     11  C   UNL     1      -0.458  -4.429   0.366  0.00  0.00    +0.000 A 
ATOM     12  C   UNL     1      -1.309  -5.534   0.459  0.00  0.00    +0.000 A 
ATOM     13  C   UNL     1      -0.862  -6.795   0.073  0.00  0.00    +0.000 A 
ATOM     14  C   UNL     1       0.435  -6.953  -0.411  0.00  0.00    +0.000 A 
ATOM     15  C   UNL     1       1.286  -5.848  -0.504  0.00  0.00    +0.000 A 
ENDBRANCH   2  10
TORSDOF 2
