REMARK  Name = *****
REMARK  4 active torsions:
REMARK  status: ('A' for Active; 'I' for Inactive)
REMARK    1  A    between atoms: C_1  and  C_2
REMARK    2  A    between atoms: C_2  and  O_7
REMARK    3  A    between atoms: O_7  and  S_8
REMARK    4  A    between atoms: S_8  and  C_9
REMARK                            x       y       z     vdW  Elec       q    Type
REMARK                         _______ _______ _______ _____ _____    ______ ____
ROOT
ATOM      1  O   UNL     1       1.042  -0.776   2.280  0.00  0.00    +0.000 OA
ENDROOT
BRANCH   1   3
ATOM      2  C   UNL     1       2.098  -0.105   0.160  0.00  0.00    +0.000 C 
ATOM      3  C   UNL     1       0.796  -0.396   0.921  0.00  0.00    +0.000 C 
ATOM      4  C   UNL     1      -0.132  -1.370   0.180  0.00  0.00    +0.000 C 
ATOM      5  C   UNL     1      -0.817  -0.533  -0.895  0.00  0.00    +0.000 C 
ATOM      6  C   UNL     1      -0.817   0.902  -0.372  0.00  0.00    +0.000 C 
ATOM      7  C   UNL     1      -0.086   0.863   0.966  0.00  0.00    +0.000 C 
ENDBRANCH   1   3
BRANCH   1   8
ATOM      8  S   UNL     1       1.808  -2.233   2.551  0.00  0.00    +0.000 S 
BRANCH   8   9
ATOM      9  C   UNL     1       3.415  -1.622   3.040  0.00  0.00    +0.000 A 
ATOM     10  C   UNL     1       3.554  -0.472   3.824  0.00  0.00    +0.000 A 
ATOM     11  C   UNL     1       4.822  -0.023   4.201  0.00  0.00    +0.000 A 
ATOM     12  C   UNL     1       5.958  -0.724   3.801  0.00  0.00    +0.000 A 
ATOM     13  C   UNL     1       5.828  -1.875   3.026  0.00  0.00    +0.000 A 
ATOM     14  C   UNL     1       4.560  -2.324   2.649  0.00  0.00    +0.000 A 
ENDBRANCH   8   9
ENDBRANCH   1   8
TORSDOF 3
