REMARK  Name = *****
REMARK  4 active torsions:
REMARK  status: ('A' for Active; 'I' for Inactive)
REMARK    1  A    between atoms: C_4  and  C_8
REMARK    2  A    between atoms: C_8  and  O_9
REMARK    3  A    between atoms: O_9  and  C_10
REMARK    4  A    between atoms: C_10  and  C_12
REMARK                            x       y       z     vdW  Elec       q    Type
REMARK                         _______ _______ _______ _____ _____    ______ ____
ROOT
ATOM      1  O   UNL     1       0.990  -3.380   0.763  0.00  0.00    +0.000 OA
ENDROOT
BRANCH   1   2
ATOM      2  C   UNL     1       1.055  -3.613   2.097  0.00  0.00    +0.000 C 
ATOM      3  O   UNL     1       1.065  -2.766   2.976  0.00  0.00    +0.000 OA
BRANCH   2   4
ATOM      4  C   UNL     1       1.114  -5.076   2.369  0.00  0.00    +0.000 A 
ATOM      5  C   UNL     1       1.146  -6.032   1.343  0.00  0.00    +0.000 A 
ATOM      6  C   UNL     1       1.202  -7.395   1.654  0.00  0.00    +0.000 A 
ATOM      7  C   UNL     1       1.227  -7.804   2.986  0.00  0.00    +0.000 A 
ATOM      8  C   UNL     1       1.196  -6.863   4.014  0.00  0.00    +0.000 A 
ATOM      9  C   UNL     1       1.140  -5.500   3.706  0.00  0.00    +0.000 A 
ATOM     10 CL   UNL     1       1.295  -9.480   3.364  0.00  0.00    +0.000 Cl
ENDBRANCH   2   4
ENDBRANCH   1   2
BRANCH   1  11
ATOM     11  C   UNL     1       0.938  -1.999   0.370  0.00  0.00    +0.000 C 
BRANCH  11  15
ATOM     12  C   UNL     1       2.806  -1.342  -2.125  0.00  0.00    +0.000 C 
ATOM     13  C   UNL     1       3.230   0.001  -1.524  0.00  0.00    +0.000 C 
ATOM     14  C   UNL     1       2.347   0.052  -0.257  0.00  0.00    +0.000 C 
ATOM     15  C   UNL     1       2.351  -1.432   0.230  0.00  0.00    +0.000 C 
ATOM     16  C   UNL     1       3.189  -2.137  -0.871  0.00  0.00    +0.000 C 
ATOM     17  C   UNL     1       4.615  -1.649  -0.724  0.00  0.00    +0.000 C 
ATOM     18  C   UNL     1       4.636  -0.363  -1.107  0.00  0.00    +0.000 C 
ENDBRANCH  11  15
ENDBRANCH   1  11
TORSDOF 4
