REMARK  Name = *****
REMARK  1 active torsions:
REMARK  status: ('A' for Active; 'I' for Inactive)
REMARK    1  A    between atoms: C_3  and  C_13
REMARK                            x       y       z     vdW  Elec       q    Type
REMARK                         _______ _______ _______ _____ _____    ______ ____
ROOT
ATOM      1  C   UNL     1      -2.756   0.689   0.715  0.00  0.00    +0.000 C 
ATOM      2  C   UNL     1      -2.022  -0.586   1.138  0.00  0.00    +0.000 C 
ATOM      3  C   UNL     1      -1.772  -1.528  -0.039  0.00  0.00    +0.000 C 
ATOM      4  N   UNL     1      -0.649  -1.576  -0.697  0.00  0.00    +0.000 NA
ATOM      5  C   UNL     1       0.433  -0.740  -0.378  0.00  0.00    +0.000 A 
ATOM      6  C   UNL     1       1.582  -1.345   0.146  0.00  0.00    +0.000 A 
ATOM      7  C   UNL     1       2.721  -0.594   0.441  0.00  0.00    +0.000 A 
ATOM      8  C   UNL     1       2.730   0.776   0.197  0.00  0.00    +0.000 A 
ATOM      9  C   UNL     1       1.599   1.394  -0.340  0.00  0.00    +0.000 A 
ATOM     10  C   UNL     1       0.448   0.646  -0.629  0.00  0.00    +0.000 A 
ATOM     11  S   UNL     1      -0.969   1.515  -1.297  0.00  0.00    +0.000 S 
ATOM     12  C   UNL     1      -1.850   1.835   0.263  0.00  0.00    +0.000 C 
ENDROOT
BRANCH   3  13
ATOM     13  C   UNL     1      -2.879  -2.459  -0.474  0.00  0.00    +0.000 A 
ATOM     14  C   UNL     1      -4.159  -2.432   0.095  0.00  0.00    +0.000 A 
ATOM     15  C   UNL     1      -5.150  -3.316  -0.345  0.00  0.00    +0.000 A 
ATOM     16  C   UNL     1      -4.875  -4.233  -1.356  0.00  0.00    +0.000 A 
ATOM     17  C   UNL     1      -3.608  -4.268  -1.933  0.00  0.00    +0.000 A 
ATOM     18  C   UNL     1      -2.617  -3.386  -1.495  0.00  0.00    +0.000 A 
ENDBRANCH   3  13
TORSDOF 1
