REMARK  Name = *****
REMARK  5 active torsions:
REMARK  status: ('A' for Active; 'I' for Inactive)
REMARK    1  A    between atoms: C_1  and  C_2
REMARK    2  A    between atoms: C_3  and  C_11
REMARK    3  A    between atoms: C_4  and  C_8
REMARK    4  A    between atoms: C_8  and  C_9
REMARK    5  A    between atoms: C_12  and  C_13
REMARK                            x       y       z     vdW  Elec       q    Type
REMARK                         _______ _______ _______ _____ _____    ______ ____
ROOT
ATOM      1  C   UNL     1       0.929   0.151  -0.180  0.00  0.00    +0.000 C 
ATOM      2  C   UNL     1       2.400   0.011  -0.088  0.00  0.00    +0.000 C 
ATOM      3  C   UNL     1       3.201  -1.054  -0.091  0.00  0.00    +0.000 C 
ATOM      4  C   UNL     1       4.630  -0.656   0.017  0.00  0.00    +0.000 C 
ATOM      5  O   UNL     1       4.574   0.778   0.052  0.00  0.00    +0.000 OA
ATOM      6  C   UNL     1       3.277   1.182   0.018  0.00  0.00    +0.000 C 
ATOM      7  O   UNL     1       2.900   2.339   0.059  0.00  0.00    +0.000 OA
ENDROOT
BRANCH   3   8
ATOM      8  C   UNL     1       2.753  -2.393  -0.215  0.00  0.00    +0.000 C 
ATOM      9  C   UNL     1       2.376  -3.528  -0.320  0.00  0.00    +0.000 C 
BRANCH   9  10
ATOM     10  C   UNL     1       1.919  -4.877  -0.446  0.00  0.00    +0.000 A 
ATOM     11  C   UNL     1       2.697  -5.930   0.042  0.00  0.00    +0.000 A 
ATOM     12  C   UNL     1       2.249  -7.246  -0.082  0.00  0.00    +0.000 A 
ATOM     13  C   UNL     1       1.023  -7.512  -0.693  0.00  0.00    +0.000 A 
ATOM     14  C   UNL     1       0.245  -6.462  -1.181  0.00  0.00    +0.000 A 
ATOM     15  C   UNL     1       0.692  -5.145  -1.058  0.00  0.00    +0.000 A 
ENDBRANCH   9  10
ENDBRANCH   3   8
BRANCH   4  16
ATOM     16  C   UNL     1       5.316  -1.172   1.292  0.00  0.00    +0.000 C 
BRANCH  16  17
ATOM     17  C   UNL     1       6.786  -0.837   1.317  0.00  0.00    +0.000 C 
ATOM     18  C   UNL     1       7.766  -1.747   1.370  0.00  0.00    +0.000 C 
ENDBRANCH  16  17
ENDBRANCH   4  16
TORSDOF 4
