REMARK  Name = *****
REMARK  2 active torsions:
REMARK  status: ('A' for Active; 'I' for Inactive)
REMARK    1  A    between atoms: C_4  and  C_7
REMARK    2  A    between atoms: N_8  and  C_9
REMARK                            x       y       z     vdW  Elec       q    Type
REMARK                         _______ _______ _______ _____ _____    ______ ____
ROOT
ATOM      1  C   UNL     1      -2.856   0.335  -0.229  0.00  0.00    +0.000 C 
ATOM      2  N   UNL     1      -3.639  -0.618  -0.623  0.00  0.00    +0.000 NA
ENDROOT
BRANCH   2   3
ATOM      3  C   UNL     1      -5.018  -0.328  -0.710  0.00  0.00    +0.000 A 
ATOM      4  C   UNL     1      -5.529   0.696  -1.520  0.00  0.00    +0.000 A 
ATOM      5  C   UNL     1      -6.900   0.942  -1.617  0.00  0.00    +0.000 A 
ATOM      6  C   UNL     1      -7.799   0.149  -0.905  0.00  0.00    +0.000 A 
ATOM      7  C   UNL     1      -7.317  -0.884  -0.103  0.00  0.00    +0.000 A 
ATOM      8  C   UNL     1      -5.943  -1.116  -0.015  0.00  0.00    +0.000 A 
ATOM      9  F   UNL     1      -5.519  -2.120   0.768  0.00  0.00    +0.000 F 
ATOM     10  F   UNL     1      -4.694   1.482  -2.219  0.00  0.00    +0.000 F 
ENDBRANCH   2   3
BRANCH   1  14
ATOM     11  C   UNL     1       1.362  -0.170   0.147  0.00  0.00    +0.000 A 
ATOM     12  C   UNL     1       0.570  -1.251  -0.241  0.00  0.00    +0.000 A 
ATOM     13  C   UNL     1      -0.811  -1.096  -0.368  0.00  0.00    +0.000 A 
ATOM     14  C   UNL     1      -1.397   0.145  -0.104  0.00  0.00    +0.000 A 
ATOM     15  C   UNL     1      -0.606   1.230   0.286  0.00  0.00    +0.000 A 
ATOM     16  C   UNL     1       0.775   1.069   0.410  0.00  0.00    +0.000 A 
ENDBRANCH   1  14
TORSDOF 2
