REMARK  Name = *****
REMARK  3 active torsions:
REMARK  status: ('A' for Active; 'I' for Inactive)
REMARK    1  A    between atoms: C_1  and  C_2
REMARK    2  A    between atoms: C_5  and  O_8
REMARK    3  A    between atoms: O_8  and  N_9
REMARK                            x       y       z     vdW  Elec       q    Type
REMARK                         _______ _______ _______ _____ _____    ______ ____
ROOT
ATOM      1  N   UNL     1      -3.821   0.923  -2.011  0.00  0.00    +0.000 N 
ATOM      2  C   UNL     1      -4.716   1.363  -1.075  0.00  0.00    +0.000 A 
ATOM      3  C   UNL     1      -5.071   0.937   0.209  0.00  0.00    +0.000 A 
ATOM      4  C   UNL     1      -6.052   1.690   0.866  0.00  0.00    +0.000 A 
ATOM      5  C   UNL     1      -6.640   2.805   0.261  0.00  0.00    +0.000 A 
ATOM      6  C   UNL     1      -6.268   3.205  -1.030  0.00  0.00    +0.000 A 
ATOM      7  C   UNL     1      -5.288   2.462  -1.703  0.00  0.00    +0.000 A 
ATOM      8  N   UNL     1      -4.751   2.617  -2.956  0.00  0.00    +0.000 NA
ATOM      9  N   UNL     1      -3.871   1.640  -3.148  0.00  0.00    +0.000 NA
ENDROOT
BRANCH   1  10
ATOM     10  O   UNL     1      -3.044  -0.236  -1.953  0.00  0.00    +0.000 OA
BRANCH  10  15
ATOM     11  C   UNL     1       1.693   0.336   1.124  0.00  0.00    +0.000 C 
ATOM     12  C   UNL     1       0.459   0.195   0.282  0.00  0.00    +0.000 A 
ATOM     13  C   UNL     1       0.102   1.197  -0.628  0.00  0.00    +0.000 A 
ATOM     14  C   UNL     1      -1.062   1.080  -1.392  0.00  0.00    +0.000 A 
ATOM     15  C   UNL     1      -1.893  -0.030  -1.228  0.00  0.00    +0.000 A 
ATOM     16  C   UNL     1      -1.538  -1.038  -0.332  0.00  0.00    +0.000 A 
ATOM     17  C   UNL     1      -0.374  -0.921   0.430  0.00  0.00    +0.000 A 
ENDBRANCH  10  15
ENDBRANCH   1  10
TORSDOF 2
