REMARK  Name = *****
REMARK  4 active torsions:
REMARK  status: ('A' for Active; 'I' for Inactive)
REMARK    1  A    between atoms: C_1  and  C_2
REMARK    2  A    between atoms: C_6  and  C_8
REMARK    3  A    between atoms: C_8  and  C_9
REMARK    4  A    between atoms: C_9  and  C_10
REMARK                            x       y       z     vdW  Elec       q    Type
REMARK                         _______ _______ _______ _____ _____    ______ ____
ROOT
ATOM      1  C   UNL     1      -1.393  -1.167  -1.774  0.00  0.00    +0.000 C 
ENDROOT
BRANCH   1   7
ATOM      2  C   UNL     1       2.542   0.053  -0.035  0.00  0.00    +0.000 C 
ATOM      3  C   UNL     1       1.042   0.085   0.021  0.00  0.00    +0.000 C 
ATOM      4  C   UNL     1       0.351   1.239   0.033  0.00  0.00    +0.000 C 
ATOM      5  C   UNL     1      -1.145   1.313   0.131  0.00  0.00    +0.000 C 
ATOM      6  C   UNL     1      -1.786  -0.024   0.508  0.00  0.00    +0.000 C 
ATOM      7  C   UNL     1      -1.158  -1.207  -0.246  0.00  0.00    +0.000 C 
ATOM      8  C   UNL     1       0.353  -1.260   0.072  0.00  0.00    +0.000 C 
ENDBRANCH   1   7
BRANCH   1   9
ATOM      9  C   UNL     1      -2.874  -1.233  -2.161  0.00  0.00    +0.000 C 
BRANCH   9  10
ATOM     10  C   UNL     1      -3.056  -1.273  -3.659  0.00  0.00    +0.000 A 
ATOM     11  C   UNL     1      -3.114  -2.497  -4.338  0.00  0.00    +0.000 A 
ATOM     12  C   UNL     1      -3.268  -2.528  -5.725  0.00  0.00    +0.000 A 
ATOM     13  C   UNL     1      -3.362  -1.338  -6.445  0.00  0.00    +0.000 A 
ATOM     14  C   UNL     1      -3.299  -0.116  -5.780  0.00  0.00    +0.000 A 
ATOM     15  C   UNL     1      -3.143  -0.082  -4.393  0.00  0.00    +0.000 A 
ENDBRANCH   9  10
ENDBRANCH   1   9
TORSDOF 3
