REMARK  Name = *****
REMARK  3 active torsions:
REMARK  status: ('A' for Active; 'I' for Inactive)
REMARK    1  A    between atoms: C_1  and  C_2
REMARK    2  A    between atoms: C_6  and  C_7
REMARK    3  A    between atoms: C_8  and  C_9
REMARK                            x       y       z     vdW  Elec       q    Type
REMARK                         _______ _______ _______ _____ _____    ______ ____
ROOT
ATOM      1  C   UNL     1      -0.547   1.371   1.969  0.00  0.00    +0.000 C 
ATOM      2  C   UNL     1      -0.334   2.505   2.658  0.00  0.00    +0.000 C 
ENDROOT
BRANCH   1   8
ATOM      3  C   UNL     1       1.751   0.086  -0.840  0.00  0.00    +0.000 C 
ATOM      4  C   UNL     1       0.878  -0.020   0.412  0.00  0.00    +0.000 C 
ATOM      5  C   UNL     1      -0.051  -1.235   0.339  0.00  0.00    +0.000 C 
ATOM      6  C   UNL     1      -1.319  -0.749  -0.361  0.00  0.00    +0.000 C 
ATOM      7  C   UNL     1      -1.264   0.780  -0.363  0.00  0.00    +0.000 C 
ATOM      8  C   UNL     1      -0.089   1.171   0.541  0.00  0.00    +0.000 C 
ENDBRANCH   1   8
BRANCH   2   9
ATOM      9  C   UNL     1      -0.776   2.725   4.042  0.00  0.00    +0.000 A 
ATOM     10  C   UNL     1      -0.732   1.715   5.012  0.00  0.00    +0.000 A 
ATOM     11  C   UNL     1      -1.131   1.974   6.326  0.00  0.00    +0.000 A 
ATOM     12  C   UNL     1      -1.568   3.247   6.687  0.00  0.00    +0.000 A 
ATOM     13  C   UNL     1      -1.601   4.263   5.735  0.00  0.00    +0.000 A 
ATOM     14  C   UNL     1      -1.202   4.005   4.421  0.00  0.00    +0.000 A 
ENDBRANCH   2   9
TORSDOF 2
