REMARK  Name = *****
REMARK  4 active torsions:
REMARK  status: ('A' for Active; 'I' for Inactive)
REMARK    1  A    between atoms: C_4  and  C_7
REMARK    2  A    between atoms: C_7  and  O_8
REMARK    3  A    between atoms: O_8  and  C_9
REMARK    4  A    between atoms: C_9  and  C_11
REMARK                            x       y       z     vdW  Elec       q    Type
REMARK                         _______ _______ _______ _____ _____    ______ ____
ROOT
ATOM      1  C   UNL     1      -4.838  -0.754  -0.960  0.00  0.00    +0.000 C 
ATOM      2  O   UNL     1      -5.147   0.146  -1.719  0.00  0.00    +0.000 OA
ENDROOT
BRANCH   1   3
ATOM      3  C   UNL     1      -5.495  -2.060  -0.920  0.00  0.00    +0.000 A 
ATOM      4  C   UNL     1      -5.063  -3.084  -1.767  0.00  0.00    +0.000 A 
ATOM      5  C   UNL     1      -5.702  -4.327  -1.737  0.00  0.00    +0.000 A 
ATOM      6  C   UNL     1      -6.770  -4.546  -0.866  0.00  0.00    +0.000 A 
ATOM      7  C   UNL     1      -7.201  -3.522  -0.021  0.00  0.00    +0.000 A 
ATOM      8  C   UNL     1      -6.566  -2.277  -0.047  0.00  0.00    +0.000 A 
ATOM      9 CL   UNL     1      -7.147  -1.052   1.024  0.00  0.00    +0.000 Cl
ATOM     10 CL   UNL     1      -3.742  -2.882  -2.863  0.00  0.00    +0.000 Cl
ENDBRANCH   1   3
BRANCH   1  11
ATOM     11  O   UNL     1      -3.861  -0.757  -0.026  0.00  0.00    +0.000 OA
BRANCH  11  12
ATOM     12  C   UNL     1      -3.138   0.473   0.040  0.00  0.00    +0.000 C 
BRANCH  12  16
ATOM     13  C   UNL     1      -0.261   0.082   3.226  0.00  0.00    +0.000 A 
ATOM     14  C   UNL     1       0.104  -0.224   1.916  0.00  0.00    +0.000 A 
ATOM     15  C   UNL     1      -0.825  -0.095   0.883  0.00  0.00    +0.000 A 
ATOM     16  C   UNL     1      -2.127   0.352   1.149  0.00  0.00    +0.000 A 
ATOM     17  C   UNL     1      -2.488   0.643   2.473  0.00  0.00    +0.000 A 
ATOM     18  C   UNL     1      -1.557   0.513   3.505  0.00  0.00    +0.000 A 
ENDBRANCH  12  16
ENDBRANCH  11  12
ENDBRANCH   1  11
TORSDOF 4
