REMARK  Name = *****
REMARK  4 active torsions:
REMARK  status: ('A' for Active; 'I' for Inactive)
REMARK    1  A    between atoms: C_1  and  C_2
REMARK    2  A    between atoms: C_2  and  C_3
REMARK    3  A    between atoms: C_6  and  C_8
REMARK    4  A    between atoms: C_9  and  C_10
REMARK                            x       y       z     vdW  Elec       q    Type
REMARK                         _______ _______ _______ _____ _____    ______ ____
ROOT
ATOM      1  C   UNL     1       3.350  -4.573   2.489  0.00  0.00    +0.000 C 
ATOM      2  C   UNL     1       3.990  -5.027   3.579  0.00  0.00    +0.000 C 
ENDROOT
BRANCH   2   3
ATOM      3  C   UNL     1       4.019  -6.444   3.970  0.00  0.00    +0.000 A 
ATOM      4  C   UNL     1       4.188  -7.474   3.035  0.00  0.00    +0.000 A 
ATOM      5  C   UNL     1       4.242  -8.808   3.448  0.00  0.00    +0.000 A 
ATOM      6  C   UNL     1       4.139  -9.124   4.801  0.00  0.00    +0.000 A 
ATOM      7  C   UNL     1       3.987  -8.108   5.742  0.00  0.00    +0.000 A 
ATOM      8  C   UNL     1       3.933  -6.774   5.329  0.00  0.00    +0.000 A 
ENDBRANCH   2   3
BRANCH   1  12
ATOM      9  C   UNL     1       2.882  -1.075   0.888  0.00  0.00    +0.000 A 
ATOM     10  C   UNL     1       3.622  -0.864   2.031  0.00  0.00    +0.000 A 
ATOM     11  C   UNL     1       3.878  -2.075   2.739  0.00  0.00    +0.000 A 
ATOM     12  C   UNL     1       3.332  -3.192   2.128  0.00  0.00    +0.000 A 
ATOM     13  S   UNL     1       2.508  -2.729   0.683  0.00  0.00    +0.000 S 
BRANCH   9  15
ATOM     14  C   UNL     1       1.065   0.524   0.261  0.00  0.00    +0.000 C 
ATOM     15  C   UNL     1       2.418  -0.061  -0.114  0.00  0.00    +0.000 C 
ENDBRANCH   9  15
ENDBRANCH   1  12
TORSDOF 3
