REMARK  Name = *****
REMARK  4 active torsions:
REMARK  status: ('A' for Active; 'I' for Inactive)
REMARK    1  A    between atoms: C_1  and  C_2
REMARK    2  A    between atoms: C_5  and  S_8
REMARK    3  A    between atoms: S_8  and  N_10
REMARK    4  A    between atoms: N_10  and  C_11
REMARK                            x       y       z     vdW  Elec       q    Type
REMARK                         _______ _______ _______ _____ _____    ______ ____
ROOT
ATOM      1  S   UNL     1      -3.743  -0.470   0.036  0.00  0.00    +0.000 S 
ATOM      2  O   UNL     1      -4.176  -1.007   1.366  0.00  0.00    +0.000 OA
ENDROOT
BRANCH   1   7
ATOM      3  C   UNL     1       2.262   0.636   0.394  0.00  0.00    +0.000 C 
ATOM      4  C   UNL     1       0.784   0.393   0.307  0.00  0.00    +0.000 A 
ATOM      5  C   UNL     1       0.162   0.231  -0.937  0.00  0.00    +0.000 A 
ATOM      6  C   UNL     1      -1.209  -0.030  -1.014  0.00  0.00    +0.000 A 
ATOM      7  C   UNL     1      -1.971  -0.142   0.154  0.00  0.00    +0.000 A 
ATOM      8  C   UNL     1      -1.348  -0.001   1.398  0.00  0.00    +0.000 A 
ATOM      9  C   UNL     1       0.022   0.262   1.473  0.00  0.00    +0.000 A 
ENDBRANCH   1   7
BRANCH   1  10
ATOM     10  N   UNL     1      -4.137   1.145  -0.096  0.00  0.00    +0.000 N 
ATOM     11  H   UNL     1      -3.398   1.791  -0.176  0.00  0.00    +0.000 HD
BRANCH  10  12
ATOM     12  C   UNL     1      -5.452   1.651  -0.102  0.00  0.00    +0.000 A 
ATOM     13  C   UNL     1      -6.576   0.915   0.293  0.00  0.00    +0.000 A 
ATOM     14  C   UNL     1      -7.852   1.488   0.301  0.00  0.00    +0.000 A 
ATOM     15  C   UNL     1      -8.024   2.818  -0.070  0.00  0.00    +0.000 A 
ATOM     16  C   UNL     1      -6.919   3.578  -0.438  0.00  0.00    +0.000 A 
ATOM     17  C   UNL     1      -5.646   3.001  -0.444  0.00  0.00    +0.000 A 
ENDBRANCH  10  12
ENDBRANCH   1  10
TORSDOF 3
