REMARK  Name = *****
REMARK  4 active torsions:
REMARK  status: ('A' for Active; 'I' for Inactive)
REMARK    1  A    between atoms: C_1  and  C_2
REMARK    2  A    between atoms: C_1  and  S_8
REMARK    3  A    between atoms: S_8  and  C_9
REMARK    4  A    between atoms: C_12  and  C_15
REMARK                            x       y       z     vdW  Elec       q    Type
REMARK                         _______ _______ _______ _____ _____    ______ ____
ROOT
ATOM      1  S   UNL     1       2.680  -1.509  -0.576  0.00  0.00    +0.000 S 
ENDROOT
BRANCH   1   2
ATOM      2  C   UNL     1       4.455  -1.361  -0.535  0.00  0.00    +0.000 A 
ATOM      3  C   UNL     1       5.185  -2.126   0.377  0.00  0.00    +0.000 A 
ATOM      4  C   UNL     1       6.579  -2.032   0.424  0.00  0.00    +0.000 A 
ATOM      5  C   UNL     1       7.261  -1.169  -0.441  0.00  0.00    +0.000 A 
ATOM      6  C   UNL     1       6.529  -0.425  -1.374  0.00  0.00    +0.000 A 
ATOM      7  C   UNL     1       5.135  -0.520  -1.420  0.00  0.00    +0.000 A 
ATOM      8  C   UNL     1       8.759  -1.095  -0.418  0.00  0.00    +0.000 C 
ENDBRANCH   1   2
BRANCH   1   9
ATOM      9  C   UNL     1       2.225   0.200  -0.133  0.00  0.00    +0.000 C 
BRANCH   9  10
ATOM     10  C   UNL     1       0.733   0.352   0.023  0.00  0.00    +0.000 A 
ATOM     11  C   UNL     1       0.122   0.152   1.270  0.00  0.00    +0.000 A 
ATOM     12  C   UNL     1      -1.260   0.284   1.411  0.00  0.00    +0.000 A 
ATOM     13  C   UNL     1      -2.047   0.612   0.308  0.00  0.00    +0.000 A 
ATOM     14  C   UNL     1      -1.453   0.804  -0.938  0.00  0.00    +0.000 A 
ATOM     15  C   UNL     1      -0.071   0.671  -1.082  0.00  0.00    +0.000 A 
ENDBRANCH   9  10
ENDBRANCH   1   9
TORSDOF 3
