REMARK  Name = *****
REMARK  3 active torsions:
REMARK  status: ('A' for Active; 'I' for Inactive)
REMARK    1  A    between atoms: C_4  and  C_7
REMARK    2  A    between atoms: C_7  and  S_8
REMARK    3  A    between atoms: S_8  and  C_9
REMARK                            x       y       z     vdW  Elec       q    Type
REMARK                         _______ _______ _______ _____ _____    ______ ____
ROOT
ATOM      1  C   UNL     1      -2.691   0.641  -0.310  0.00  0.00    +0.000 C 
ATOM      2 CL   UNL     1      -4.014  -0.536  -0.035  0.00  0.00    +0.000 Cl
ENDROOT
BRANCH   1   6
ATOM      3  C   UNL     1       1.179  -1.201   0.308  0.00  0.00    +0.000 A 
ATOM      4  C   UNL     1       0.796  -0.093   1.062  0.00  0.00    +0.000 A 
ATOM      5  C   UNL     1      -0.456   0.491   0.862  0.00  0.00    +0.000 A 
ATOM      6  C   UNL     1      -1.346  -0.024  -0.097  0.00  0.00    +0.000 A 
ATOM      7  C   UNL     1      -0.941  -1.141  -0.850  0.00  0.00    +0.000 A 
ATOM      8  C   UNL     1       0.311  -1.725  -0.647  0.00  0.00    +0.000 A 
ENDBRANCH   1   6
BRANCH   1   9
ATOM      9  S   UNL     1      -2.870   1.384  -1.971  0.00  0.00    +0.000 S 
BRANCH   9  10
ATOM     10  C   UNL     1      -1.820   2.808  -1.760  0.00  0.00    +0.000 A 
ATOM     11  C   UNL     1      -0.467   2.743  -2.102  0.00  0.00    +0.000 A 
ATOM     12  C   UNL     1       0.356   3.858  -1.928  0.00  0.00    +0.000 A 
ATOM     13  C   UNL     1      -0.174   5.043  -1.420  0.00  0.00    +0.000 A 
ATOM     14  C   UNL     1      -1.526   5.117  -1.090  0.00  0.00    +0.000 A 
ATOM     15  C   UNL     1      -2.350   4.002  -1.262  0.00  0.00    +0.000 A 
ENDBRANCH   9  10
ENDBRANCH   1   9
TORSDOF 3
