REMARK  Name = *****
REMARK  5 active torsions:
REMARK  status: ('A' for Active; 'I' for Inactive)
REMARK    1  A    between atoms: C_1  and  C_2
REMARK    2  A    between atoms: C_2  and  C_3
REMARK    3  A    between atoms: C_2  and  O_9
REMARK    4  A    between atoms: O_9  and  C_10
REMARK    5  A    between atoms: C_10  and  C_12
REMARK                            x       y       z     vdW  Elec       q    Type
REMARK                         _______ _______ _______ _____ _____    ______ ____
ROOT
ATOM      1  O   UNL     1       3.165   0.975   0.670  0.00  0.00    +0.000 OA
ENDROOT
BRANCH   1   3
ATOM      2  C   UNL     1       1.006   0.100  -0.024  0.00  0.00    +0.000 C 
ATOM      3  C   UNL     1       2.515  -0.133  -0.007  0.00  0.00    +0.000 C 
BRANCH   3   4
ATOM      4  C   UNL     1       3.065  -0.197  -1.421  0.00  0.00    +0.000 A 
ATOM      5  C   UNL     1       3.217   0.962  -2.199  0.00  0.00    +0.000 A 
ATOM      6  C   UNL     1       3.709   0.886  -3.503  0.00  0.00    +0.000 A 
ATOM      7  C   UNL     1       4.051  -0.350  -4.048  0.00  0.00    +0.000 A 
ATOM      8  C   UNL     1       3.900  -1.509  -3.291  0.00  0.00    +0.000 A 
ATOM      9  C   UNL     1       3.409  -1.435  -1.986  0.00  0.00    +0.000 A 
ENDBRANCH   3   4
ENDBRANCH   1   3
BRANCH   1  10
ATOM     10  C   UNL     1       3.438   1.033   1.999  0.00  0.00    +0.000 C 
ATOM     11  S   UNL     1       3.024  -0.147   3.099  0.00  0.00    +0.000 S 
BRANCH  10  12
ATOM     12  C   UNL     1       4.121   2.321   2.285  0.00  0.00    +0.000 A 
ATOM     13  C   UNL     1       3.901   3.003   3.491  0.00  0.00    +0.000 A 
ATOM     14  C   UNL     1       4.552   4.213   3.745  0.00  0.00    +0.000 A 
ATOM     15  C   UNL     1       5.425   4.750   2.801  0.00  0.00    +0.000 A 
ATOM     16  C   UNL     1       5.652   4.080   1.600  0.00  0.00    +0.000 A 
ATOM     17  C   UNL     1       5.004   2.870   1.342  0.00  0.00    +0.000 A 
ENDBRANCH  10  12
ENDBRANCH   1  10
TORSDOF 4
