REMARK  Name = *****
REMARK  4 active torsions:
REMARK  status: ('A' for Active; 'I' for Inactive)
REMARK    1  A    between atoms: C_4  and  C_7
REMARK    2  A    between atoms: C_7  and  O_8
REMARK    3  A    between atoms: O_8  and  C_9
REMARK    4  A    between atoms: C_10  and  C_11
REMARK                            x       y       z     vdW  Elec       q    Type
REMARK                         _______ _______ _______ _____ _____    ______ ____
ROOT
ATOM      1  O   UNL     1      -3.572  -0.734  -0.715  0.00  0.00    +0.000 OA
ENDROOT
BRANCH   1   2
ATOM      2  C   UNL     1      -4.868  -0.713  -0.281  0.00  0.00    +0.000 C 
ATOM      3  C   UNL     1      -5.461  -1.718   0.380  0.00  0.00    +0.000 C 
BRANCH   3   4
ATOM      4  C   UNL     1      -4.850  -2.997   0.772  0.00  0.00    +0.000 A 
ATOM      5  C   UNL     1      -5.244  -3.589   1.981  0.00  0.00    +0.000 A 
ATOM      6  C   UNL     1      -4.718  -4.822   2.378  0.00  0.00    +0.000 A 
ATOM      7  C   UNL     1      -3.802  -5.483   1.564  0.00  0.00    +0.000 A 
ATOM      8  C   UNL     1      -3.414  -4.915   0.353  0.00  0.00    +0.000 A 
ATOM      9  C   UNL     1      -3.941  -3.683  -0.043  0.00  0.00    +0.000 A 
ENDBRANCH   3   4
ENDBRANCH   1   2
BRANCH   1  10
ATOM     10  C   UNL     1      -2.982   0.569  -0.750  0.00  0.00    +0.000 C 
BRANCH  10  14
ATOM     11  C   UNL     1       1.122   0.321  -2.067  0.00  0.00    +0.000 A 
ATOM     12  C   UNL     1       0.126  -0.362  -2.761  0.00  0.00    +0.000 A 
ATOM     13  C   UNL     1      -1.200  -0.289  -2.331  0.00  0.00    +0.000 A 
ATOM     14  C   UNL     1      -1.543   0.461  -1.197  0.00  0.00    +0.000 A 
ATOM     15  C   UNL     1      -0.532   1.151  -0.512  0.00  0.00    +0.000 A 
ATOM     16  C   UNL     1       0.794   1.078  -0.944  0.00  0.00    +0.000 A 
ENDBRANCH  10  14
ENDBRANCH   1  10
TORSDOF 4
