REMARK  Name = *****
REMARK  5 active torsions:
REMARK  status: ('A' for Active; 'I' for Inactive)
REMARK    1  A    between atoms: C_1  and  C_2
REMARK    2  A    between atoms: C_3  and  S_8
REMARK    3  A    between atoms: S_8  and  S_9
REMARK    4  A    between atoms: S_9  and  C_10
REMARK    5  A    between atoms: C_11  and  C_16
REMARK                            x       y       z     vdW  Elec       q    Type
REMARK                         _______ _______ _______ _____ _____    ______ ____
ROOT
ATOM      1  S   UNL     1       1.980  -2.820  -1.849  0.00  0.00    +0.000 S 
ENDROOT
BRANCH   1   4
ATOM      2  C   UNL     1       2.028   0.416  -1.637  0.00  0.00    +0.000 C 
ATOM      3  C   UNL     1       2.628  -0.485  -0.595  0.00  0.00    +0.000 A 
ATOM      4  C   UNL     1       2.656  -1.833  -0.591  0.00  0.00    +0.000 A 
ATOM      5  S   UNL     1       3.474  -2.609   0.742  0.00  0.00    +0.000 S 
ATOM      6  C   UNL     1       3.892  -1.146   1.606  0.00  0.00    +0.000 A 
ATOM      7  O   UNL     1       4.461  -1.141   2.686  0.00  0.00    +0.000 OA
ATOM      8  S   UNL     1       3.385   0.309   0.774  0.00  0.00    +0.000 S 
ENDBRANCH   1   4
BRANCH   1   9
ATOM      9  S   UNL     1       0.056  -3.015  -1.133  0.00  0.00    +0.000 S 
BRANCH   9  10
ATOM     10  C   UNL     1       0.213  -4.500  -0.239  0.00  0.00    +0.000 A 
ATOM     11  C   UNL     1       0.140  -4.578   1.105  0.00  0.00    +0.000 A 
ATOM     12  S   UNL     1       0.276  -6.185   1.796  0.00  0.00    +0.000 S 
ATOM     13  C   UNL     1       0.424  -7.055   0.284  0.00  0.00    +0.000 A 
ATOM     14  O   UNL     1       0.536  -8.268   0.213  0.00  0.00    +0.000 OA
ATOM     15  S   UNL     1       0.383  -6.005  -1.113  0.00  0.00    +0.000 S 
ATOM     16  C   UNL     1      -0.046  -3.452   2.082  0.00  0.00    +0.000 C 
ENDBRANCH   9  10
ENDBRANCH   1   9
TORSDOF 3
