REMARK  Name = *****
REMARK  4 active torsions:
REMARK  status: ('A' for Active; 'I' for Inactive)
REMARK    1  A    between atoms: C_1  and  C_2
REMARK    2  A    between atoms: C_2  and  N_3
REMARK    3  A    between atoms: C_4  and  C_18
REMARK    4  A    between atoms: C_9  and  C_12
REMARK                            x       y       z     vdW  Elec       q    Type
REMARK                         _______ _______ _______ _____ _____    ______ ____
ROOT
ATOM      1  N   UNL     1       2.900   0.813  -1.096  0.00  0.00    +0.000 N 
ATOM      2  C   UNL     1       3.527   0.429  -2.191  0.00  0.00    +0.000 C 
ATOM      3  O   UNL     1       3.895   1.447  -3.033  0.00  0.00    +0.000 OA
ATOM      4  C   UNL     1       3.441   2.573  -2.371  0.00  0.00    +0.000 A 
ATOM      5  C   UNL     1       2.827   2.193  -1.173  0.00  0.00    +0.000 A 
ATOM      6  C   UNL     1       2.285   3.156  -0.319  0.00  0.00    +0.000 A 
ATOM      7  C   UNL     1       2.375   4.511  -0.708  0.00  0.00    +0.000 A 
ATOM      8  C   UNL     1       3.003   4.849  -1.929  0.00  0.00    +0.000 A 
ATOM      9  C   UNL     1       3.554   3.889  -2.791  0.00  0.00    +0.000 A 
ATOM     10  C   UNL     1       3.876  -0.943  -2.617  0.00  0.00    +0.000 C 
ENDROOT
BRANCH   7  11
ATOM     11  C   UNL     1       1.811   5.563   0.153  0.00  0.00    +0.000 A 
ATOM     12  C   UNL     1       2.249   5.725   1.478  0.00  0.00    +0.000 A 
ATOM     13  C   UNL     1       1.707   6.720   2.295  0.00  0.00    +0.000 A 
ATOM     14  C   UNL     1       0.720   7.568   1.801  0.00  0.00    +0.000 A 
ATOM     15  C   UNL     1       0.275   7.425   0.490  0.00  0.00    +0.000 A 
ATOM     16  C   UNL     1       0.817   6.431  -0.328  0.00  0.00    +0.000 A 
ENDBRANCH   7  11
BRANCH   1  18
ATOM     17  C   UNL     1       3.397  -0.177   1.093  0.00  0.00    +0.000 C 
ATOM     18  C   UNL     1       2.390  -0.024  -0.033  0.00  0.00    +0.000 C 
ENDBRANCH   1  18
TORSDOF 2
