REMARK  Name = *****
REMARK  3 active torsions:
REMARK  status: ('A' for Active; 'I' for Inactive)
REMARK    1  A    between atoms: C_5  and  C_6
REMARK    2  A    between atoms: C_6  and  O_8
REMARK    3  A    between atoms: O_8  and  C_9
REMARK                            x       y       z     vdW  Elec       q    Type
REMARK                         _______ _______ _______ _____ _____    ______ ____
ROOT
ATOM      1  C   UNL     1       5.358  -1.870   0.619  0.00  0.00    +0.000 A 
ATOM      2  C   UNL     1       6.559  -1.935   1.333  0.00  0.00    +0.000 A 
ATOM      3  C   UNL     1       7.663  -2.582   0.778  0.00  0.00    +0.000 A 
ATOM      4  C   UNL     1       7.553  -3.169  -0.483  0.00  0.00    +0.000 A 
ATOM      5  C   UNL     1       6.353  -3.125  -1.192  0.00  0.00    +0.000 A 
ATOM      6  C   UNL     1       5.250  -2.478  -0.635  0.00  0.00    +0.000 A 
ATOM      7 CL   UNL     1       3.767  -2.457  -1.517  0.00  0.00    +0.000 Cl
ATOM      8 CL   UNL     1       8.914  -3.970  -1.167  0.00  0.00    +0.000 Cl
ATOM      9 CL   UNL     1       6.708  -1.239   2.904  0.00  0.00    +0.000 Cl
ENDROOT
BRANCH   1  10
ATOM     10  O   UNL     1       4.246  -1.236   1.184  0.00  0.00    +0.000 OA
BRANCH  10  11
ATOM     11  C   UNL     1       4.194   0.117   0.857  0.00  0.00    +0.000 C 
ATOM     12  O   UNL     1       5.012   0.701   0.153  0.00  0.00    +0.000 OA
BRANCH  11  17
ATOM     13  C   UNL     1       2.029   0.180   2.289  0.00  0.00    +0.000 A 
ATOM     14  C   UNL     1       1.070   1.082   2.696  0.00  0.00    +0.000 A 
ATOM     15  S   UNL     1       1.367   2.650   2.089  0.00  0.00    +0.000 S 
ATOM     16  C   UNL     1       2.779   2.127   1.279  0.00  0.00    +0.000 A 
ATOM     17  C   UNL     1       3.038   0.779   1.457  0.00  0.00    +0.000 A 
ENDBRANCH  11  17
ENDBRANCH  10  11
ENDBRANCH   1  10
TORSDOF 3
