REMARK  Name = *****
REMARK  5 active torsions:
REMARK  status: ('A' for Active; 'I' for Inactive)
REMARK    1  A    between atoms: C_4  and  C_7
REMARK    2  A    between atoms: C_7  and  N_8
REMARK    3  A    between atoms: N_8  and  C_9
REMARK    4  A    between atoms: N_8  and  C_16
REMARK    5  A    between atoms: C_9  and  C_10
REMARK                            x       y       z     vdW  Elec       q    Type
REMARK                         _______ _______ _______ _____ _____    ______ ____
ROOT
ATOM      1  N   UNL     1      -3.915  -1.077  -0.546  0.00  0.00    +0.000 N 
ENDROOT
BRANCH   1   2
ATOM      2  C   UNL     1      -5.206  -1.432  -0.915  0.00  0.00    +0.000 C 
ATOM      3  S   UNL     1      -5.695  -2.330  -2.235  0.00  0.00    +0.000 S 
ENDBRANCH   1   2
BRANCH   1   4
ATOM      4  C   UNL     1      -3.725  -0.262   0.659  0.00  0.00    +0.000 C 
BRANCH   4   8
ATOM      5  C   UNL     1      -2.314   3.731  -0.178  0.00  0.00    +0.000 A 
ATOM      6  C   UNL     1      -3.504   3.281  -0.746  0.00  0.00    +0.000 A 
ATOM      7  C   UNL     1      -3.962   1.991  -0.478  0.00  0.00    +0.000 A 
ATOM      8  C   UNL     1      -3.231   1.133   0.358  0.00  0.00    +0.000 A 
ATOM      9  C   UNL     1      -2.037   1.600   0.928  0.00  0.00    +0.000 A 
ATOM     10  C   UNL     1      -1.581   2.892   0.659  0.00  0.00    +0.000 A 
ENDBRANCH   4   8
ENDBRANCH   1   4
BRANCH   1  11
ATOM     11  C   UNL     1      -2.708  -1.456  -1.301  0.00  0.00    +0.000 C 
BRANCH  11  12
ATOM     12  C   UNL     1      -1.807  -2.391  -0.527  0.00  0.00    +0.000 A 
ATOM     13  C   UNL     1      -2.230  -3.690  -0.212  0.00  0.00    +0.000 A 
ATOM     14  C   UNL     1      -1.399  -4.551   0.506  0.00  0.00    +0.000 A 
ATOM     15  C   UNL     1      -0.137  -4.124   0.915  0.00  0.00    +0.000 A 
ATOM     16  C   UNL     1       0.296  -2.836   0.605  0.00  0.00    +0.000 A 
ATOM     17  C   UNL     1      -0.533  -1.973  -0.114  0.00  0.00    +0.000 A 
ENDBRANCH  11  12
ENDBRANCH   1  11
TORSDOF 5
