REMARK  Name = *****
REMARK  3 active torsions:
REMARK  status: ('A' for Active; 'I' for Inactive)
REMARK    1  A    between atoms: C_9  and  N_11
REMARK    2  A    between atoms: N_11  and  C_12
REMARK    3  A    between atoms: N_11  and  N_18
REMARK                            x       y       z     vdW  Elec       q    Type
REMARK                         _______ _______ _______ _____ _____    ______ ____
ROOT
ATOM      1  C   UNL     1       2.503  -0.585  -0.285  0.00  0.00    +0.000 C 
ATOM      2  C   UNL     1       2.440   0.749   0.446  0.00  0.00    +0.000 C 
ATOM      3  C   UNL     1       1.191   1.526   0.034  0.00  0.00    +0.000 C 
ATOM      4  C   UNL     1      -0.064   0.686   0.045  0.00  0.00    +0.000 A 
ATOM      5  C   UNL     1      -0.009  -0.716   0.034  0.00  0.00    +0.000 A 
ATOM      6  C   UNL     1       1.306  -1.456   0.092  0.00  0.00    +0.000 C 
ATOM      7  C   UNL     1      -1.202  -1.447   0.036  0.00  0.00    +0.000 A 
ATOM      8  C   UNL     1      -2.439  -0.796   0.014  0.00  0.00    +0.000 A 
ATOM      9  C   UNL     1      -2.524   0.608  -0.014  0.00  0.00    +0.000 A 
ATOM     10  C   UNL     1      -1.315   1.330   0.010  0.00  0.00    +0.000 A 
ENDROOT
BRANCH   9  11
ATOM     11  N   UNL     1      -3.804   1.276  -0.041  0.00  0.00    +0.000 N 
BRANCH  11  12
ATOM     12  C   UNL     1      -3.958   2.583  -0.636  0.00  0.00    +0.000 A 
ATOM     13  C   UNL     1      -3.375   2.877  -1.884  0.00  0.00    +0.000 A 
ATOM     14  C   UNL     1      -3.515   4.140  -2.465  0.00  0.00    +0.000 A 
ATOM     15  C   UNL     1      -4.244   5.131  -1.812  0.00  0.00    +0.000 A 
ATOM     16  C   UNL     1      -4.836   4.861  -0.581  0.00  0.00    +0.000 A 
ATOM     17  C   UNL     1      -4.697   3.597   0.001  0.00  0.00    +0.000 A 
ENDBRANCH  11  12
BRANCH  11  18
ATOM     18  N   UNL     1      -4.840   0.665   0.618  0.00  0.00    +0.000 NA
ATOM     19  O   UNL     1      -5.964   0.947   0.186  0.00  0.00    +0.000 OA
ENDBRANCH  11  18
ENDBRANCH   9  11
TORSDOF 3
