REMARK  Name = *****
REMARK  1 active torsions:
REMARK  status: ('A' for Active; 'I' for Inactive)
REMARK    1  A    between atoms: C_6  and  C_11
REMARK                            x       y       z     vdW  Elec       q    Type
REMARK                         _______ _______ _______ _____ _____    ______ ____
ROOT
ATOM      1  C   UNL     1       1.967   4.073  -1.827  0.00  0.00    +0.000 C 
ATOM      2  C   UNL     1       1.779   2.848  -2.722  0.00  0.00    +0.000 C 
ATOM      3  C   UNL     1       1.410   1.600  -1.919  0.00  0.00    +0.000 C 
ATOM      4  C   UNL     1       0.178   1.861  -1.045  0.00  0.00    +0.000 C 
ATOM      5  C   UNL     1      -0.225   0.644  -0.208  0.00  0.00    +0.000 C 
ATOM      6  C   UNL     1      -1.321   0.849   0.563  0.00  0.00    +0.000 C 
ATOM      7  C   UNL     1      -1.185   1.991   1.558  0.00  0.00    +0.000 C 
ATOM      8  C   UNL     1      -0.785   3.290   0.830  0.00  0.00    +0.000 C 
ATOM      9  C   UNL     1       0.424   3.066  -0.102  0.00  0.00    +0.000 C 
ATOM     10  C   UNL     1       0.761   4.318  -0.919  0.00  0.00    +0.000 C 
ENDROOT
BRANCH   6  11
ATOM     11  C   UNL     1      -2.640   0.556   0.020  0.00  0.00    +0.000 C 
ATOM     12  C   UNL     1      -2.911  -0.397  -0.886  0.00  0.00    +0.000 C 
ATOM     13  C   UNL     1      -4.350  -0.430  -1.271  0.00  0.00    +0.000 C 
ATOM     14  C   UNL     1      -5.007   0.426  -0.196  0.00  0.00    +0.000 C 
ATOM     15  C   UNL     1      -3.895   1.288   0.402  0.00  0.00    +0.000 C 
ENDBRANCH   6  11
TORSDOF 1
