REMARK  Name = *****
REMARK  4 active torsions:
REMARK  status: ('A' for Active; 'I' for Inactive)
REMARK    1  A    between atoms: C_4  and  C_7
REMARK    2  A    between atoms: C_7  and  C_9
REMARK    3  A    between atoms: C_9  and  C_10
REMARK    4  A    between atoms: C_15  and  C_16
REMARK                            x       y       z     vdW  Elec       q    Type
REMARK                         _______ _______ _______ _____ _____    ______ ____
ROOT
ATOM      1  C   UNL     1      -5.133  -0.046  -0.401  0.00  0.00    +0.000 A 
ATOM      2  C   UNL     1      -5.638   0.911   0.501  0.00  0.00    +0.000 A 
ATOM      3  C   UNL     1      -6.858   1.546   0.272  0.00  0.00    +0.000 A 
ATOM      4  C   UNL     1      -7.608   1.228  -0.852  0.00  0.00    +0.000 A 
ATOM      5  C   UNL     1      -7.145   0.260  -1.741  0.00  0.00    +0.000 A 
ATOM      6  C   UNL     1      -5.918  -0.399  -1.526  0.00  0.00    +0.000 A 
ENDROOT
BRANCH   6   7
ATOM      7  C   UNL     1      -5.482  -1.463  -2.511  0.00  0.00    +0.000 C 
ATOM      8  F   UNL     1      -5.174  -2.645  -1.909  0.00  0.00    +0.000 F 
ATOM      9  F   UNL     1      -6.419  -1.762  -3.453  0.00  0.00    +0.000 F 
ATOM     10  F   UNL     1      -4.367  -1.096  -3.205  0.00  0.00    +0.000 F 
ENDBRANCH   6   7
BRANCH   1  11
ATOM     11  C   UNL     1      -3.811  -0.729  -0.096  0.00  0.00    +0.000 C 
BRANCH  11  12
ATOM     12  C   UNL     1      -2.758   0.178   0.519  0.00  0.00    +0.000 C 
ATOM     13  O   UNL     1      -2.506   0.120   1.724  0.00  0.00    +0.000 OA
BRANCH  12  17
ATOM     14  C   UNL     1      -0.629   3.093  -1.820  0.00  0.00    +0.000 A 
ATOM     15  C   UNL     1      -1.466   2.184  -2.463  0.00  0.00    +0.000 A 
ATOM     16  C   UNL     1      -2.168   1.227  -1.723  0.00  0.00    +0.000 A 
ATOM     17  C   UNL     1      -2.034   1.175  -0.331  0.00  0.00    +0.000 A 
ATOM     18  C   UNL     1      -1.186   2.093   0.306  0.00  0.00    +0.000 A 
ATOM     19  C   UNL     1      -0.488   3.049  -0.435  0.00  0.00    +0.000 A 
ENDBRANCH  12  17
ENDBRANCH  11  12
ENDBRANCH   1  11
TORSDOF 4
