REMARK  Name = *****
REMARK  4 active torsions:
REMARK  status: ('A' for Active; 'I' for Inactive)
REMARK    1  A    between atoms: C_1  and  C_2
REMARK    2  A    between atoms: C_7  and  C_8
REMARK    3  A    between atoms: C_8  and  N_9
REMARK    4  A    between atoms: N_9  and  C_10
REMARK                            x       y       z     vdW  Elec       q    Type
REMARK                         _______ _______ _______ _____ _____    ______ ____
ROOT
ATOM      1  N   UNL     1       2.389  -2.591  -0.074  0.00  0.00    +0.000 N 
ATOM      2  O   UNL     1       3.084  -1.735  -0.713  0.00  0.00    +0.000 OA
ENDROOT
BRANCH   1   3
ATOM      3  C   UNL     1       2.968  -3.894   0.232  0.00  0.00    +0.000 A 
ATOM      4  C   UNL     1       3.723  -4.540  -0.755  0.00  0.00    +0.000 A 
ATOM      5  C   UNL     1       4.303  -5.780  -0.483  0.00  0.00    +0.000 A 
ATOM      6  C   UNL     1       4.134  -6.364   0.773  0.00  0.00    +0.000 A 
ATOM      7  C   UNL     1       3.396  -5.715   1.764  0.00  0.00    +0.000 A 
ATOM      8  C   UNL     1       2.815  -4.472   1.500  0.00  0.00    +0.000 A 
ATOM      9 CL   UNL     1       4.848  -7.893   1.107  0.00  0.00    +0.000 Cl
ENDBRANCH   1   3
BRANCH   1  10
ATOM     10  C   UNL     1       1.140  -2.379   0.272  0.00  0.00    +0.000 C 
BRANCH  10  17
ATOM     11  C   UNL     1       2.107   0.312   1.327  0.00  0.00    +0.000 C 
ATOM     12  C   UNL     1       0.859   0.126   0.513  0.00  0.00    +0.000 A 
ATOM     13  C   UNL     1       0.085   1.259   0.209  0.00  0.00    +0.000 A 
ATOM     14  C   UNL     1      -1.099   1.147  -0.523  0.00  0.00    +0.000 A 
ATOM     15  C   UNL     1      -1.529  -0.100  -0.967  0.00  0.00    +0.000 A 
ATOM     16  C   UNL     1      -0.767  -1.235  -0.692  0.00  0.00    +0.000 A 
ATOM     17  C   UNL     1       0.435  -1.118   0.018  0.00  0.00    +0.000 A 
ENDBRANCH  10  17
ENDBRANCH   1  10
TORSDOF 3
