REMARK  Name = *****
REMARK  4 active torsions:
REMARK  status: ('A' for Active; 'I' for Inactive)
REMARK    1  A    between atoms: C_1  and  C_2
REMARK    2  A    between atoms: C_4  and  C_8
REMARK    3  A    between atoms: N_10  and  C_11
REMARK    4  A    between atoms: N_10  and  O_18
REMARK                            x       y       z     vdW  Elec       q    Type
REMARK                         _______ _______ _______ _____ _____    ______ ____
ROOT
ATOM      1  C   UNL     1      -1.815   2.477   0.027  0.00  0.00    +0.000 C 
ATOM      2  O   UNL     1      -3.045   2.446   0.042  0.00  0.00    +0.000 OA
ATOM      3  N   UNL     1      -1.022   3.622  -0.012  0.00  0.00    +0.000 N 
ENDROOT
BRANCH   1   7
ATOM      4  C   UNL     1       1.572  -0.831  -1.700  0.00  0.00    +0.000 C 
ATOM      5  C   UNL     1       0.504  -0.445  -0.721  0.00  0.00    +0.000 A 
ATOM      6  C   UNL     1      -0.114   0.810  -0.802  0.00  0.00    +0.000 A 
ATOM      7  C   UNL     1      -1.128   1.159   0.100  0.00  0.00    +0.000 A 
ATOM      8  C   UNL     1      -1.565   0.232   1.053  0.00  0.00    +0.000 A 
ATOM      9  C   UNL     1      -0.965  -1.024   1.127  0.00  0.00    +0.000 A 
ATOM     10  C   UNL     1       0.064  -1.360   0.245  0.00  0.00    +0.000 A 
ENDBRANCH   1   7
BRANCH   3  11
ATOM     11  C   UNL     1      -1.442   4.966  -0.223  0.00  0.00    +0.000 A 
ATOM     12  C   UNL     1      -2.788   5.318  -0.397  0.00  0.00    +0.000 A 
ATOM     13  C   UNL     1      -3.170   6.652  -0.599  0.00  0.00    +0.000 A 
ATOM     14  C   UNL     1      -2.207   7.654  -0.633  0.00  0.00    +0.000 A 
ATOM     15  C   UNL     1      -0.864   7.333  -0.470  0.00  0.00    +0.000 A 
ATOM     16  C   UNL     1      -0.488   6.000  -0.268  0.00  0.00    +0.000 A 
ATOM     17 CL   UNL     1      -2.675   9.289  -0.881  0.00  0.00    +0.000 Cl
ENDBRANCH   3  11
BRANCH   3  18
ATOM     18  O   UNL     1       0.375   3.459   0.150  0.00  0.00    +0.000 OA
ATOM     19  H   UNL     1       0.576   2.520   0.288  0.00  0.00    +0.000 HD
ENDBRANCH   3  18
TORSDOF 3
