REMARK  Name = *****
REMARK  3 active torsions:
REMARK  status: ('A' for Active; 'I' for Inactive)
REMARK    1  A    between atoms: C_3  and  C_8
REMARK    2  A    between atoms: C_8  and  O_9
REMARK    3  A    between atoms: O_9  and  C_10
REMARK                            x       y       z     vdW  Elec       q    Type
REMARK                         _______ _______ _______ _____ _____    ______ ____
ROOT
ATOM      1  C   UNL     1       2.472   2.527   0.002  0.00  0.00    +0.000 C 
ENDROOT
BRANCH   1   4
ATOM      2  C   UNL     1       0.030  -0.225  -1.008  0.00  0.00    +0.000 A 
ATOM      3  C   UNL     1       0.762   0.964  -1.010  0.00  0.00    +0.000 A 
ATOM      4  C   UNL     1       1.669   1.249   0.023  0.00  0.00    +0.000 A 
ATOM      5  C   UNL     1       1.831   0.317   1.058  0.00  0.00    +0.000 A 
ATOM      6  C   UNL     1       1.097  -0.870   1.055  0.00  0.00    +0.000 A 
ATOM      7  C   UNL     1       0.198  -1.145   0.026  0.00  0.00    +0.000 A 
ATOM      8 CL   UNL     1       1.307  -2.006   2.331  0.00  0.00    +0.000 Cl
ENDBRANCH   1   4
BRANCH   1   9
ATOM      9  O   UNL     1       1.572   3.634  -0.011  0.00  0.00    +0.000 OA
BRANCH   9  10
ATOM     10  C   UNL     1       2.121   4.885  -0.066  0.00  0.00    +0.000 A 
ATOM     11  C   UNL     1       3.486   5.184  -0.092  0.00  0.00    +0.000 A 
ATOM     12  C   UNL     1       3.909   6.515  -0.150  0.00  0.00    +0.000 A 
ATOM     13  C   UNL     1       2.968   7.538  -0.180  0.00  0.00    +0.000 A 
ATOM     14  C   UNL     1       1.609   7.257  -0.153  0.00  0.00    +0.000 A 
ATOM     15  C   UNL     1       1.188   5.928  -0.095  0.00  0.00    +0.000 A 
ATOM     16  F   UNL     1       3.379   8.812  -0.236  0.00  0.00    +0.000 F 
ENDBRANCH   9  10
ENDBRANCH   1   9
TORSDOF 3
