REMARK  Name = *****
REMARK  5 active torsions:
REMARK  status: ('A' for Active; 'I' for Inactive)
REMARK    1  A    between atoms: C_1  and  C_2
REMARK    2  A    between atoms: C_2  and  C_7
REMARK    3  A    between atoms: C_7  and  C_8
REMARK    4  A    between atoms: C_8  and  C_9
REMARK    5  A    between atoms: C_9  and  C_14
REMARK                            x       y       z     vdW  Elec       q    Type
REMARK                         _______ _______ _______ _____ _____    ______ ____
ROOT
ATOM      1  C   UNL     1       2.856   0.030   1.436  0.00  0.00    +0.000 C 
ENDROOT
BRANCH   1   3
ATOM      2  C   UNL     1       3.009  -1.263  -0.753  0.00  0.00    +0.000 C 
ATOM      3  C   UNL     1       2.493   0.023  -0.070  0.00  0.00    +0.000 C 
ATOM      4  C   UNL     1       0.954   0.111  -0.253  0.00  0.00    +0.000 C 
ATOM      5  C   UNL     1       0.805   0.936  -1.492  0.00  0.00    +0.000 C 
ATOM      6  C   UNL     1       1.941   1.571  -1.800  0.00  0.00    +0.000 C 
ATOM      7  C   UNL     1       3.026   1.271  -0.815  0.00  0.00    +0.000 C 
ENDBRANCH   1   3
BRANCH   1   8
ATOM      8  C   UNL     1       4.366   0.024   1.735  0.00  0.00    +0.000 C 
BRANCH   8   9
ATOM      9  C   UNL     1       4.753   0.021   3.248  0.00  0.00    +0.000 C 
ATOM     10  C   UNL     1       6.301   0.084   3.371  0.00  0.00    +0.000 C 
ATOM     11  C   UNL     1       6.693  -1.353   3.502  0.00  0.00    +0.000 C 
ATOM     12  C   UNL     1       5.645  -2.122   3.810  0.00  0.00    +0.000 C 
ATOM     13  C   UNL     1       4.387  -1.322   3.931  0.00  0.00    +0.000 C 
ATOM     14  C   UNL     1       4.114   1.207   3.982  0.00  0.00    +0.000 C 
ENDBRANCH   8   9
ENDBRANCH   1   8
TORSDOF 3
