REMARK  Name = *****
REMARK  1 active torsions:
REMARK  status: ('A' for Active; 'I' for Inactive)
REMARK    1  A    between atoms: C_10  and  C_12
REMARK                            x       y       z     vdW  Elec       q    Type
REMARK                         _______ _______ _______ _____ _____    ______ ____
ROOT
ATOM      1  C   UNL     1       1.294   1.443  -0.021  0.00  0.00    +0.000 C 
ATOM      2  C   UNL     1      -0.007   0.711  -0.002  0.00  0.00    +0.000 A 
ATOM      3  C   UNL     1       0.026  -0.680   0.029  0.00  0.00    +0.000 A 
ATOM      4  C   UNL     1      -1.169  -1.406   0.048  0.00  0.00    +0.000 A 
ATOM      5  C   UNL     1      -2.400  -0.751   0.043  0.00  0.00    +0.000 A 
ATOM      6  C   UNL     1      -2.438   0.640   0.023  0.00  0.00    +0.000 A 
ATOM      7  C   UNL     1      -1.245   1.368   0.003  0.00  0.00    +0.000 A 
ATOM      8 CL   UNL     1      -1.349   3.092  -0.013  0.00  0.00    +0.000 Cl
ATOM      9  N   UNL     1       1.230  -1.383   0.038  0.00  0.00    +0.000 NA
ATOM     10  C   UNL     1       2.339  -0.727  -0.049  0.00  0.00    +0.000 C 
ATOM     11  O   UNL     1       2.466   0.615  -0.123  0.00  0.00    +0.000 OA
ENDROOT
BRANCH  10  12
ATOM     12  C   UNL     1       3.668  -1.388  -0.061  0.00  0.00    +0.000 A 
ATOM     13  C   UNL     1       4.825  -0.711  -0.473  0.00  0.00    +0.000 A 
ATOM     14  C   UNL     1       6.060  -1.368  -0.481  0.00  0.00    +0.000 A 
ATOM     15  C   UNL     1       6.141  -2.699  -0.076  0.00  0.00    +0.000 A 
ATOM     16  C   UNL     1       4.998  -3.383   0.335  0.00  0.00    +0.000 A 
ATOM     17  C   UNL     1       3.762  -2.729   0.339  0.00  0.00    +0.000 A 
ATOM     18 CL   UNL     1       7.661  -3.504  -0.084  0.00  0.00    +0.000 Cl
ENDBRANCH  10  12
TORSDOF 1
