REMARK  Name = *****
REMARK  6 active torsions:
REMARK  status: ('A' for Active; 'I' for Inactive)
REMARK    1  A    between atoms: C_1  and  C_2
REMARK    2  A    between atoms: C_4  and  C_17
REMARK    3  A    between atoms: C_5  and  C_16
REMARK    4  A    between atoms: C_6  and  O_8
REMARK    5  A    between atoms: O_8  and  C_9
REMARK    6  A    between atoms: C_9  and  C_10
REMARK                            x       y       z     vdW  Elec       q    Type
REMARK                         _______ _______ _______ _____ _____    ______ ____
ROOT
ATOM      1  C   UNL     1       3.056   0.515   0.166  0.00  0.00    +0.000 C 
ATOM      2  C   UNL     1       1.611   0.127   0.048  0.00  0.00    +0.000 A 
ATOM      3  C   UNL     1       0.615   1.107   0.029  0.00  0.00    +0.000 A 
ATOM      4  C   UNL     1      -0.742   0.761  -0.054  0.00  0.00    +0.000 A 
ATOM      5  C   UNL     1      -1.111  -0.603  -0.076  0.00  0.00    +0.000 A 
ATOM      6  C   UNL     1      -0.106  -1.594  -0.064  0.00  0.00    +0.000 A 
ATOM      7  C   UNL     1       1.241  -1.222   0.009  0.00  0.00    +0.000 A 
ATOM      8  C   UNL     1      -2.562  -1.008  -0.177  0.00  0.00    +0.000 C 
ATOM      9  C   UNL     1      -1.768   1.862  -0.090  0.00  0.00    +0.000 C 
ENDROOT
BRANCH   6  10
ATOM     10  O   UNL     1      -0.548  -2.891  -0.132  0.00  0.00    +0.000 OA
BRANCH  10  11
ATOM     11  C   UNL     1       0.424  -3.934  -0.087  0.00  0.00    +0.000 C 
BRANCH  11  12
ATOM     12  C   UNL     1      -0.279  -5.272  -0.110  0.00  0.00    +0.000 A 
ATOM     13  C   UNL     1       0.162  -6.294  -0.962  0.00  0.00    +0.000 A 
ATOM     14  C   UNL     1      -0.468  -7.541  -0.959  0.00  0.00    +0.000 A 
ATOM     15  C   UNL     1      -1.539  -7.781  -0.100  0.00  0.00    +0.000 A 
ATOM     16  C   UNL     1      -1.981  -6.776   0.758  0.00  0.00    +0.000 A 
ATOM     17  C   UNL     1      -1.352  -5.530   0.757  0.00  0.00    +0.000 A 
ENDBRANCH  11  12
ENDBRANCH  10  11
ENDBRANCH   6  10
TORSDOF 3
