REMARK  Name = *****
REMARK  1 active torsions:
REMARK  status: ('A' for Active; 'I' for Inactive)
REMARK    1  A    between atoms: C_3  and  C_13
REMARK                            x       y       z     vdW  Elec       q    Type
REMARK                         _______ _______ _______ _____ _____    ______ ____
ROOT
ATOM      1  C   UNL     1       0.993   0.293   0.453  0.00  0.00    +0.000 C 
ATOM      2  C   UNL     1       2.320   0.129   0.298  0.00  0.00    +0.000 C 
ATOM      3  C   UNL     1       3.049  -1.208   0.230  0.00  0.00    +0.000 C 
ATOM      4  S   UNL     1       4.170  -1.277   1.665  0.00  0.00    +0.000 S 
ATOM      5  C   UNL     1       5.144   0.136   1.331  0.00  0.00    +0.000 C 
ATOM      6  O   UNL     1       6.317   0.158   1.681  0.00  0.00    +0.000 OA
ATOM      7  C   UNL     1       4.535   1.305   0.640  0.00  0.00    +0.000 A 
ATOM      8  C   UNL     1       5.356   2.437   0.469  0.00  0.00    +0.000 A 
ATOM      9  C   UNL     1       4.879   3.577  -0.174  0.00  0.00    +0.000 A 
ATOM     10  C   UNL     1       3.579   3.595  -0.661  0.00  0.00    +0.000 A 
ATOM     11  C   UNL     1       2.756   2.477  -0.498  0.00  0.00    +0.000 A 
ATOM     12  C   UNL     1       3.208   1.320   0.169  0.00  0.00    +0.000 A 
ENDROOT
BRANCH   3  13
ATOM     13  C   UNL     1       2.178  -2.500   0.093  0.00  0.00    +0.000 C 
ATOM     14  C   UNL     1       1.483  -2.989   1.384  0.00  0.00    +0.000 C 
ATOM     15  C   UNL     1       0.598  -4.205   1.110  0.00  0.00    +0.000 C 
ATOM     16  C   UNL     1       1.399  -5.347   0.493  0.00  0.00    +0.000 C 
ATOM     17  C   UNL     1       2.144  -4.898  -0.760  0.00  0.00    +0.000 C 
ATOM     18  C   UNL     1       3.008  -3.663  -0.499  0.00  0.00    +0.000 C 
ENDBRANCH   3  13
TORSDOF 1
