REMARK  Name = *****
REMARK  3 active torsions:
REMARK  status: ('A' for Active; 'I' for Inactive)
REMARK    1  A    between atoms: C_3  and  S_7
REMARK    2  A    between atoms: S_7  and  S_8
REMARK    3  A    between atoms: S_8  and  C_9
REMARK                            x       y       z     vdW  Elec       q    Type
REMARK                         _______ _______ _______ _____ _____    ______ ____
ROOT
ATOM      1  S   UNL     1       2.038   0.013  -1.914  0.00  0.00    +0.000 S 
ENDROOT
BRANCH   1   4
ATOM      2  C   UNL     1      -0.065   1.534   1.216  0.00  0.00    +0.000 C 
ATOM      3  C   UNL     1       0.065   0.866  -0.157  0.00  0.00    +0.000 C 
ATOM      4  C   UNL     1       1.488   0.292  -0.193  0.00  0.00    +0.000 C 
ATOM      5  C   UNL     1       2.288   1.265   0.679  0.00  0.00    +0.000 C 
ATOM      6  C   UNL     1       1.328   1.491   1.846  0.00  0.00    +0.000 C 
ATOM      7 CL   UNL     1       2.636   2.832  -0.118  0.00  0.00    +0.000 Cl
ENDBRANCH   1   4
BRANCH   1   8
ATOM      8  S   UNL     1       3.548  -1.372  -1.733  0.00  0.00    +0.000 S 
BRANCH   8   9
ATOM      9  C   UNL     1       5.070  -0.406  -2.036  0.00  0.00    +0.000 C 
ATOM     10  C   UNL     1       6.226  -1.321  -2.461  0.00  0.00    +0.000 C 
ATOM     11  C   UNL     1       7.501  -0.524  -2.165  0.00  0.00    +0.000 C 
ATOM     12  C   UNL     1       7.055   0.732  -1.414  0.00  0.00    +0.000 C 
ATOM     13  C   UNL     1       5.662   0.404  -0.879  0.00  0.00    +0.000 C 
ATOM     14 CL   UNL     1       5.814  -0.522   0.649  0.00  0.00    +0.000 Cl
ENDBRANCH   8   9
ENDBRANCH   1   8
TORSDOF 3
