REMARK  Name = *****
REMARK  3 active torsions:
REMARK  status: ('A' for Active; 'I' for Inactive)
REMARK    1  A    between atoms: C_4  and  S_7
REMARK    2  A    between atoms: S_7  and  S_8
REMARK    3  A    between atoms: S_8  and  C_11
REMARK                            x       y       z     vdW  Elec       q    Type
REMARK                         _______ _______ _______ _____ _____    ______ ____
ROOT
ATOM      1  S   UNL     1      -4.039  -1.312  -0.534  0.00  0.00    +0.000 S 
ATOM      2  O   UNL     1      -3.577  -1.878  -1.785  0.00  0.00    +0.000 OA
ATOM      3  O   UNL     1      -3.842  -2.027   0.714  0.00  0.00    +0.000 OA
ENDROOT
BRANCH   1   4
ATOM      4  C   UNL     1      -5.782  -1.011  -0.691  0.00  0.00    +0.000 A 
ATOM      5  C   UNL     1      -6.318  -0.338  -1.794  0.00  0.00    +0.000 A 
ATOM      6  C   UNL     1      -7.704  -0.146  -1.871  0.00  0.00    +0.000 A 
ATOM      7  C   UNL     1      -8.546  -0.624  -0.865  0.00  0.00    +0.000 A 
ATOM      8  C   UNL     1      -8.005  -1.300   0.225  0.00  0.00    +0.000 A 
ATOM      9  C   UNL     1      -6.630  -1.499   0.318  0.00  0.00    +0.000 A 
ATOM     10 CL   UNL     1      -9.041  -1.892   1.462  0.00  0.00    +0.000 Cl
ATOM     11 CL   UNL     1      -5.382   0.303  -3.093  0.00  0.00    +0.000 Cl
ENDBRANCH   1   4
BRANCH   1  12
ATOM     12  S   UNL     1      -3.211   0.596  -0.273  0.00  0.00    +0.000 S 
BRANCH  12  16
ATOM     13  C   UNL     1       1.252  -0.350   0.111  0.00  0.00    +0.000 A 
ATOM     14  C   UNL     1       0.621  -0.474  -1.126  0.00  0.00    +0.000 A 
ATOM     15  C   UNL     1      -0.740  -0.190  -1.248  0.00  0.00    +0.000 A 
ATOM     16  C   UNL     1      -1.480   0.211  -0.130  0.00  0.00    +0.000 A 
ATOM     17  C   UNL     1      -0.839   0.343   1.106  0.00  0.00    +0.000 A 
ATOM     18  C   UNL     1       0.523   0.060   1.226  0.00  0.00    +0.000 A 
ENDBRANCH  12  16
ENDBRANCH   1  12
TORSDOF 3
