REMARK  Name = *****
REMARK  4 active torsions:
REMARK  status: ('A' for Active; 'I' for Inactive)
REMARK    1  A    between atoms: C_1  and  C_2
REMARK    2  A    between atoms: C_4  and  O_10
REMARK    3  A    between atoms: C_6  and  C_9
REMARK    4  A    between atoms: O_10  and  C_11
REMARK                            x       y       z     vdW  Elec       q    Type
REMARK                         _______ _______ _______ _____ _____    ______ ____
ROOT
ATOM      1  C   UNL     1      -0.559   2.527  -0.662  0.00  0.00    +0.000 C 
ATOM      2  C   UNL     1       0.279   1.298  -0.442  0.00  0.00    +0.000 A 
ATOM      3  C   UNL     1       1.673   1.397  -0.560  0.00  0.00    +0.000 A 
ATOM      4  C   UNL     1       2.472   0.277  -0.343  0.00  0.00    +0.000 A 
ATOM      5  C   UNL     1       1.909  -0.962  -0.050  0.00  0.00    +0.000 A 
ATOM      6  C   UNL     1       0.517  -1.091   0.068  0.00  0.00    +0.000 A 
ATOM      7  C   UNL     1      -0.293   0.047  -0.127  0.00  0.00    +0.000 A 
ATOM      8 CL   UNL     1      -2.019  -0.096   0.008  0.00  0.00    +0.000 Cl
ATOM      9  C   UNL     1      -0.067  -2.440   0.388  0.00  0.00    +0.000 C 
ENDROOT
BRANCH   4  10
ATOM     10  O   UNL     1       3.865   0.319  -0.521  0.00  0.00    +0.000 OA
BRANCH  10  11
ATOM     11  C   UNL     1       4.590   1.299   0.158  0.00  0.00    +0.000 C 
ATOM     12  O   UNL     1       4.105   2.066   0.984  0.00  0.00    +0.000 OA
ATOM     13  N   UNL     1       5.931   1.319  -0.212  0.00  0.00    +0.000 N 
ATOM     14  C   UNL     1       6.841   2.200   0.510  0.00  0.00    +0.000 C 
ATOM     15  C   UNL     1       7.919   2.769  -0.408  0.00  0.00    +0.000 C 
ATOM     16  C   UNL     1       8.633   1.664  -1.180  0.00  0.00    +0.000 C 
ATOM     17  C   UNL     1       7.625   0.803  -1.936  0.00  0.00    +0.000 C 
ATOM     18  C   UNL     1       6.545   0.257  -1.006  0.00  0.00    +0.000 C 
ENDBRANCH  10  11
ENDBRANCH   4  10
TORSDOF 2
