REMARK  Name = *****
REMARK  2 active torsions:
REMARK  status: ('A' for Active; 'I' for Inactive)
REMARK    1  A    between atoms: C_5  and  C_8
REMARK    2  A    between atoms: C_9  and  C_10
REMARK                            x       y       z     vdW  Elec       q    Type
REMARK                         _______ _______ _______ _____ _____    ______ ____
ROOT
ATOM      1  C   UNL     1       1.904  -2.450  -0.456  0.00  0.00    +0.000 C 
ATOM      2  C   UNL     1       2.095  -3.192  -1.562  0.00  0.00    +0.000 C 
ENDROOT
BRANCH   1   7
ATOM      3  C   UNL     1      -1.622   0.830   0.123  0.00  0.00    +0.000 C 
ATOM      4  C   UNL     1      -0.388   1.553  -0.426  0.00  0.00    +0.000 C 
ATOM      5  C   UNL     1       0.838   1.463   0.482  0.00  0.00    +0.000 C 
ATOM      6  S   UNL     1       2.066   0.185   0.063  0.00  0.00    +0.000 S 
ATOM      7  C   UNL     1       1.025  -1.229  -0.400  0.00  0.00    +0.000 C 
ATOM      8  S   UNL     1      -0.302  -1.560   0.793  0.00  0.00    +0.000 S 
ATOM      9  C   UNL     1      -1.653  -0.685  -0.045  0.00  0.00    +0.000 C 
ENDBRANCH   1   7
BRANCH   2  10
ATOM     10  C   UNL     1       2.953  -4.383  -1.616  0.00  0.00    +0.000 A 
ATOM     11  C   UNL     1       3.025  -5.301  -0.560  0.00  0.00    +0.000 A 
ATOM     12  C   UNL     1       3.827  -6.441  -0.662  0.00  0.00    +0.000 A 
ATOM     13  C   UNL     1       4.557  -6.680  -1.825  0.00  0.00    +0.000 A 
ATOM     14  C   UNL     1       4.481  -5.782  -2.887  0.00  0.00    +0.000 A 
ATOM     15  C   UNL     1       3.679  -4.643  -2.785  0.00  0.00    +0.000 A 
ENDBRANCH   2  10
TORSDOF 2
