REMARK  Name = *****
REMARK  1 active torsions:
REMARK  status: ('A' for Active; 'I' for Inactive)
REMARK    1  A    between atoms: C_8  and  C_10
REMARK                            x       y       z     vdW  Elec       q    Type
REMARK                         _______ _______ _______ _____ _____    ______ ____
ROOT
ATOM      1  C   UNL     1       2.196   0.670   0.022  0.00  0.00    +0.000 A 
ATOM      2  C   UNL     1       2.138  -0.729   0.065  0.00  0.00    +0.000 A 
ATOM      3  C   UNL     1       0.913  -1.409   0.061  0.00  0.00    +0.000 A 
ATOM      4  C   UNL     1      -0.220  -0.606   0.012  0.00  0.00    +0.000 A 
ATOM      5  C   UNL     1      -0.206   0.778  -0.033  0.00  0.00    +0.000 A 
ATOM      6  C   UNL     1       1.026   1.444  -0.028  0.00  0.00    +0.000 A 
ATOM      7  N   UNL     1      -1.491   1.255  -0.076  0.00  0.00    +0.000 NA
ATOM      8  C   UNL     1      -2.234   0.162  -0.056  0.00  0.00    +0.000 A 
ATOM      9  O   UNL     1      -1.521  -1.012  -0.003  0.00  0.00    +0.000 OA
ENDROOT
BRANCH   8  10
ATOM     10  C   UNL     1      -3.691   0.044  -0.086  0.00  0.00    +0.000 A 
ATOM     11  C   UNL     1      -4.478   1.205  -0.154  0.00  0.00    +0.000 A 
ATOM     12  C   UNL     1      -5.874   1.125  -0.185  0.00  0.00    +0.000 A 
ATOM     13  C   UNL     1      -6.496  -0.120  -0.146  0.00  0.00    +0.000 A 
ATOM     14  C   UNL     1      -5.734  -1.284  -0.078  0.00  0.00    +0.000 A 
ATOM     15  C   UNL     1      -4.338  -1.202  -0.048  0.00  0.00    +0.000 A 
ATOM     16 CL   UNL     1      -8.212  -0.221  -0.184  0.00  0.00    +0.000 Cl
ENDBRANCH   8  10
TORSDOF 1
