REMARK  Name = *****
REMARK  4 active torsions:
REMARK  status: ('A' for Active; 'I' for Inactive)
REMARK    1  A    between atoms: C_1  and  C_2
REMARK    2  A    between atoms: C_5  and  C_8
REMARK    3  A    between atoms: C_9  and  C_11
REMARK    4  A    between atoms: C_14  and  C_17
REMARK                            x       y       z     vdW  Elec       q    Type
REMARK                         _______ _______ _______ _____ _____    ______ ____
ROOT
ATOM      1  C   UNL     1      -4.010  -0.319   0.012  0.00  0.00    +0.000 C 
ATOM      2  C   UNL     1      -5.267   0.530   0.115  0.00  0.00    +0.000 C 
ATOM      3  O   UNL     1      -4.872  -0.097  -1.116  0.00  0.00    +0.000 OA
ENDROOT
BRANCH   1   8
ATOM      4  C   UNL     1       1.373   1.967  -0.084  0.00  0.00    +0.000 C 
ATOM      5  C   UNL     1      -0.019   1.410  -0.065  0.00  0.00    +0.000 A 
ATOM      6  C   UNL     1      -0.678   1.186   1.147  0.00  0.00    +0.000 A 
ATOM      7  C   UNL     1      -1.964   0.636   1.163  0.00  0.00    +0.000 A 
ATOM      8  C   UNL     1      -2.630   0.289  -0.024  0.00  0.00    +0.000 A 
ATOM      9  C   UNL     1      -1.944   0.502  -1.230  0.00  0.00    +0.000 A 
ATOM     10  C   UNL     1      -0.657   1.051  -1.254  0.00  0.00    +0.000 A 
ENDBRANCH   1   8
BRANCH   2  11
ATOM     11  C   UNL     1      -5.216   2.036   0.190  0.00  0.00    +0.000 A 
ATOM     12  C   UNL     1      -5.384   2.843  -0.946  0.00  0.00    +0.000 A 
ATOM     13  C   UNL     1      -5.351   4.239  -0.866  0.00  0.00    +0.000 A 
ATOM     14  C   UNL     1      -5.155   4.871   0.364  0.00  0.00    +0.000 A 
ATOM     15  C   UNL     1      -4.991   4.085   1.507  0.00  0.00    +0.000 A 
ATOM     16  C   UNL     1      -5.025   2.690   1.418  0.00  0.00    +0.000 A 
ATOM     17  C   UNL     1      -5.112   6.367   0.468  0.00  0.00    +0.000 C 
ENDBRANCH   2  11
TORSDOF 2
