REMARK  Name = *****
REMARK  2 active torsions:
REMARK  status: ('A' for Active; 'I' for Inactive)
REMARK    1  A    between atoms: C_5  and  C_10
REMARK    2  A    between atoms: C_10  and  C_11
REMARK                            x       y       z     vdW  Elec       q    Type
REMARK                         _______ _______ _______ _____ _____    ______ ____
ROOT
ATOM      1  C   UNL     1       2.137  -0.809   0.244  0.00  0.00    +0.000 A 
ATOM      2  C   UNL     1       2.127   0.592   0.355  0.00  0.00    +0.000 A 
ATOM      3  C   UNL     1       0.928   1.305   0.273  0.00  0.00    +0.000 A 
ATOM      4  C   UNL     1      -0.244   0.594   0.074  0.00  0.00    +0.000 A 
ATOM      5  C   UNL     1      -1.661   1.100  -0.046  0.00  0.00    +0.000 C 
ATOM      6  C   UNL     1      -2.404  -0.217  -0.220  0.00  0.00    +0.000 C 
ATOM      7  C   UNL     1      -1.591  -1.285  -0.212  0.00  0.00    +0.000 C 
ATOM      8  C   UNL     1      -0.233  -0.804  -0.029  0.00  0.00    +0.000 A 
ATOM      9  C   UNL     1       0.948  -1.519   0.052  0.00  0.00    +0.000 A 
ENDROOT
BRANCH   5  10
ATOM     10  C   UNL     1      -1.838   2.057  -1.236  0.00  0.00    +0.000 C 
BRANCH  10  11
ATOM     11  C   UNL     1      -3.232   2.626  -1.341  0.00  0.00    +0.000 A 
ATOM     12  C   UNL     1      -4.112   2.196  -2.343  0.00  0.00    +0.000 A 
ATOM     13  C   UNL     1      -5.403   2.724  -2.423  0.00  0.00    +0.000 A 
ATOM     14  C   UNL     1      -5.827   3.686  -1.506  0.00  0.00    +0.000 A 
ATOM     15  C   UNL     1      -4.960   4.121  -0.506  0.00  0.00    +0.000 A 
ATOM     16  C   UNL     1      -3.675   3.591  -0.432  0.00  0.00    +0.000 A 
ATOM     17  F   UNL     1      -2.853   4.021   0.536  0.00  0.00    +0.000 F 
ENDBRANCH  10  11
ENDBRANCH   5  10
TORSDOF 2
