REMARK  Name = *****
REMARK  2 active torsions:
REMARK  status: ('A' for Active; 'I' for Inactive)
REMARK    1  A    between atoms: C_9  and  S_10
REMARK    2  A    between atoms: S_10  and  C_11
REMARK                            x       y       z     vdW  Elec       q    Type
REMARK                         _______ _______ _______ _____ _____    ______ ____
ROOT
ATOM      1  C   UNL     1       1.152  -1.086   0.905  0.00  0.00    +0.000 C 
ATOM      2  C   UNL     1       0.446  -1.167  -0.444  0.00  0.00    +0.000 C 
ATOM      3  C   UNL     1       0.286   0.258  -0.951  0.00  0.00    +0.000 C 
ATOM      4  C   UNL     1       1.190   1.151  -0.094  0.00  0.00    +0.000 C 
ATOM      5  C   UNL     1       1.880   0.253   0.922  0.00  0.00    +0.000 C 
ATOM      6  C   UNL     1       0.123   2.100   0.479  0.00  0.00    +0.000 C 
ATOM      7  C   UNL     1      -1.098   1.200   0.899  0.00  0.00    +0.000 C 
ATOM      8  C   UNL     1      -1.069   0.920  -0.649  0.00  0.00    +0.000 C 
ATOM      9  C   UNL     1      -0.863   2.488  -0.695  0.00  0.00    +0.000 C 
ENDROOT
BRANCH   9  10
ATOM     10  S   UNL     1      -0.080   3.169  -2.194  0.00  0.00    +0.000 S 
BRANCH  10  11
ATOM     11  C   UNL     1      -1.505   3.067  -3.257  0.00  0.00    +0.000 A 
ATOM     12  C   UNL     1      -2.466   4.081  -3.249  0.00  0.00    +0.000 A 
ATOM     13  C   UNL     1      -3.583   3.998  -4.084  0.00  0.00    +0.000 A 
ATOM     14  C   UNL     1      -3.739   2.903  -4.933  0.00  0.00    +0.000 A 
ATOM     15  C   UNL     1      -2.778   1.893  -4.951  0.00  0.00    +0.000 A 
ATOM     16  C   UNL     1      -1.661   1.976  -4.117  0.00  0.00    +0.000 A 
ENDBRANCH  10  11
ENDBRANCH   9  10
TORSDOF 2
