REMARK  Name = *****
REMARK  4 active torsions:
REMARK  status: ('A' for Active; 'I' for Inactive)
REMARK    1  A    between atoms: C_1  and  C_2
REMARK    2  A    between atoms: C_2  and  O_8
REMARK    3  A    between atoms: O_8  and  C_9
REMARK    4  A    between atoms: C_9  and  C_11
REMARK                            x       y       z     vdW  Elec       q    Type
REMARK                         _______ _______ _______ _____ _____    ______ ____
ROOT
ATOM      1  O   UNL     1       1.184   0.047   1.750  0.00  0.00    +0.000 OA
ENDROOT
BRANCH   1   3
ATOM      2  C   UNL     1       2.496  -0.215  -0.310  0.00  0.00    +0.000 C 
ATOM      3  C   UNL     1       1.106   0.009   0.299  0.00  0.00    +0.000 C 
ATOM      4  C   UNL     1       0.432   1.274  -0.270  0.00  0.00    +0.000 C 
ATOM      5  C   UNL     1      -1.000   1.448   0.240  0.00  0.00    +0.000 C 
ATOM      6  C   UNL     1      -1.853   0.220  -0.062  0.00  0.00    +0.000 C 
ATOM      7  C   UNL     1      -1.214  -1.057   0.472  0.00  0.00    +0.000 C 
ATOM      8  C   UNL     1       0.224  -1.220  -0.026  0.00  0.00    +0.000 C 
ENDBRANCH   1   3
BRANCH   1   9
ATOM      9  C   UNL     1       1.907   0.997   2.388  0.00  0.00    +0.000 C 
ATOM     10  O   UNL     1       2.560   1.887   1.869  0.00  0.00    +0.000 OA
BRANCH   9  11
ATOM     11  C   UNL     1       1.804   0.816   3.862  0.00  0.00    +0.000 A 
ATOM     12  C   UNL     1       1.004  -0.177   4.446  0.00  0.00    +0.000 A 
ATOM     13  C   UNL     1       0.942  -0.302   5.836  0.00  0.00    +0.000 A 
ATOM     14  C   UNL     1       1.675   0.563   6.649  0.00  0.00    +0.000 A 
ATOM     15  C   UNL     1       2.471   1.553   6.077  0.00  0.00    +0.000 A 
ATOM     16  C   UNL     1       2.536   1.681   4.688  0.00  0.00    +0.000 A 
ENDBRANCH   9  11
ENDBRANCH   1   9
TORSDOF 3
