REMARK  Name = *****
REMARK  2 active torsions:
REMARK  status: ('A' for Active; 'I' for Inactive)
REMARK    1  A    between atoms: C_4  and  C_7
REMARK    2  A    between atoms: C_8  and  C_11
REMARK                            x       y       z     vdW  Elec       q    Type
REMARK                         _______ _______ _______ _____ _____    ______ ____
ROOT
ATOM      1  C   UNL     1      -2.812   0.547  -0.257  0.00  0.00    +0.000 C 
ATOM      2  C   UNL     1      -3.779  -0.109   0.704  0.00  0.00    +0.000 C 
ATOM      3  N   UNL     1      -4.393  -0.669  -0.496  0.00  0.00    +0.000 NA
ATOM      4  N   UNL     1      -3.507  -0.230  -1.280  0.00  0.00    +0.000 NA
ENDROOT
BRANCH   1   8
ATOM      5  C   UNL     1       1.515  -0.346   0.089  0.00  0.00    +0.000 A 
ATOM      6  C   UNL     1       0.783  -0.885  -0.963  0.00  0.00    +0.000 A 
ATOM      7  C   UNL     1      -0.582  -0.608  -1.081  0.00  0.00    +0.000 A 
ATOM      8  C   UNL     1      -1.266   0.210  -0.157  0.00  0.00    +0.000 A 
ATOM      9  C   UNL     1      -0.485   0.741   0.893  0.00  0.00    +0.000 A 
ATOM     10  C   UNL     1       0.881   0.470   1.019  0.00  0.00    +0.000 A 
ENDBRANCH   1   8
BRANCH   2  11
ATOM     11  C   UNL     1      -4.785   0.784   1.542  0.00  0.00    +0.000 A 
ATOM     12  C   UNL     1      -5.845   1.511   0.959  0.00  0.00    +0.000 A 
ATOM     13  C   UNL     1      -6.709   2.308   1.717  0.00  0.00    +0.000 A 
ATOM     14  C   UNL     1      -6.537   2.405   3.093  0.00  0.00    +0.000 A 
ATOM     15  C   UNL     1      -5.505   1.706   3.707  0.00  0.00    +0.000 A 
ATOM     16  C   UNL     1      -4.646   0.911   2.941  0.00  0.00    +0.000 A 
ENDBRANCH   2  11
TORSDOF 2
