REMARK  Name = *****
REMARK  1 active torsions:
REMARK  status: ('A' for Active; 'I' for Inactive)
REMARK    1  A    between atoms: C_5  and  C_6
REMARK                            x       y       z     vdW  Elec       q    Type
REMARK                         _______ _______ _______ _____ _____    ______ ____
ROOT
ATOM      1  C   UNL     1       0.454  -1.682   1.570  0.00  0.00    +0.000 C 
ATOM      2  C   UNL     1       0.509  -0.616   2.690  0.00  0.00    +0.000 C 
ATOM      3  C   UNL     1       1.170  -1.382   3.795  0.00  0.00    +0.000 A 
ATOM      4  C   UNL     1       1.227  -1.054   5.139  0.00  0.00    +0.000 A 
ATOM      5  C   UNL     1       1.938  -1.895   5.997  0.00  0.00    +0.000 A 
ATOM      6  C   UNL     1       2.587  -3.037   5.503  0.00  0.00    +0.000 A 
ATOM      7  C   UNL     1       2.535  -3.353   4.144  0.00  0.00    +0.000 A 
ATOM      8  C   UNL     1       1.817  -2.519   3.303  0.00  0.00    +0.000 A 
ATOM      9  C   UNL     1       1.651  -2.632   1.820  0.00  0.00    +0.000 C 
ENDROOT
BRANCH   1  14
ATOM     10  C   UNL     1      -0.900  -0.339  -0.136  0.00  0.00    +0.000 C 
ATOM     11  C   UNL     1      -0.422   1.065  -0.294  0.00  0.00    +0.000 C 
ATOM     12  C   UNL     1       0.909   1.135  -0.372  0.00  0.00    +0.000 C 
ATOM     13  C   UNL     1       1.550  -0.209  -0.271  0.00  0.00    +0.000 C 
ATOM     14  C   UNL     1       0.389  -1.145   0.124  0.00  0.00    +0.000 C 
ENDBRANCH   1  14
TORSDOF 1
