REMARK  Name = *****
REMARK  3 active torsions:
REMARK  status: ('A' for Active; 'I' for Inactive)
REMARK    1  A    between atoms: C_4  and  C_7
REMARK    2  A    between atoms: C_7  and  C_8
REMARK    3  A    between atoms: C_8  and  C_9
REMARK                            x       y       z     vdW  Elec       q    Type
REMARK                         _______ _______ _______ _____ _____    ______ ____
ROOT
ATOM      1  C   UNL     1      -1.329   1.653   2.697  0.00  0.00    +0.000 C 
ATOM      2 CL   UNL     1      -1.362   1.351   4.475  0.00  0.00    +0.000 Cl
ENDROOT
BRANCH   1   3
ATOM      3  C   UNL     1      -2.629   1.165   2.101  0.00  0.00    +0.000 A 
ATOM      4  C   UNL     1      -2.990  -0.193   2.095  0.00  0.00    +0.000 A 
ATOM      5  C   UNL     1      -4.194  -0.608   1.519  0.00  0.00    +0.000 A 
ATOM      6  C   UNL     1      -5.054   0.325   0.942  0.00  0.00    +0.000 A 
ATOM      7  C   UNL     1      -4.713   1.675   0.944  0.00  0.00    +0.000 A 
ATOM      8  C   UNL     1      -3.513   2.082   1.521  0.00  0.00    +0.000 A 
ATOM      9  F   UNL     1      -3.208   3.387   1.506  0.00  0.00    +0.000 F 
ENDBRANCH   1   3
BRANCH   1  10
ATOM     10  C   UNL     1      -0.069   0.993   2.109  0.00  0.00    +0.000 C 
BRANCH  10  14
ATOM     11  C   UNL     1       3.060   2.488   0.361  0.00  0.00    +0.000 C 
ATOM     12  C   UNL     1       1.936   3.361   0.900  0.00  0.00    +0.000 C 
ATOM     13  S   UNL     1       0.328   2.996   0.141  0.00  0.00    +0.000 S 
ATOM     14  C   UNL     1       0.126   1.245   0.605  0.00  0.00    +0.000 C 
ATOM     15  S   UNL     1       1.482   0.231  -0.083  0.00  0.00    +0.000 S 
ATOM     16  C   UNL     1       2.919   1.012   0.704  0.00  0.00    +0.000 C 
ENDBRANCH  10  14
ENDBRANCH   1  10
TORSDOF 3
