REMARK  Name = *****
REMARK  5 active torsions:
REMARK  status: ('A' for Active; 'I' for Inactive)
REMARK    1  A    between atoms: C_1  and  C_2
REMARK    2  A    between atoms: C_5  and  S_8
REMARK    3  A    between atoms: S_8  and  N_9
REMARK    4  A    between atoms: N_9  and  C_10
REMARK    5  A    between atoms: C_15  and  C_16
REMARK                            x       y       z     vdW  Elec       q    Type
REMARK                         _______ _______ _______ _____ _____    ______ ____
ROOT
ATOM      1  N   UNL     1      -4.157   1.539  -0.479  0.00  0.00    +0.000 N 
ATOM      2  H   UNL     1      -3.536   2.279  -0.289  0.00  0.00    +0.000 HD
ENDROOT
BRANCH   1   3
ATOM      3  C   UNL     1      -5.544   1.750  -0.260  0.00  0.00    +0.000 A 
ATOM      4  C   UNL     1      -6.451   0.686  -0.102  0.00  0.00    +0.000 A 
ATOM      5  C   UNL     1      -7.803   0.911   0.171  0.00  0.00    +0.000 A 
ATOM      6  C   UNL     1      -8.276   2.207   0.319  0.00  0.00    +0.000 A 
ATOM      7  C   UNL     1      -7.394   3.279   0.210  0.00  0.00    +0.000 A 
ATOM      8  C   UNL     1      -6.029   3.066  -0.058  0.00  0.00    +0.000 A 
ATOM      9  C   UNL     1      -5.123   4.267  -0.136  0.00  0.00    +0.000 C 
ENDBRANCH   1   3
BRANCH   1  10
ATOM     10  S   UNL     1      -3.527   0.100  -1.040  0.00  0.00    +0.000 S 
BRANCH  10  15
ATOM     11  C   UNL     1       2.344   0.917   0.394  0.00  0.00    +0.000 C 
ATOM     12  C   UNL     1       0.901   0.690   0.054  0.00  0.00    +0.000 A 
ATOM     13  C   UNL     1      -0.092   0.876   1.022  0.00  0.00    +0.000 A 
ATOM     14  C   UNL     1      -1.439   0.695   0.697  0.00  0.00    +0.000 A 
ATOM     15  C   UNL     1      -1.813   0.339  -0.603  0.00  0.00    +0.000 A 
ATOM     16  C   UNL     1      -0.823   0.160  -1.573  0.00  0.00    +0.000 A 
ATOM     17  C   UNL     1       0.525   0.342  -1.249  0.00  0.00    +0.000 A 
ENDBRANCH  10  15
ENDBRANCH   1  10
TORSDOF 3
