REMARK  Name = *****
REMARK  5 active torsions:
REMARK  status: ('A' for Active; 'I' for Inactive)
REMARK    1  A    between atoms: C_1  and  N_2
REMARK    2  A    between atoms: N_2  and  C_3
REMARK    3  A    between atoms: N_2  and  P_10
REMARK    4  A    between atoms: C_3  and  C_4
REMARK    5  A    between atoms: P_10  and  C_11
REMARK                            x       y       z     vdW  Elec       q    Type
REMARK                         _______ _______ _______ _____ _____    ______ ____
ROOT
ATOM      1  C   UNL     1       0.857  -0.641  -0.044  0.00  0.00    +0.000 C 
ATOM      2  N   UNL     1       2.323  -0.567  -0.143  0.00  0.00    +0.000 NA
ENDROOT
BRANCH   2   3
ATOM      3  P   UNL     1       2.966  -1.323  -1.551  0.00  0.00    +0.000 P 
ATOM      4 CL   UNL     1       5.051  -1.055  -1.647  0.00  0.00    +0.000 Cl
BRANCH   3   5
ATOM      5  C   UNL     1       2.466  -0.076  -2.800  0.00  0.00    +0.000 A 
ATOM      6  C   UNL     1       2.695   1.298  -2.622  0.00  0.00    +0.000 A 
ATOM      7  C   UNL     1       2.301   2.220  -3.594  0.00  0.00    +0.000 A 
ATOM      8  C   UNL     1       1.675   1.782  -4.759  0.00  0.00    +0.000 A 
ATOM      9  C   UNL     1       1.443   0.422  -4.953  0.00  0.00    +0.000 A 
ATOM     10  C   UNL     1       1.837  -0.502  -3.981  0.00  0.00    +0.000 A 
ENDBRANCH   3   5
ENDBRANCH   2   3
BRANCH   2  11
ATOM     11  C   UNL     1       2.939  -1.019   1.123  0.00  0.00    +0.000 C 
BRANCH  11  12
ATOM     12  C   UNL     1       2.665  -0.093   2.294  0.00  0.00    +0.000 A 
ATOM     13  C   UNL     1       2.007  -0.563   3.440  0.00  0.00    +0.000 A 
ATOM     14  C   UNL     1       1.767   0.292   4.518  0.00  0.00    +0.000 A 
ATOM     15  C   UNL     1       2.185   1.620   4.463  0.00  0.00    +0.000 A 
ATOM     16  C   UNL     1       2.844   2.097   3.332  0.00  0.00    +0.000 A 
ATOM     17  C   UNL     1       3.085   1.245   2.253  0.00  0.00    +0.000 A 
ENDBRANCH  11  12
ENDBRANCH   2  11
TORSDOF 4
