REMARK  Name = *****
REMARK  5 active torsions:
REMARK  status: ('A' for Active; 'I' for Inactive)
REMARK    1  A    between atoms: C_1  and  O_2
REMARK    2  A    between atoms: O_2  and  C_3
REMARK    3  A    between atoms: C_8  and  C_9
REMARK    4  A    between atoms: C_9  and  S_11
REMARK    5  A    between atoms: S_11  and  C_12
REMARK                            x       y       z     vdW  Elec       q    Type
REMARK                         _______ _______ _______ _____ _____    ______ ____
ROOT
ATOM      1  C   UNL     1       4.815   1.051  -1.120  0.00  0.00    +0.000 C 
ATOM      2  O   UNL     1       5.982   0.686  -1.216  0.00  0.00    +0.000 OA
ENDROOT
BRANCH   1   8
ATOM      3  C   UNL     1       3.070   1.020   0.718  0.00  0.00    +0.000 A 
ATOM      4  C   UNL     1       2.645   1.512   1.958  0.00  0.00    +0.000 A 
ATOM      5  C   UNL     1       3.413   2.451   2.656  0.00  0.00    +0.000 A 
ATOM      6  C   UNL     1       4.619   2.904   2.130  0.00  0.00    +0.000 A 
ATOM      7  C   UNL     1       5.055   2.428   0.897  0.00  0.00    +0.000 A 
ATOM      8  C   UNL     1       4.276   1.504   0.182  0.00  0.00    +0.000 A 
BRANCH   3  10
ATOM      9  C   UNL     1       1.166  -0.411   0.516  0.00  0.00    +0.000 C 
ATOM     10  O   UNL     1       2.405   0.062   0.001  0.00  0.00    +0.000 OA
ENDBRANCH   3  10
ENDBRANCH   1   8
BRANCH   1  11
ATOM     11  S   UNL     1       3.781   1.274  -2.528  0.00  0.00    +0.000 S 
BRANCH  11  12
ATOM     12  C   UNL     1       3.975  -0.303  -3.333  0.00  0.00    +0.000 A 
ATOM     13  C   UNL     1       2.897  -1.195  -3.370  0.00  0.00    +0.000 A 
ATOM     14  C   UNL     1       3.024  -2.430  -4.011  0.00  0.00    +0.000 A 
ATOM     15  C   UNL     1       4.228  -2.772  -4.623  0.00  0.00    +0.000 A 
ATOM     16  C   UNL     1       5.306  -1.888  -4.600  0.00  0.00    +0.000 A 
ATOM     17  C   UNL     1       5.177  -0.653  -3.959  0.00  0.00    +0.000 A 
ATOM     18 CL   UNL     1       4.385  -4.292  -5.412  0.00  0.00    +0.000 Cl
ENDBRANCH  11  12
ENDBRANCH   1  11
TORSDOF 4
