REMARK  Name = *****
REMARK  4 active torsions:
REMARK  status: ('A' for Active; 'I' for Inactive)
REMARK    1  A    between atoms: C_3  and  C_9
REMARK    2  A    between atoms: C_6  and  S_7
REMARK    3  A    between atoms: C_6  and  S_8
REMARK    4  A    between atoms: C_10  and  C_11
REMARK                            x       y       z     vdW  Elec       q    Type
REMARK                         _______ _______ _______ _____ _____    ______ ____
ROOT
ATOM      1  C   UNL     1       0.357  -1.473   0.058  0.00  0.00    +0.000 C 
ATOM      2  C   UNL     1       1.351  -0.336   0.060  0.00  0.00    +0.000 C 
ATOM      3  C   UNL     1       1.024   0.972   0.051  0.00  0.00    +0.000 C 
ATOM      4  C   UNL     1      -0.385   1.331  -0.023  0.00  0.00    +0.000 C 
ATOM      5  C   UNL     1      -1.375   0.426  -0.045  0.00  0.00    +0.000 C 
ATOM      6  C   UNL     1      -1.143  -1.062  -0.012  0.00  0.00    +0.000 C 
ENDROOT
BRANCH   6   7
ATOM      7  S   UNL     1      -1.912  -1.758  -1.531  0.00  0.00    +0.000 S 
ATOM      8  H   UNL     1      -1.259  -1.285  -2.627  0.00  0.00    +0.000 HD
ENDBRANCH   6   7
BRANCH   6   9
ATOM      9  S   UNL     1      -2.048  -1.721   1.444  0.00  0.00    +0.000 S 
ATOM     10  H   UNL     1      -1.499  -1.222   2.584  0.00  0.00    +0.000 HD
ENDBRANCH   6   9
BRANCH   3  11
ATOM     11  C   UNL     1       2.114   1.945   0.026  0.00  0.00    +0.000 C 
ATOM     12  C   UNL     1       2.042   3.192   0.521  0.00  0.00    +0.000 C 
BRANCH  12  13
ATOM     13  C   UNL     1       3.158   4.149   0.492  0.00  0.00    +0.000 A 
ATOM     14  C   UNL     1       4.002   4.278  -0.619  0.00  0.00    +0.000 A 
ATOM     15  C   UNL     1       5.033   5.222  -0.622  0.00  0.00    +0.000 A 
ATOM     16  C   UNL     1       5.223   6.052   0.480  0.00  0.00    +0.000 A 
ATOM     17  C   UNL     1       4.380   5.944   1.583  0.00  0.00    +0.000 A 
ATOM     18  C   UNL     1       3.349   5.001   1.587  0.00  0.00    +0.000 A 
ENDBRANCH  12  13
ENDBRANCH   3  11
TORSDOF 4
