REMARK  Name = *****
REMARK  5 active torsions:
REMARK  status: ('A' for Active; 'I' for Inactive)
REMARK    1  A    between atoms: C_1  and  C_2
REMARK    2  A    between atoms: C_3  and  C_17
REMARK    3  A    between atoms: C_5  and  C_8
REMARK    4  A    between atoms: C_8  and  C_9
REMARK    5  A    between atoms: C_9  and  C_11
REMARK                            x       y       z     vdW  Elec       q    Type
REMARK                         _______ _______ _______ _____ _____    ______ ____
ROOT
ATOM      1  C   UNL     1      -3.107  -1.425  -0.163  0.00  0.00    +0.000 C 
ENDROOT
BRANCH   1   6
ATOM      2  C   UNL     1       1.961   1.454   0.154  0.00  0.00    +0.000 C 
ATOM      3  C   UNL     1       0.670   0.689   0.061  0.00  0.00    +0.000 A 
ATOM      4  C   UNL     1       0.654  -0.705  -0.136  0.00  0.00    +0.000 A 
ATOM      5  C   UNL     1      -0.579  -1.376  -0.207  0.00  0.00    +0.000 A 
ATOM      6  C   UNL     1      -1.792  -0.685  -0.083  0.00  0.00    +0.000 A 
ATOM      7  C   UNL     1      -1.764   0.696   0.130  0.00  0.00    +0.000 A 
ATOM      8  C   UNL     1      -0.546   1.375   0.199  0.00  0.00    +0.000 A 
ATOM      9  C   UNL     1       1.928  -1.493  -0.267  0.00  0.00    +0.000 C 
ENDBRANCH   1   6
BRANCH   1  10
ATOM     10  C   UNL     1      -3.524  -2.112   1.129  0.00  0.00    +0.000 C 
ATOM     11  O   UNL     1      -2.916  -1.983   2.190  0.00  0.00    +0.000 OA
BRANCH  10  12
ATOM     12  C   UNL     1      -4.742  -2.983   1.104  0.00  0.00    +0.000 A 
ATOM     13  C   UNL     1      -5.567  -3.092  -0.023  0.00  0.00    +0.000 A 
ATOM     14  C   UNL     1      -6.693  -3.922   0.008  0.00  0.00    +0.000 A 
ATOM     15  C   UNL     1      -7.000  -4.645   1.160  0.00  0.00    +0.000 A 
ATOM     16  C   UNL     1      -6.187  -4.540   2.285  0.00  0.00    +0.000 A 
ATOM     17  C   UNL     1      -5.063  -3.712   2.258  0.00  0.00    +0.000 A 
ENDBRANCH  10  12
ENDBRANCH   1  10
TORSDOF 3
