REMARK  Name = *****
REMARK  3 active torsions:
REMARK  status: ('A' for Active; 'I' for Inactive)
REMARK    1  A    between atoms: C_4  and  C_7
REMARK    2  A    between atoms: C_7  and  N_8
REMARK    3  A    between atoms: C_9  and  C_10
REMARK                            x       y       z     vdW  Elec       q    Type
REMARK                         _______ _______ _______ _____ _____    ______ ____
ROOT
ATOM      1  N   UNL     1      -3.535  -0.714  -0.819  0.00  0.00    +0.000 NA
ATOM      2  C   UNL     1      -4.820  -0.670  -0.883  0.00  0.00    +0.000 C 
ATOM      3 CL   UNL     1      -5.577  -2.184  -1.264  0.00  0.00    +0.000 Cl
ENDROOT
BRANCH   2   4
ATOM      4  C   UNL     1      -5.673   0.519  -0.668  0.00  0.00    +0.000 A 
ATOM      5  C   UNL     1      -5.601   1.600  -1.552  0.00  0.00    +0.000 A 
ATOM      6  C   UNL     1      -6.421   2.710  -1.349  0.00  0.00    +0.000 A 
ATOM      7  C   UNL     1      -7.312   2.732  -0.274  0.00  0.00    +0.000 A 
ATOM      8  C   UNL     1      -7.390   1.645   0.598  0.00  0.00    +0.000 A 
ATOM      9  C   UNL     1      -6.573   0.531   0.402  0.00  0.00    +0.000 A 
ENDBRANCH   2   4
BRANCH   1  10
ATOM     10  C   UNL     1      -2.783   0.480  -0.433  0.00  0.00    +0.000 C 
BRANCH  10  14
ATOM     11  C   UNL     1       1.345  -0.306   0.588  0.00  0.00    +0.000 A 
ATOM     12  C   UNL     1       0.682  -1.142  -0.308  0.00  0.00    +0.000 A 
ATOM     13  C   UNL     1      -0.654  -0.901  -0.634  0.00  0.00    +0.000 A 
ATOM     14  C   UNL     1      -1.349   0.172  -0.058  0.00  0.00    +0.000 A 
ATOM     15  C   UNL     1      -0.665   1.015   0.832  0.00  0.00    +0.000 A 
ATOM     16  C   UNL     1       0.672   0.774   1.157  0.00  0.00    +0.000 A 
ENDBRANCH  10  14
ENDBRANCH   1  10
TORSDOF 3
