REMARK  Name = *****
REMARK  3 active torsions:
REMARK  status: ('A' for Active; 'I' for Inactive)
REMARK    1  A    between atoms: C_4  and  C_7
REMARK    2  A    between atoms: C_8  and  C_9
REMARK    3  A    between atoms: C_10  and  C_16
REMARK                            x       y       z     vdW  Elec       q    Type
REMARK                         _______ _______ _______ _____ _____    ______ ____
ROOT
ATOM      1  C   UNL     1      -5.122  -0.241  -0.661  0.00  0.00    +0.000 A 
ATOM      2  C   UNL     1      -5.808  -0.351  -1.884  0.00  0.00    +0.000 A 
ATOM      3  C   UNL     1      -7.184  -0.116  -1.921  0.00  0.00    +0.000 A 
ATOM      4  C   UNL     1      -7.892   0.217  -0.770  0.00  0.00    +0.000 A 
ATOM      5  C   UNL     1      -7.222   0.318   0.445  0.00  0.00    +0.000 A 
ATOM      6  C   UNL     1      -5.845   0.087   0.500  0.00  0.00    +0.000 A 
ATOM      7  F   UNL     1      -7.857  -0.209  -3.078  0.00  0.00    +0.000 F 
ENDROOT
BRANCH   1   9
ATOM      8  C   UNL     1      -2.818   0.407  -0.057  0.00  0.00    +0.000 C 
ATOM      9  C   UNL     1      -3.675  -0.495  -0.562  0.00  0.00    +0.000 C 
BRANCH   8  13
ATOM     10  C   UNL     1       1.415  -0.129   0.262  0.00  0.00    +0.000 A 
ATOM     11  C   UNL     1       0.741  -0.639  -0.845  0.00  0.00    +0.000 A 
ATOM     12  C   UNL     1      -0.643  -0.477  -0.960  0.00  0.00    +0.000 A 
ATOM     13  C   UNL     1      -1.367   0.187   0.039  0.00  0.00    +0.000 A 
ATOM     14  C   UNL     1      -0.675   0.711   1.139  0.00  0.00    +0.000 A 
ATOM     15  C   UNL     1       0.708   0.549   1.253  0.00  0.00    +0.000 A 
ENDBRANCH   8  13
ENDBRANCH   1   9
BRANCH   2  16
ATOM     16  C   UNL     1      -5.133  -0.689  -3.101  0.00  0.00    +0.000 C 
ATOM     17  N   UNL     1      -4.567  -0.973  -4.074  0.00  0.00    +0.000 NA
ENDBRANCH   2  16
TORSDOF 3
