REMARK  Name = *****
REMARK  6 active torsions:
REMARK  status: ('A' for Active; 'I' for Inactive)
REMARK    1  A    between atoms: C_1  and  C_2
REMARK    2  A    between atoms: C_7  and  C_8
REMARK    3  A    between atoms: C_8  and  O_10
REMARK    4  A    between atoms: O_10  and  C_11
REMARK    5  A    between atoms: C_11  and  C_12
REMARK    6  A    between atoms: C_11  and  C_13
REMARK                            x       y       z     vdW  Elec       q    Type
REMARK                         _______ _______ _______ _____ _____    ______ ____
ROOT
ATOM      1  C   UNL     1       1.068  -2.340   0.442  0.00  0.00    +0.000 C 
ATOM      2  O   UNL     1       0.768  -2.992   1.428  0.00  0.00    +0.000 OA
ENDROOT
BRANCH   1   9
ATOM      3  C   UNL     1      -1.852  -1.960   0.984  0.00  0.00    +0.000 C 
ATOM      4  C   UNL     1      -1.031  -0.942   0.242  0.00  0.00    +0.000 A 
ATOM      5  C   UNL     1      -1.656   0.241  -0.191  0.00  0.00    +0.000 A 
ATOM      6  C   UNL     1      -0.942   1.219  -0.884  0.00  0.00    +0.000 A 
ATOM      7  C   UNL     1       0.410   1.036  -1.152  0.00  0.00    +0.000 A 
ATOM      8  C   UNL     1       1.051  -0.127  -0.723  0.00  0.00    +0.000 A 
ATOM      9  C   UNL     1       0.343  -1.123  -0.026  0.00  0.00    +0.000 A 
ENDBRANCH   1   9
BRANCH   1  10
ATOM     10  O   UNL     1       2.089  -2.613  -0.408  0.00  0.00    +0.000 OA
BRANCH  10  11
ATOM     11  C   UNL     1       2.867  -3.784  -0.099  0.00  0.00    +0.000 C 
ATOM     12  C   UNL     1       3.929  -3.437   0.943  0.00  0.00    +0.000 C 
BRANCH  11  13
ATOM     13  C   UNL     1       3.519  -4.278  -1.379  0.00  0.00    +0.000 A 
ATOM     14  C   UNL     1       4.098  -3.388  -2.297  0.00  0.00    +0.000 A 
ATOM     15  C   UNL     1       4.710  -3.861  -3.459  0.00  0.00    +0.000 A 
ATOM     16  C   UNL     1       4.757  -5.230  -3.715  0.00  0.00    +0.000 A 
ATOM     17  C   UNL     1       4.193  -6.126  -2.810  0.00  0.00    +0.000 A 
ATOM     18  C   UNL     1       3.578  -5.655  -1.648  0.00  0.00    +0.000 A 
ENDBRANCH  11  13
ENDBRANCH  10  11
ENDBRANCH   1  10
TORSDOF 4
