REMARK  Name = *****
REMARK  4 active torsions:
REMARK  status: ('A' for Active; 'I' for Inactive)
REMARK    1  A    between atoms: C_1  and  C_2
REMARK    2  A    between atoms: C_5  and  N_8
REMARK    3  A    between atoms: C_9  and  C_10
REMARK    4  A    between atoms: C_9  and  C_11
REMARK                            x       y       z     vdW  Elec       q    Type
REMARK                         _______ _______ _______ _____ _____    ______ ____
ROOT
ATOM      1  N   UNL     1      -3.229   0.117   0.308  0.00  0.00    +0.000 NA
ATOM      2  C   UNL     1      -3.908   1.121  -0.170  0.00  0.00    +0.000 C 
ATOM      3  C   UNL     1      -3.279   2.323  -0.852  0.00  0.00    +0.000 C 
ENDROOT
BRANCH   1   8
ATOM      4  C   UNL     1       2.474  -0.021   0.022  0.00  0.00    +0.000 C 
ATOM      5  C   UNL     1       0.977   0.043   0.078  0.00  0.00    +0.000 A 
ATOM      6  C   UNL     1       0.337   0.716   1.126  0.00  0.00    +0.000 A 
ATOM      7  C   UNL     1      -1.058   0.745   1.198  0.00  0.00    +0.000 A 
ATOM      8  C   UNL     1      -1.832   0.109   0.226  0.00  0.00    +0.000 A 
ATOM      9  C   UNL     1      -1.195  -0.593  -0.798  0.00  0.00    +0.000 A 
ATOM     10  C   UNL     1       0.200  -0.626  -0.875  0.00  0.00    +0.000 A 
ENDBRANCH   1   8
BRANCH   2  11
ATOM     11  C   UNL     1      -5.397   1.094  -0.028  0.00  0.00    +0.000 A 
ATOM     12  C   UNL     1      -6.146   2.274   0.056  0.00  0.00    +0.000 A 
ATOM     13  C   UNL     1      -7.537   2.213   0.197  0.00  0.00    +0.000 A 
ATOM     14  C   UNL     1      -8.176   0.975   0.260  0.00  0.00    +0.000 A 
ATOM     15  C   UNL     1      -7.438  -0.204   0.190  0.00  0.00    +0.000 A 
ATOM     16  C   UNL     1      -6.049  -0.145   0.051  0.00  0.00    +0.000 A 
ATOM     17 CL   UNL     1      -9.886   0.905   0.433  0.00  0.00    +0.000 Cl
ENDBRANCH   2  11
TORSDOF 2
