REMARK  Name = *****
REMARK  5 active torsions:
REMARK  status: ('A' for Active; 'I' for Inactive)
REMARK    1  A    between atoms: C_5  and  C_6
REMARK    2  A    between atoms: C_6  and  C_7
REMARK    3  A    between atoms: C_7  and  C_8
REMARK    4  A    between atoms: C_8  and  C_9
REMARK    5  A    between atoms: C_9  and  C_10
REMARK                            x       y       z     vdW  Elec       q    Type
REMARK                         _______ _______ _______ _____ _____    ______ ____
ROOT
ATOM      1  C   UNL     1      -3.860  -3.213  -0.085  0.00  0.00    +0.000 C 
ENDROOT
BRANCH   1   2
ATOM      2  C   UNL     1      -2.412  -2.712  -0.070  0.00  0.00    +0.000 C 
BRANCH   2   3
ATOM      3  C   UNL     1      -1.644  -3.046  -1.351  0.00  0.00    +0.000 C 
BRANCH   3   8
ATOM      4  C   UNL     1       0.051  -1.031  -1.381  0.00  0.00    +0.000 C 
ATOM      5  C   UNL     1       1.552  -1.026  -1.381  0.00  0.00    +0.000 C 
ATOM      6  C   UNL     1       2.011  -2.287  -1.339  0.00  0.00    +0.000 C 
ATOM      7  C   UNL     1       0.897  -3.200  -1.315  0.00  0.00    +0.000 C 
ATOM      8  C   UNL     1      -0.252  -2.506  -1.334  0.00  0.00    +0.000 C 
ENDBRANCH   3   8
ENDBRANCH   2   3
ENDBRANCH   1   2
BRANCH   1   9
ATOM      9  C   UNL     1      -3.974  -4.739  -0.047  0.00  0.00    +0.000 C 
BRANCH   9  10
ATOM     10  C   UNL     1      -5.413  -5.186   0.039  0.00  0.00    +0.000 A 
ATOM     11  C   UNL     1      -6.164  -5.389  -1.127  0.00  0.00    +0.000 A 
ATOM     12  C   UNL     1      -7.500  -5.786  -1.046  0.00  0.00    +0.000 A 
ATOM     13  C   UNL     1      -8.098  -5.977   0.198  0.00  0.00    +0.000 A 
ATOM     14  C   UNL     1      -7.361  -5.771   1.363  0.00  0.00    +0.000 A 
ATOM     15  C   UNL     1      -6.025  -5.374   1.285  0.00  0.00    +0.000 A 
ENDBRANCH   9  10
ENDBRANCH   1   9
TORSDOF 5
