REMARK  Name = *****
REMARK  0 active torsions:
REMARK  status: ('A' for Active; 'I' for Inactive)
REMARK                            x       y       z     vdW  Elec       q    Type
REMARK                         _______ _______ _______ _____ _____    ______ ____
ROOT
ATOM      1  C   UNL     1      -1.130   0.353   0.156  0.00  0.00    +0.000 C 
ATOM      2  C   UNL     1       0.009   0.957  -0.659  0.00  0.00    +0.000 C 
ATOM      3  C   UNL     1       1.319   0.993   0.116  0.00  0.00    +0.000 C 
ATOM      4  C   UNL     1       2.181  -0.266   0.040  0.00  0.00    +0.000 C 
ATOM      5  C   UNL     1       1.477  -1.637   0.020  0.00  0.00    +0.000 C 
ATOM      6  C   UNL     1       0.241  -1.697   0.939  0.00  0.00    +0.000 C 
ATOM      7  C   UNL     1      -1.062  -1.156   0.347  0.00  0.00    +0.000 C 
ATOM      8  O   UNL     1       2.374  -2.647   0.542  0.00  0.00    +0.000 OA
ATOM      9  O   UNL     1       3.550  -2.714  -0.330  0.00  0.00    +0.000 OA
ATOM     10  C   UNL     1       3.119  -3.112  -1.644  0.00  0.00    +0.000 C 
ATOM     11  C   UNL     1       4.359  -3.043  -2.559  0.00  0.00    +0.000 C 
ATOM     12  C   UNL     1       5.570  -3.839  -2.075  0.00  0.00    +0.000 C 
ATOM     13  C   UNL     1       5.594  -5.306  -2.489  0.00  0.00    +0.000 C 
ATOM     14  C   UNL     1       4.277  -6.071  -2.429  0.00  0.00    +0.000 C 
ATOM     15  C   UNL     1       3.345  -5.677  -1.289  0.00  0.00    +0.000 C 
ATOM     16  C   UNL     1       2.446  -4.495  -1.653  0.00  0.00    +0.000 C 
ATOM     17  O   UNL     1       2.218  -2.114  -2.175  0.00  0.00    +0.000 OA
ATOM     18  O   UNL     1       1.046  -2.031  -1.297  0.00  0.00    +0.000 OA
ENDROOT
TORSDOF 0
