REMARK  Name = *****
REMARK  3 active torsions:
REMARK  status: ('A' for Active; 'I' for Inactive)
REMARK    1  A    between atoms: C_2  and  C_3
REMARK    2  A    between atoms: C_2  and  S_9
REMARK    3  A    between atoms: S_9  and  C_10
REMARK                            x       y       z     vdW  Elec       q    Type
REMARK                         _______ _______ _______ _____ _____    ______ ____
ROOT
ATOM      1  C   UNL     1       1.488   0.000  -0.731  0.00  0.00    +0.000 C 
ATOM      2  C   UNL     1       2.764   0.333  -0.477  0.00  0.00    +0.000 C 
ENDROOT
BRANCH   2   3
ATOM      3  C   UNL     1       3.090   1.514   0.318  0.00  0.00    +0.000 C 
ATOM      4  C   UNL     1       2.691   1.628   1.601  0.00  0.00    +0.000 C 
ATOM      5  C   UNL     1       2.972   2.824   2.463  0.00  0.00    +0.000 C 
ATOM      6  C   UNL     1       3.481   4.032   1.676  0.00  0.00    +0.000 C 
ATOM      7  C   UNL     1       4.500   3.612   0.625  0.00  0.00    +0.000 C 
ATOM      8  C   UNL     1       3.896   2.604  -0.358  0.00  0.00    +0.000 C 
ENDBRANCH   2   3
BRANCH   2   9
ATOM      9  S   UNL     1       4.080  -0.694  -0.979  0.00  0.00    +0.000 S 
BRANCH   9  10
ATOM     10  C   UNL     1       3.840  -0.785  -2.748  0.00  0.00    +0.000 A 
ATOM     11  C   UNL     1       3.530   0.334  -3.530  0.00  0.00    +0.000 A 
ATOM     12  C   UNL     1       3.384   0.215  -4.915  0.00  0.00    +0.000 A 
ATOM     13  C   UNL     1       3.561  -1.021  -5.532  0.00  0.00    +0.000 A 
ATOM     14  C   UNL     1       3.886  -2.139  -4.767  0.00  0.00    +0.000 A 
ATOM     15  C   UNL     1       4.026  -2.021  -3.381  0.00  0.00    +0.000 A 
ENDBRANCH   9  10
ENDBRANCH   2   9
TORSDOF 3
