REMARK  Name = *****
REMARK  4 active torsions:
REMARK  status: ('A' for Active; 'I' for Inactive)
REMARK    1  A    between atoms: C_4  and  C_7
REMARK    2  A    between atoms: C_7  and  O_8
REMARK    3  A    between atoms: O_8  and  C_9
REMARK    4  A    between atoms: C_10  and  N_16
REMARK                            x       y       z     vdW  Elec       q    Type
REMARK                         _______ _______ _______ _____ _____    ______ ____
ROOT
ATOM      1  C   UNL     1      -4.864  -0.597   0.243  0.00  0.00    +0.000 A 
ATOM      2  C   UNL     1      -5.433  -1.305  -0.832  0.00  0.00    +0.000 A 
ATOM      3  C   UNL     1      -6.824  -1.263  -1.003  0.00  0.00    +0.000 A 
ATOM      4  C   UNL     1      -7.618  -0.532  -0.119  0.00  0.00    +0.000 A 
ATOM      5  C   UNL     1      -7.047   0.154   0.953  0.00  0.00    +0.000 A 
ATOM      6  C   UNL     1      -5.666   0.114   1.141  0.00  0.00    +0.000 A 
ATOM      7 CL   UNL     1      -9.323  -0.487  -0.343  0.00  0.00    +0.000 Cl
ENDROOT
BRANCH   2   8
ATOM      8  N   UNL     1      -4.638  -2.054  -1.677  0.00  0.00    +0.000 NA
ATOM      9  O   UNL     1      -4.842  -1.803  -2.872  0.00  0.00    +0.000 OA
ENDBRANCH   2   8
BRANCH   1  10
ATOM     10  O   UNL     1      -3.515  -0.640   0.497  0.00  0.00    +0.000 OA
BRANCH  10  11
ATOM     11  C   UNL     1      -2.842   0.427  -0.184  0.00  0.00    +0.000 C 
BRANCH  11  15
ATOM     12  C   UNL     1       1.402  -0.270   0.121  0.00  0.00    +0.000 A 
ATOM     13  C   UNL     1       0.629  -1.030  -0.756  0.00  0.00    +0.000 A 
ATOM     14  C   UNL     1      -0.744  -0.802  -0.852  0.00  0.00    +0.000 A 
ATOM     15  C   UNL     1      -1.357   0.193  -0.076  0.00  0.00    +0.000 A 
ATOM     16  C   UNL     1      -0.572   0.944   0.809  0.00  0.00    +0.000 A 
ATOM     17  C   UNL     1       0.802   0.714   0.904  0.00  0.00    +0.000 A 
ENDBRANCH  11  15
ENDBRANCH  10  11
ENDBRANCH   1  10
TORSDOF 4
