REMARK  Name = *****
REMARK  2 active torsions:
REMARK  status: ('A' for Active; 'I' for Inactive)
REMARK    1  A    between atoms: C_6  and  C_7
REMARK    2  A    between atoms: C_8  and  C_9
REMARK                            x       y       z     vdW  Elec       q    Type
REMARK                         _______ _______ _______ _____ _____    ______ ____
ROOT
ATOM      1  C   UNL     1       1.312   2.626  -0.287  0.00  0.00    +0.000 C 
ATOM      2  C   UNL     1       1.844   3.696  -0.409  0.00  0.00    +0.000 C 
ENDROOT
BRANCH   1   8
ATOM      3  C   UNL     1      -0.717   1.267  -0.091  0.00  0.00    +0.000 A 
ATOM      4  C   UNL     1      -1.335   0.022   0.050  0.00  0.00    +0.000 A 
ATOM      5  C   UNL     1      -0.554  -1.125   0.138  0.00  0.00    +0.000 A 
ATOM      6  C   UNL     1       0.834  -1.052   0.089  0.00  0.00    +0.000 A 
ATOM      7  C   UNL     1       1.454   0.191  -0.052  0.00  0.00    +0.000 A 
ATOM      8  C   UNL     1       0.678   1.352  -0.142  0.00  0.00    +0.000 A 
ATOM      9  F   UNL     1      -1.148  -2.318   0.273  0.00  0.00    +0.000 F 
ENDBRANCH   1   8
BRANCH   2  10
ATOM     10  C   UNL     1       2.476   4.970  -0.557  0.00  0.00    +0.000 A 
ATOM     11  C   UNL     1       1.824   6.129  -0.122  0.00  0.00    +0.000 A 
ATOM     12  C   UNL     1       2.443   7.372  -0.268  0.00  0.00    +0.000 A 
ATOM     13  C   UNL     1       3.706   7.446  -0.845  0.00  0.00    +0.000 A 
ATOM     14  C   UNL     1       4.363   6.301  -1.280  0.00  0.00    +0.000 A 
ATOM     15  C   UNL     1       3.747   5.057  -1.136  0.00  0.00    +0.000 A 
ATOM     16  F   UNL     1       4.298   8.640  -0.984  0.00  0.00    +0.000 F 
ENDBRANCH   2  10
TORSDOF 2
