REMARK  Name = *****
REMARK  2 active torsions:
REMARK  status: ('A' for Active; 'I' for Inactive)
REMARK    1  A    between atoms: C_3  and  C_6
REMARK    2  A    between atoms: C_7  and  C_8
REMARK                            x       y       z     vdW  Elec       q    Type
REMARK                         _______ _______ _______ _____ _____    ______ ____
ROOT
ATOM      1  C   UNL     1       0.207  -2.115   1.220  0.00  0.00    +0.000 C 
ATOM      2  C   UNL     1       1.158  -3.040   1.436  0.00  0.00    +0.000 C 
ENDROOT
BRANCH   2   3
ATOM      3  C   UNL     1       1.228  -3.893   2.630  0.00  0.00    +0.000 A 
ATOM      4  C   UNL     1       0.082  -4.395   3.262  0.00  0.00    +0.000 A 
ATOM      5  C   UNL     1       0.190  -5.231   4.378  0.00  0.00    +0.000 A 
ATOM      6  C   UNL     1       1.449  -5.579   4.863  0.00  0.00    +0.000 A 
ATOM      7  C   UNL     1       2.599  -5.103   4.237  0.00  0.00    +0.000 A 
ATOM      8  C   UNL     1       2.486  -4.267   3.121  0.00  0.00    +0.000 A 
ATOM      9  I   UNL     1       1.612  -6.821   6.520  0.00  0.00    +0.000 I 
ENDBRANCH   2   3
BRANCH   1  12
ATOM     10  C   UNL     1      -0.998   0.786  -0.117  0.00  0.00    +0.000 C 
ATOM     11  C   UNL     1       0.128   0.220   0.349  0.00  0.00    +0.000 C 
ATOM     12  C   UNL     1       0.151  -1.245  -0.003  0.00  0.00    +0.000 C 
ATOM     13  C   UNL     1      -1.155  -1.393  -0.739  0.00  0.00    +0.000 C 
ATOM     14  C   UNL     1      -1.791  -0.213  -0.789  0.00  0.00    +0.000 C 
ENDBRANCH   1  12
TORSDOF 2
