REMARK  Name = *****
REMARK  4 active torsions:
REMARK  status: ('A' for Active; 'I' for Inactive)
REMARK    1  A    between atoms: C_1  and  C_2
REMARK    2  A    between atoms: C_5  and  C_8
REMARK    3  A    between atoms: N_9  and  C_10
REMARK    4  A    between atoms: C_13  and  C_16
REMARK                            x       y       z     vdW  Elec       q    Type
REMARK                         _______ _______ _______ _____ _____    ______ ____
ROOT
ATOM      1  C   UNL     1      -3.160  -1.689  -0.008  0.00  0.00    +0.000 C 
ATOM      2  N   UNL     1      -4.296  -1.286   0.469  0.00  0.00    +0.000 NA
ENDROOT
BRANCH   1   7
ATOM      3  C   UNL     1       1.562   1.636  -0.046  0.00  0.00    +0.000 C 
ATOM      4  C   UNL     1       0.332   0.781  -0.005  0.00  0.00    +0.000 A 
ATOM      5  C   UNL     1       0.362  -0.521  -0.514  0.00  0.00    +0.000 A 
ATOM      6  C   UNL     1      -0.770  -1.331  -0.515  0.00  0.00    +0.000 A 
ATOM      7  C   UNL     1      -1.964  -0.826  -0.003  0.00  0.00    +0.000 A 
ATOM      8  C   UNL     1      -2.021   0.478   0.500  0.00  0.00    +0.000 A 
ATOM      9  C   UNL     1      -0.877   1.280   0.494  0.00  0.00    +0.000 A 
ATOM     10  F   UNL     1       1.504  -1.013  -1.016  0.00  0.00    +0.000 F 
ENDBRANCH   1   7
BRANCH   2  11
ATOM     11  C   UNL     1      -5.351  -2.206   0.402  0.00  0.00    +0.000 A 
ATOM     12  C   UNL     1      -6.252  -2.162  -0.661  0.00  0.00    +0.000 A 
ATOM     13  C   UNL     1      -7.315  -3.067  -0.722  0.00  0.00    +0.000 A 
ATOM     14  C   UNL     1      -7.499  -4.027   0.286  0.00  0.00    +0.000 A 
ATOM     15  C   UNL     1      -6.597  -4.052   1.360  0.00  0.00    +0.000 A 
ATOM     16  C   UNL     1      -5.536  -3.145   1.418  0.00  0.00    +0.000 A 
ATOM     17  C   UNL     1      -8.635  -5.011   0.250  0.00  0.00    +0.000 C 
ATOM     18 CL   UNL     1      -8.388  -2.960  -2.072  0.00  0.00    +0.000 Cl
ENDBRANCH   2  11
TORSDOF 2
