REMARK  Name = *****
REMARK  2 active torsions:
REMARK  status: ('A' for Active; 'I' for Inactive)
REMARK    1  A    between atoms: C_6  and  C_7
REMARK    2  A    between atoms: C_8  and  C_9
REMARK                            x       y       z     vdW  Elec       q    Type
REMARK                         _______ _______ _______ _____ _____    ______ ____
ROOT
ATOM      1  C   UNL     1      -3.423   0.048  -0.042  0.00  0.00    +0.000 C 
ATOM      2  C   UNL     1      -4.189   1.144   0.084  0.00  0.00    +0.000 C 
ENDROOT
BRANCH   2   3
ATOM      3  C   UNL     1      -5.658   1.125   0.056  0.00  0.00    +0.000 A 
ATOM      4  C   UNL     1      -6.404   0.099   0.653  0.00  0.00    +0.000 A 
ATOM      5  C   UNL     1      -7.796   0.143   0.626  0.00  0.00    +0.000 A 
ATOM      6  C   UNL     1      -8.457   1.204   0.021  0.00  0.00    +0.000 A 
ATOM      7  C   UNL     1      -7.735   2.238  -0.562  0.00  0.00    +0.000 A 
ATOM      8  C   UNL     1      -6.338   2.201  -0.539  0.00  0.00    +0.000 A 
ATOM      9  F   UNL     1      -9.796   1.243  -0.000  0.00  0.00    +0.000 F 
ATOM     10  F   UNL     1      -8.494  -0.848   1.198  0.00  0.00    +0.000 F 
ENDBRANCH   2   3
BRANCH   1  16
ATOM     11  C   UNL     1      -1.206   1.081  -0.630  0.00  0.00    +0.000 A 
ATOM     12  C   UNL     1       0.191   1.050  -0.601  0.00  0.00    +0.000 A 
ATOM     13  C   UNL     1       0.840   0.001   0.038  0.00  0.00    +0.000 A 
ATOM     14  C   UNL     1       0.120  -1.019   0.646  0.00  0.00    +0.000 A 
ATOM     15  C   UNL     1      -1.276  -0.988   0.617  0.00  0.00    +0.000 A 
ATOM     16  C   UNL     1      -1.953   0.070  -0.009  0.00  0.00    +0.000 A 
ATOM     17  F   UNL     1       2.179  -0.029   0.064  0.00  0.00    +0.000 F 
ENDBRANCH   1  16
TORSDOF 2
