REMARK  Name = *****
REMARK  6 active torsions:
REMARK  status: ('A' for Active; 'I' for Inactive)
REMARK    1  A    between atoms: C_1  and  C_2
REMARK    2  A    between atoms: C_2  and  N_3
REMARK    3  A    between atoms: N_3  and  C_4
REMARK    4  A    between atoms: N_3  and  C_10
REMARK    5  A    between atoms: C_10  and  C_11
REMARK    6  A    between atoms: C_10  and  C_12
REMARK                            x       y       z     vdW  Elec       q    Type
REMARK                         _______ _______ _______ _____ _____    ______ ____
ROOT
ATOM      1  N   UNL     1       2.965   0.107  -1.456  0.00  0.00    +0.000 N 
ENDROOT
BRANCH   1   2
ATOM      2  C   UNL     1       2.116   0.604  -2.454  0.00  0.00    +0.000 A 
ATOM      3  C   UNL     1       1.059   1.490  -2.198  0.00  0.00    +0.000 A 
ATOM      4  C   UNL     1       0.229   1.962  -3.223  0.00  0.00    +0.000 A 
ATOM      5  C   UNL     1       0.432   1.549  -4.534  0.00  0.00    +0.000 A 
ATOM      6  C   UNL     1       1.462   0.661  -4.819  0.00  0.00    +0.000 A 
ATOM      7  C   UNL     1       2.288   0.196  -3.789  0.00  0.00    +0.000 A 
ENDBRANCH   1   2
BRANCH   1   9
ATOM      8  C   UNL     1       1.418  -1.010   0.114  0.00  0.00    +0.000 C 
ATOM      9  C   UNL     1       2.499   0.049  -0.060  0.00  0.00    +0.000 C 
ENDBRANCH   1   9
BRANCH   1  10
ATOM     10  C   UNL     1       4.420   0.339  -1.672  0.00  0.00    +0.000 C 
ATOM     11  C   UNL     1       4.817   1.724  -1.137  0.00  0.00    +0.000 C 
BRANCH  10  12
ATOM     12  C   UNL     1       5.231  -0.842  -1.134  0.00  0.00    +0.000 A 
ATOM     13  C   UNL     1       4.933  -2.136  -1.602  0.00  0.00    +0.000 A 
ATOM     14  C   UNL     1       5.651  -3.249  -1.158  0.00  0.00    +0.000 A 
ATOM     15  C   UNL     1       6.684  -3.088  -0.241  0.00  0.00    +0.000 A 
ATOM     16  C   UNL     1       6.999  -1.817   0.232  0.00  0.00    +0.000 A 
ATOM     17  C   UNL     1       6.280  -0.702  -0.212  0.00  0.00    +0.000 A 
ENDBRANCH  10  12
ENDBRANCH   1  10
TORSDOF 4
