REMARK  Name = *****
REMARK  5 active torsions:
REMARK  status: ('A' for Active; 'I' for Inactive)
REMARK    1  A    between atoms: C_1  and  C_2
REMARK    2  A    between atoms: C_4  and  C_8
REMARK    3  A    between atoms: C_8  and  C_9
REMARK    4  A    between atoms: C_9  and  C_10
REMARK    5  A    between atoms: C_10  and  C_12
REMARK                            x       y       z     vdW  Elec       q    Type
REMARK                         _______ _______ _______ _____ _____    ______ ____
ROOT
ATOM      1  C   UNL     1      -0.675   3.772  -0.665  0.00  0.00    +0.000 C 
ENDROOT
BRANCH   1   2
ATOM      2  C   UNL     1      -1.318   5.107  -0.972  0.00  0.00    +0.000 C 
ATOM      3  O   UNL     1      -2.217   5.244  -1.798  0.00  0.00    +0.000 OA
BRANCH   2   4
ATOM      4  C   UNL     1      -0.740   6.313  -0.348  0.00  0.00    +0.000 A 
ATOM      5  C   UNL     1      -0.171   7.264  -1.206  0.00  0.00    +0.000 A 
ATOM      6  C   UNL     1       0.401   8.423  -0.682  0.00  0.00    +0.000 A 
ATOM      7  C   UNL     1       0.396   8.640   0.695  0.00  0.00    +0.000 A 
ATOM      8  C   UNL     1      -0.190   7.703   1.550  0.00  0.00    +0.000 A 
ATOM      9  C   UNL     1      -0.765   6.538   1.032  0.00  0.00    +0.000 A 
ATOM     10 CL   UNL     1      -1.525   5.455   2.141  0.00  0.00    +0.000 Cl
ENDBRANCH   2   4
ENDBRANCH   1   2
BRANCH   1  11
ATOM     11  C   UNL     1      -1.738   2.693  -0.480  0.00  0.00    +0.000 C 
BRANCH  11  15
ATOM     12  C   UNL     1       0.256  -1.678  -2.005  0.00  0.00    +0.000 C 
ATOM     13  C   UNL     1      -0.115  -0.738  -0.897  0.00  0.00    +0.000 A 
ATOM     14  C   UNL     1      -0.727   0.489  -1.185  0.00  0.00    +0.000 A 
ATOM     15  C   UNL     1      -1.112   1.360  -0.155  0.00  0.00    +0.000 A 
ATOM     16  C   UNL     1      -0.880   0.989   1.175  0.00  0.00    +0.000 A 
ATOM     17  C   UNL     1      -0.286  -0.238   1.469  0.00  0.00    +0.000 A 
ATOM     18  C   UNL     1       0.089  -1.100   0.439  0.00  0.00    +0.000 A 
ENDBRANCH  11  15
ENDBRANCH   1  11
TORSDOF 4
