REMARK  Name = *****
REMARK  3 active torsions:
REMARK  status: ('A' for Active; 'I' for Inactive)
REMARK    1  A    between atoms: C_6  and  C_7
REMARK    2  A    between atoms: C_7  and  O_8
REMARK    3  A    between atoms: O_8  and  C_9
REMARK                            x       y       z     vdW  Elec       q    Type
REMARK                         _______ _______ _______ _____ _____    ______ ____
ROOT
ATOM      1  C   UNL     1       5.831   1.461  -0.085  0.00  0.00    +0.000 A 
ATOM      2  C   UNL     1       6.300   2.713  -0.506  0.00  0.00    +0.000 A 
ATOM      3  C   UNL     1       7.662   2.998  -0.542  0.00  0.00    +0.000 A 
ATOM      4  C   UNL     1       8.580   2.034  -0.158  0.00  0.00    +0.000 A 
ATOM      5  C   UNL     1       8.135   0.789   0.262  0.00  0.00    +0.000 A 
ATOM      6  C   UNL     1       6.771   0.502   0.299  0.00  0.00    +0.000 A 
ATOM      7  F   UNL     1       6.394  -0.716   0.713  0.00  0.00    +0.000 F 
ATOM      8  F   UNL     1       9.021  -0.145   0.635  0.00  0.00    +0.000 F 
ATOM      9  F   UNL     1       9.892   2.303  -0.191  0.00  0.00    +0.000 F 
ATOM     10  F   UNL     1       8.085   4.202  -0.950  0.00  0.00    +0.000 F 
ATOM     11  F   UNL     1       5.427   3.659  -0.885  0.00  0.00    +0.000 F 
ENDROOT
BRANCH   1  12
ATOM     12  O   UNL     1       4.471   1.319  -0.095  0.00  0.00    +0.000 OA
BRANCH  12  13
ATOM     13  C   UNL     1       3.923   0.053   0.279  0.00  0.00    +0.000 C 
BRANCH  13  19
ATOM     14  C   UNL     1       1.614  -0.545   1.116  0.00  0.00    +0.000 A 
ATOM     15  C   UNL     1       0.222  -0.533   1.001  0.00  0.00    +0.000 A 
ATOM     16  C   UNL     1      -0.379   0.120  -0.072  0.00  0.00    +0.000 A 
ATOM     17  C   UNL     1       0.400   0.757  -1.035  0.00  0.00    +0.000 A 
ATOM     18  C   UNL     1       1.792   0.744  -0.920  0.00  0.00    +0.000 A 
ATOM     19  C   UNL     1       2.415   0.104   0.164  0.00  0.00    +0.000 A 
ATOM     20 CL   UNL     1      -2.094   0.135  -0.213  0.00  0.00    +0.000 Cl
ENDBRANCH  13  19
ENDBRANCH  12  13
ENDBRANCH   1  12
TORSDOF 3
