REMARK  Name = *****
REMARK  3 active torsions:
REMARK  status: ('A' for Active; 'I' for Inactive)
REMARK    1  A    between atoms: C_4  and  C_6
REMARK    2  A    between atoms: C_6  and  O_8
REMARK    3  A    between atoms: O_8  and  C_9
REMARK                            x       y       z     vdW  Elec       q    Type
REMARK                         _______ _______ _______ _____ _____    ______ ____
ROOT
ATOM      1  O   UNL     1       0.845  -3.772  -0.948  0.00  0.00    +0.000 OA
ENDROOT
BRANCH   1   2
ATOM      2  C   UNL     1       0.551  -5.073  -0.532  0.00  0.00    +0.000 A 
ATOM      3  C   UNL     1       1.033  -5.559   0.688  0.00  0.00    +0.000 A 
ATOM      4  C   UNL     1       0.754  -6.872   1.066  0.00  0.00    +0.000 A 
ATOM      5  C   UNL     1       0.007  -7.686   0.214  0.00  0.00    +0.000 A 
ATOM      6  C   UNL     1      -0.457  -7.205  -1.013  0.00  0.00    +0.000 A 
ATOM      7  C   UNL     1      -0.179  -5.892  -1.394  0.00  0.00    +0.000 A 
ATOM      8 CL   UNL     1      -0.338  -9.308   0.674  0.00  0.00    +0.000 Cl
ATOM      9 CL   UNL     1       1.985  -4.572   1.734  0.00  0.00    +0.000 Cl
ENDBRANCH   1   2
BRANCH   1  10
ATOM     10  C   UNL     1      -0.087  -2.836  -0.498  0.00  0.00    +0.000 C 
ATOM     11  O   UNL     1      -1.108  -3.112   0.124  0.00  0.00    +0.000 OA
BRANCH  10  15
ATOM     12  C   UNL     1       1.542   0.297  -1.782  0.00  0.00    +0.000 A 
ATOM     13  C   UNL     1       0.439   0.936  -1.264  0.00  0.00    +0.000 A 
ATOM     14  S   UNL     1      -0.651  -0.157  -0.532  0.00  0.00    +0.000 S 
ATOM     15  C   UNL     1       0.342  -1.507  -0.901  0.00  0.00    +0.000 A 
ATOM     16  C   UNL     1       1.487  -1.113  -1.573  0.00  0.00    +0.000 A 
ENDBRANCH  10  15
ENDBRANCH   1  10
TORSDOF 3
