REMARK  Name = *****
REMARK  3 active torsions:
REMARK  status: ('A' for Active; 'I' for Inactive)
REMARK    1  A    between atoms: C_1  and  C_2
REMARK    2  A    between atoms: C_7  and  C_8
REMARK    3  A    between atoms: C_9  and  C_10
REMARK                            x       y       z     vdW  Elec       q    Type
REMARK                         _______ _______ _______ _____ _____    ______ ____
ROOT
ATOM      1  C   UNL     1       3.372   2.126   0.589  0.00  0.00    +0.000 C 
ATOM      2  C   UNL     1       3.047   3.258   1.234  0.00  0.00    +0.000 C 
ENDROOT
BRANCH   1   9
ATOM      3  C   UNL     1       0.812  -0.423  -0.811  0.00  0.00    +0.000 C 
ATOM      4  C   UNL     1       1.968   0.089   0.062  0.00  0.00    +0.000 C 
ATOM      5  C   UNL     1       3.103  -0.954   0.127  0.00  0.00    +0.000 C 
ATOM      6  C   UNL     1       4.039  -0.909  -1.046  0.00  0.00    +0.000 C 
ATOM      7  C   UNL     1       4.083   0.111  -1.915  0.00  0.00    +0.000 C 
ATOM      8  C   UNL     1       3.216   1.334  -1.797  0.00  0.00    +0.000 C 
ATOM      9  C   UNL     1       2.478   1.462  -0.444  0.00  0.00    +0.000 C 
ENDBRANCH   1   9
BRANCH   2  10
ATOM     10  C   UNL     1       3.897   3.913   2.239  0.00  0.00    +0.000 A 
ATOM     11  C   UNL     1       5.294   3.938   2.140  0.00  0.00    +0.000 A 
ATOM     12  C   UNL     1       6.065   4.599   3.100  0.00  0.00    +0.000 A 
ATOM     13  C   UNL     1       5.446   5.251   4.164  0.00  0.00    +0.000 A 
ATOM     14  C   UNL     1       4.056   5.248   4.266  0.00  0.00    +0.000 A 
ATOM     15  C   UNL     1       3.286   4.587   3.305  0.00  0.00    +0.000 A 
ENDBRANCH   2  10
TORSDOF 2
