REMARK  Name = *****
REMARK  3 active torsions:
REMARK  status: ('A' for Active; 'I' for Inactive)
REMARK    1  A    between atoms: C_5  and  C_7
REMARK    2  A    between atoms: C_7  and  O_9
REMARK    3  A    between atoms: O_9  and  C_10
REMARK                            x       y       z     vdW  Elec       q    Type
REMARK                         _______ _______ _______ _____ _____    ______ ____
ROOT
ATOM      1  C   UNL     1       1.008  -2.237  -0.378  0.00  0.00    +0.000 C 
ATOM      2  O   UNL     1       0.600  -3.358  -0.108  0.00  0.00    +0.000 OA
ENDROOT
BRANCH   1   7
ATOM      3  C   UNL     1      -1.912  -0.022   0.485  0.00  0.00    +0.000 A 
ATOM      4  C   UNL     1      -1.324   1.241   0.529  0.00  0.00    +0.000 A 
ATOM      5  C   UNL     1       0.044   1.379   0.296  0.00  0.00    +0.000 A 
ATOM      6  C   UNL     1       0.821   0.255   0.012  0.00  0.00    +0.000 A 
ATOM      7  C   UNL     1       0.241  -1.013  -0.051  0.00  0.00    +0.000 A 
ATOM      8  C   UNL     1      -1.133  -1.146   0.200  0.00  0.00    +0.000 A 
ATOM      9  F   UNL     1       2.135   0.437  -0.176  0.00  0.00    +0.000 F 
ENDBRANCH   1   7
BRANCH   1  10
ATOM     10  O   UNL     1       2.160  -1.912  -1.062  0.00  0.00    +0.000 OA
BRANCH  10  11
ATOM     11  C   UNL     1       2.762  -3.022  -1.652  0.00  0.00    +0.000 A 
ATOM     12  C   UNL     1       3.932  -3.537  -1.098  0.00  0.00    +0.000 A 
ATOM     13  C   UNL     1       4.563  -4.614  -1.725  0.00  0.00    +0.000 A 
ATOM     14  C   UNL     1       4.032  -5.155  -2.901  0.00  0.00    +0.000 A 
ATOM     15  C   UNL     1       2.869  -4.620  -3.458  0.00  0.00    +0.000 A 
ATOM     16  C   UNL     1       2.242  -3.549  -2.833  0.00  0.00    +0.000 A 
ATOM     17  F   UNL     1       1.139  -3.019  -3.382  0.00  0.00    +0.000 F 
ENDBRANCH  10  11
ENDBRANCH   1  10
TORSDOF 3
