REMARK  Name = *****
REMARK  3 active torsions:
REMARK  status: ('A' for Active; 'I' for Inactive)
REMARK    1  A    between atoms: C_5  and  O_7
REMARK    2  A    between atoms: O_7  and  C_8
REMARK    3  A    between atoms: C_8  and  C_10
REMARK                            x       y       z     vdW  Elec       q    Type
REMARK                         _______ _______ _______ _____ _____    ______ ____
ROOT
ATOM      1  C   UNL     1      -1.629  -2.489  -0.051  0.00  0.00    +0.000 C 
ATOM      2  O   UNL     1      -2.293  -1.470   0.068  0.00  0.00    +0.000 OA
ENDROOT
BRANCH   1   3
ATOM      3  C   UNL     1      -2.214  -3.796  -0.465  0.00  0.00    +0.000 A 
ATOM      4  C   UNL     1      -3.585  -3.838  -0.764  0.00  0.00    +0.000 A 
ATOM      5  C   UNL     1      -4.187  -5.037  -1.156  0.00  0.00    +0.000 A 
ATOM      6  C   UNL     1      -3.422  -6.198  -1.248  0.00  0.00    +0.000 A 
ATOM      7  C   UNL     1      -2.060  -6.171  -0.951  0.00  0.00    +0.000 A 
ATOM      8  C   UNL     1      -1.455  -4.972  -0.558  0.00  0.00    +0.000 A 
ATOM      9 CL   UNL     1      -4.162  -7.674  -1.731  0.00  0.00    +0.000 Cl
ENDBRANCH   1   3
BRANCH   1  10
ATOM     10  O   UNL     1      -0.269  -2.627   0.144  0.00  0.00    +0.000 OA
BRANCH  10  15
ATOM     11  C   UNL     1       1.507   0.588   0.155  0.00  0.00    +0.000 A 
ATOM     12  C   UNL     1       1.587   0.849   1.526  0.00  0.00    +0.000 A 
ATOM     13  C   UNL     1       1.045  -0.052   2.447  0.00  0.00    +0.000 A 
ATOM     14  C   UNL     1       0.414  -1.212   1.997  0.00  0.00    +0.000 A 
ATOM     15  C   UNL     1       0.321  -1.455   0.624  0.00  0.00    +0.000 A 
ATOM     16  C   UNL     1       0.878  -0.570  -0.301  0.00  0.00    +0.000 A 
ATOM     17 CL   UNL     1      -0.216  -2.325   3.154  0.00  0.00    +0.000 Cl
ENDBRANCH  10  15
ENDBRANCH   1  10
TORSDOF 3
