REMARK  Name = *****
REMARK  2 active torsions:
REMARK  status: ('A' for Active; 'I' for Inactive)
REMARK    1  A    between atoms: C_1  and  C_2
REMARK    2  A    between atoms: C_5  and  C_8
REMARK                            x       y       z     vdW  Elec       q    Type
REMARK                         _______ _______ _______ _____ _____    ______ ____
ROOT
ATOM      1  C   UNL     1      -3.423  -0.485   0.204  0.00  0.00    +0.000 C 
ATOM      2  N   UNL     1      -4.304   0.269   0.761  0.00  0.00    +0.000 NA
ATOM      3  C   UNL     1      -5.698  -0.173   0.740  0.00  0.00    +0.000 C 
ATOM      4  C   UNL     1      -6.644   1.045   0.553  0.00  0.00    +0.000 C 
ATOM      5  C   UNL     1      -6.696   1.168  -0.973  0.00  0.00    +0.000 C 
ATOM      6  C   UNL     1      -7.186  -0.273  -1.170  0.00  0.00    +0.000 C 
ATOM      7  C   UNL     1      -6.076  -1.083  -0.455  0.00  0.00    +0.000 C 
ATOM      8  C   UNL     1      -4.890  -1.373  -1.346  0.00  0.00    +0.000 C 
ATOM      9  O   UNL     1      -3.710  -1.557  -0.569  0.00  0.00    +0.000 OA
ATOM     10  C   UNL     1      -8.387  -0.227  -0.248  0.00  0.00    +0.000 C 
ATOM     11  C   UNL     1      -8.063   0.566   0.785  0.00  0.00    +0.000 C 
ENDROOT
BRANCH   1  16
ATOM     12  C   UNL     1       2.271   0.488   0.722  0.00  0.00    +0.000 C 
ATOM     13  C   UNL     1       0.801   0.210   0.600  0.00  0.00    +0.000 A 
ATOM     14  C   UNL     1       0.340  -0.871  -0.160  0.00  0.00    +0.000 A 
ATOM     15  C   UNL     1      -1.031  -1.111  -0.294  0.00  0.00    +0.000 A 
ATOM     16  C   UNL     1      -1.960  -0.265   0.323  0.00  0.00    +0.000 A 
ATOM     17  C   UNL     1      -1.500   0.825   1.072  0.00  0.00    +0.000 A 
ATOM     18  C   UNL     1      -0.129   1.063   1.206  0.00  0.00    +0.000 A 
ENDBRANCH   1  16
TORSDOF 1
