REMARK  Name = *****
REMARK  2 active torsions:
REMARK  status: ('A' for Active; 'I' for Inactive)
REMARK    1  A    between atoms: C_4  and  C_7
REMARK    2  A    between atoms: C_8  and  C_9
REMARK                            x       y       z     vdW  Elec       q    Type
REMARK                         _______ _______ _______ _____ _____    ______ ____
ROOT
ATOM      1  C   UNL     1       2.880   0.146  -0.270  0.00  0.00    +0.000 C 
ATOM      2  C   UNL     1       4.076   0.183  -0.377  0.00  0.00    +0.000 C 
ENDROOT
BRANCH   1   6
ATOM      3  C   UNL     1      -1.324  -0.013   0.100  0.00  0.00    +0.000 A 
ATOM      4  C   UNL     1      -0.677   1.220   0.037  0.00  0.00    +0.000 A 
ATOM      5  C   UNL     1       0.713   1.275  -0.086  0.00  0.00    +0.000 A 
ATOM      6  C   UNL     1       1.456   0.093  -0.144  0.00  0.00    +0.000 A 
ATOM      7  C   UNL     1       0.806  -1.141  -0.080  0.00  0.00    +0.000 A 
ATOM      8  C   UNL     1      -0.584  -1.194   0.042  0.00  0.00    +0.000 A 
ENDBRANCH   1   6
BRANCH   2   9
ATOM      9  C   UNL     1       5.495   0.221  -0.506  0.00  0.00    +0.000 A 
ATOM     10  C   UNL     1       6.252   1.372  -0.577  0.00  0.00    +0.000 A 
ATOM     11  C   UNL     1       7.648   1.092  -0.703  0.00  0.00    +0.000 A 
ATOM     12  C   UNL     1       7.880  -0.260  -0.721  0.00  0.00    +0.000 A 
ATOM     13  S   UNL     1       6.467  -1.185  -0.590  0.00  0.00    +0.000 S 
ATOM     14 BR   UNL     1       9.587  -1.015  -0.875  0.00  0.00    +0.000 Br
ENDBRANCH   2   9
TORSDOF 2
