REMARK  Name = *****
REMARK  3 active torsions:
REMARK  status: ('A' for Active; 'I' for Inactive)
REMARK    1  A    between atoms: C_1  and  C_2
REMARK    2  A    between atoms: C_2  and  C_12
REMARK    3  A    between atoms: C_12  and  C_13
REMARK                            x       y       z     vdW  Elec       q    Type
REMARK                         _______ _______ _______ _____ _____    ______ ____
ROOT
ATOM      1  C   UNL     1       0.855   0.167   0.197  0.00  0.00    +0.000 C 
ATOM      2  C   UNL     1       2.390   0.050   0.123  0.00  0.00    +0.000 C 
ATOM      3  C   UNL     1       3.038   1.149   1.020  0.00  0.00    +0.000 C 
ATOM      4  C   UNL     1       3.778   0.388   2.076  0.00  0.00    +0.000 A 
ATOM      5  C   UNL     1       4.524   0.938   3.111  0.00  0.00    +0.000 A 
ATOM      6  C   UNL     1       5.164   0.080   4.006  0.00  0.00    +0.000 A 
ATOM      7  C   UNL     1       5.051  -1.308   3.857  0.00  0.00    +0.000 A 
ATOM      8  C   UNL     1       4.297  -1.850   2.812  0.00  0.00    +0.000 A 
ATOM      9  C   UNL     1       3.662  -0.992   1.924  0.00  0.00    +0.000 A 
ATOM     10  C   UNL     1       2.824  -1.284   0.763  0.00  0.00    +0.000 C 
ATOM     11  C   UNL     1       2.488  -2.516   0.352  0.00  0.00    +0.000 C 
ENDROOT
BRANCH   2  12
ATOM     12  C   UNL     1       2.912   0.121  -1.343  0.00  0.00    +0.000 C 
BRANCH  12  13
ATOM     13  C   UNL     1       2.586   1.376  -2.126  0.00  0.00    +0.000 A 
ATOM     14  C   UNL     1       3.508   2.428  -2.208  0.00  0.00    +0.000 A 
ATOM     15  C   UNL     1       3.208   3.583  -2.934  0.00  0.00    +0.000 A 
ATOM     16  C   UNL     1       1.987   3.695  -3.594  0.00  0.00    +0.000 A 
ATOM     17  C   UNL     1       1.067   2.650  -3.533  0.00  0.00    +0.000 A 
ATOM     18  C   UNL     1       1.366   1.496  -2.807  0.00  0.00    +0.000 A 
ENDBRANCH  12  13
ENDBRANCH   2  12
TORSDOF 2
