REMARK  Name = *****
REMARK  3 active torsions:
REMARK  status: ('A' for Active; 'I' for Inactive)
REMARK    1  A    between atoms: C_7  and  C_9
REMARK    2  A    between atoms: C_9  and  C_10
REMARK    3  A    between atoms: C_10  and  C_11
REMARK                            x       y       z     vdW  Elec       q    Type
REMARK                         _______ _______ _______ _____ _____    ______ ____
ROOT
ATOM      1  C   UNL     1       2.695   0.642   1.454  0.00  0.00    +0.000 C 
ATOM      2  C   UNL     1       3.985   1.264   0.878  0.00  0.00    +0.000 C 
ATOM      3  C   UNL     1       3.330   1.909  -0.336  0.00  0.00    +0.000 C 
ATOM      4  C   UNL     1       2.378   1.061  -0.767  0.00  0.00    +0.000 C 
ATOM      5  C   UNL     1       2.404  -0.148   0.163  0.00  0.00    +0.000 C 
ATOM      6  C   UNL     1       3.716  -0.936  -0.058  0.00  0.00    +0.000 C 
ATOM      7  C   UNL     1       4.802   0.023   0.417  0.00  0.00    +0.000 C 
ATOM      8  C   UNL     1       4.651  -1.343   1.062  0.00  0.00    +0.000 C 
ATOM      9 BR   UNL     1       3.857  -1.909  -1.696  0.00  0.00    +0.000 Br
ENDROOT
BRANCH   7  10
ATOM     10  C   UNL     1       6.062   0.295  -0.376  0.00  0.00    +0.000 C 
BRANCH  10  11
ATOM     11  C   UNL     1       7.132   0.973   0.485  0.00  0.00    +0.000 C 
BRANCH  11  12
ATOM     12  C   UNL     1       8.418   1.180  -0.276  0.00  0.00    +0.000 A 
ATOM     13  C   UNL     1       8.583   2.303  -1.097  0.00  0.00    +0.000 A 
ATOM     14  C   UNL     1       9.766   2.486  -1.816  0.00  0.00    +0.000 A 
ATOM     15  C   UNL     1      10.791   1.546  -1.723  0.00  0.00    +0.000 A 
ATOM     16  C   UNL     1      10.634   0.422  -0.914  0.00  0.00    +0.000 A 
ATOM     17  C   UNL     1       9.451   0.238  -0.195  0.00  0.00    +0.000 A 
ENDBRANCH  11  12
ENDBRANCH  10  11
ENDBRANCH   7  10
TORSDOF 3
