REMARK  Name = *****
REMARK  6 active torsions:
REMARK  status: ('A' for Active; 'I' for Inactive)
REMARK    1  A    between atoms: C_1  and  C_2
REMARK    2  A    between atoms: C_5  and  C_8
REMARK    3  A    between atoms: C_8  and  C_9
REMARK    4  A    between atoms: C_8  and  O_18
REMARK    5  A    between atoms: C_9  and  C_10
REMARK    6  A    between atoms: C_13  and  C_16
REMARK                            x       y       z     vdW  Elec       q    Type
REMARK                         _______ _______ _______ _____ _____    ______ ____
ROOT
ATOM      1  C   UNL     1      -3.988   0.492   2.318  0.00  0.00    +0.000 C 
ENDROOT
BRANCH   1   6
ATOM      2  C   UNL     1      -6.460   5.054  -0.372  0.00  0.00    +0.000 C 
ATOM      3  C   UNL     1      -5.829   3.902   0.351  0.00  0.00    +0.000 A 
ATOM      4  C   UNL     1      -4.466   3.924   0.664  0.00  0.00    +0.000 A 
ATOM      5  C   UNL     1      -3.867   2.839   1.310  0.00  0.00    +0.000 A 
ATOM      6  C   UNL     1      -4.617   1.704   1.649  0.00  0.00    +0.000 A 
ATOM      7  C   UNL     1      -5.981   1.681   1.317  0.00  0.00    +0.000 A 
ATOM      8  C   UNL     1      -6.579   2.766   0.671  0.00  0.00    +0.000 A 
ENDBRANCH   1   6
BRANCH   1   9
ATOM      9  C   UNL     1      -3.521  -0.576   1.285  0.00  0.00    +0.000 C 
ATOM     10 CL   UNL     1      -1.911  -0.148   0.597  0.00  0.00    +0.000 Cl
BRANCH   9  11
ATOM     11  C   UNL     1      -3.445  -1.997   1.821  0.00  0.00    +0.000 A 
ATOM     12  C   UNL     1      -2.938  -2.297   3.094  0.00  0.00    +0.000 A 
ATOM     13  C   UNL     1      -2.876  -3.618   3.547  0.00  0.00    +0.000 A 
ATOM     14  C   UNL     1      -3.323  -4.669   2.741  0.00  0.00    +0.000 A 
ATOM     15  C   UNL     1      -3.803  -4.382   1.461  0.00  0.00    +0.000 A 
ATOM     16  C   UNL     1      -3.865  -3.062   1.007  0.00  0.00    +0.000 A 
ATOM     17  C   UNL     1      -3.221  -6.089   3.215  0.00  0.00    +0.000 C 
ENDBRANCH   9  11
ENDBRANCH   1   9
BRANCH   1  18
ATOM     18  O   UNL     1      -2.940   0.917   3.202  0.00  0.00    +0.000 OA
ATOM     19  H   UNL     1      -2.250   1.368   2.691  0.00  0.00    +0.000 HD
ENDBRANCH   1  18
TORSDOF 4
