REMARK  Name = *****
REMARK  2 active torsions:
REMARK  status: ('A' for Active; 'I' for Inactive)
REMARK    1  A    between atoms: C_2  and  C_13
REMARK    2  A    between atoms: N_3  and  C_4
REMARK                            x       y       z     vdW  Elec       q    Type
REMARK                         _______ _______ _______ _____ _____    ______ ____
ROOT
ATOM      1  C   UNL     1      -0.135   0.452  -0.336  0.00  0.00    +0.000 C 
ATOM      2  C   UNL     1       0.583  -0.847  -0.096  0.00  0.00    +0.000 C 
ATOM      3  N   UNL     1      -0.678  -0.798  -0.862  0.00  0.00    +0.000 N 
ENDROOT
BRANCH   3   4
ATOM      4  C   UNL     1      -1.861  -1.357  -0.306  0.00  0.00    +0.000 A 
ATOM      5  C   UNL     1      -2.250  -1.306   1.043  0.00  0.00    +0.000 A 
ATOM      6  C   UNL     1      -3.435  -1.888   1.491  0.00  0.00    +0.000 A 
ATOM      7  C   UNL     1      -4.259  -2.536   0.584  0.00  0.00    +0.000 A 
ATOM      8  C   UNL     1      -3.919  -2.614  -0.756  0.00  0.00    +0.000 A 
ATOM      9  C   UNL     1      -2.731  -2.028  -1.186  0.00  0.00    +0.000 A 
ATOM     10  F   UNL     1      -2.422  -2.121  -2.490  0.00  0.00    +0.000 F 
ATOM     11  F   UNL     1      -5.398  -3.096   1.010  0.00  0.00    +0.000 F 
ATOM     12  F   UNL     1      -1.486  -0.690   1.959  0.00  0.00    +0.000 F 
ENDBRANCH   3   4
BRANCH   2  13
ATOM     13  C   UNL     1       1.845  -1.160  -0.859  0.00  0.00    +0.000 A 
ATOM     14  C   UNL     1       3.015  -0.406  -0.668  0.00  0.00    +0.000 A 
ATOM     15  C   UNL     1       4.194  -0.700  -1.360  0.00  0.00    +0.000 A 
ATOM     16  C   UNL     1       4.227  -1.764  -2.256  0.00  0.00    +0.000 A 
ATOM     17  C   UNL     1       3.084  -2.532  -2.460  0.00  0.00    +0.000 A 
ATOM     18  C   UNL     1       1.909  -2.232  -1.767  0.00  0.00    +0.000 A 
ENDBRANCH   2  13
TORSDOF 2
