REMARK  Name = *****
REMARK  4 active torsions:
REMARK  status: ('A' for Active; 'I' for Inactive)
REMARK    1  A    between atoms: C_1  and  C_2
REMARK    2  A    between atoms: C_5  and  O_8
REMARK    3  A    between atoms: O_8  and  C_9
REMARK    4  A    between atoms: C_9  and  C_11
REMARK                            x       y       z     vdW  Elec       q    Type
REMARK                         _______ _______ _______ _____ _____    ______ ____
ROOT
ATOM      1  O   UNL     1      -3.180   0.344   0.196  0.00  0.00    +0.000 OA
ENDROOT
BRANCH   1   6
ATOM      2  C   UNL     1       2.487  -0.104  -0.043  0.00  0.00    +0.000 C 
ATOM      3  C   UNL     1       0.992   0.031  -0.013  0.00  0.00    +0.000 A 
ATOM      4  C   UNL     1       0.398   1.188   0.515  0.00  0.00    +0.000 A 
ATOM      5  C   UNL     1      -0.991   1.304   0.575  0.00  0.00    +0.000 A 
ATOM      6  C   UNL     1      -1.775   0.259   0.097  0.00  0.00    +0.000 A 
ATOM      7  C   UNL     1      -1.212  -0.913  -0.398  0.00  0.00    +0.000 A 
ATOM      8  C   UNL     1       0.178  -1.023  -0.453  0.00  0.00    +0.000 A 
ENDBRANCH   1   6
BRANCH   1   9
ATOM      9  C   UNL     1      -3.990   0.990  -0.747  0.00  0.00    +0.000 C 
ATOM     10  S   UNL     1      -3.409   1.716  -2.133  0.00  0.00    +0.000 S 
BRANCH   9  11
ATOM     11  C   UNL     1      -5.402   0.961  -0.399  0.00  0.00    +0.000 A 
ATOM     12  C   UNL     1      -6.479   1.587  -1.014  0.00  0.00    +0.000 A 
ATOM     13  C   UNL     1      -7.727   1.312  -0.380  0.00  0.00    +0.000 A 
ATOM     14  C   UNL     1      -7.579   0.480   0.703  0.00  0.00    +0.000 A 
ATOM     15  S   UNL     1      -5.950   0.041   0.953  0.00  0.00    +0.000 S 
ENDBRANCH   9  11
ENDBRANCH   1   9
TORSDOF 3
