REMARK  Name = *****
REMARK  4 active torsions:
REMARK  status: ('A' for Active; 'I' for Inactive)
REMARK    1  A    between atoms: C_5  and  O_7
REMARK    2  A    between atoms: O_7  and  C_8
REMARK    3  A    between atoms: C_8  and  O_10
REMARK    4  A    between atoms: O_10  and  C_11
REMARK                            x       y       z     vdW  Elec       q    Type
REMARK                         _______ _______ _______ _____ _____    ______ ____
ROOT
ATOM      1  C   UNL     1      -1.419  -2.772  -0.576  0.00  0.00    +0.000 C 
ATOM      2  O   UNL     1      -1.861  -2.055   0.314  0.00  0.00    +0.000 OA
ENDROOT
BRANCH   1   3
ATOM      3  O   UNL     1      -0.092  -3.136  -0.754  0.00  0.00    +0.000 OA
BRANCH   3   8
ATOM      4  C   UNL     1       2.315  -1.015   1.029  0.00  0.00    +0.000 A 
ATOM      5  C   UNL     1       2.458  -1.712   2.230  0.00  0.00    +0.000 A 
ATOM      6  C   UNL     1       1.747  -2.896   2.446  0.00  0.00    +0.000 A 
ATOM      7  C   UNL     1       0.886  -3.381   1.461  0.00  0.00    +0.000 A 
ATOM      8  C   UNL     1       0.733  -2.666   0.270  0.00  0.00    +0.000 A 
ATOM      9  C   UNL     1       1.456  -1.494   0.040  0.00  0.00    +0.000 A 
ATOM     10 CL   UNL     1       0.050  -4.863   1.738  0.00  0.00    +0.000 Cl
ENDBRANCH   3   8
ENDBRANCH   1   3
BRANCH   1  11
ATOM     11  O   UNL     1      -2.146  -3.335  -1.614  0.00  0.00    +0.000 OA
BRANCH  11  12
ATOM     12  C   UNL     1      -3.517  -3.090  -1.497  0.00  0.00    +0.000 A 
ATOM     13  C   UNL     1      -4.054  -2.009  -2.198  0.00  0.00    +0.000 A 
ATOM     14  C   UNL     1      -5.424  -1.761  -2.127  0.00  0.00    +0.000 A 
ATOM     15  C   UNL     1      -6.250  -2.598  -1.372  0.00  0.00    +0.000 A 
ATOM     16  C   UNL     1      -5.708  -3.691  -0.690  0.00  0.00    +0.000 A 
ATOM     17  C   UNL     1      -4.338  -3.945  -0.756  0.00  0.00    +0.000 A 
ATOM     18 CL   UNL     1      -3.701  -5.318   0.068  0.00  0.00    +0.000 Cl
ENDBRANCH  11  12
ENDBRANCH   1  11
TORSDOF 4
