REMARK  Name = *****
REMARK  3 active torsions:
REMARK  status: ('A' for Active; 'I' for Inactive)
REMARK    1  A    between atoms: C_2  and  C_3
REMARK    2  A    between atoms: C_6  and  C_9
REMARK    3  A    between atoms: C_10  and  C_11
REMARK                            x       y       z     vdW  Elec       q    Type
REMARK                         _______ _______ _______ _____ _____    ______ ____
ROOT
ATOM      1  C   UNL     1       5.242  -3.690   3.665  0.00  0.00    +0.000 C 
ATOM      2  C   UNL     1       5.813  -4.406   4.443  0.00  0.00    +0.000 C 
ENDROOT
BRANCH   2   3
ATOM      3  C   UNL     1       6.490  -5.259   5.370  0.00  0.00    +0.000 A 
ATOM      4  C   UNL     1       7.442  -4.725   6.245  0.00  0.00    +0.000 A 
ATOM      5  C   UNL     1       8.100  -5.558   7.151  0.00  0.00    +0.000 A 
ATOM      6  C   UNL     1       7.802  -6.916   7.175  0.00  0.00    +0.000 A 
ATOM      7  C   UNL     1       6.858  -7.458   6.310  0.00  0.00    +0.000 A 
ATOM      8  C   UNL     1       6.198  -6.627   5.403  0.00  0.00    +0.000 A 
ATOM      9  F   UNL     1       8.434  -7.715   8.045  0.00  0.00    +0.000 F 
ENDBRANCH   2   3
BRANCH   1  13
ATOM     10  C   UNL     1       3.207  -1.156   0.936  0.00  0.00    +0.000 A 
ATOM     11  C   UNL     1       2.767  -2.468   1.156  0.00  0.00    +0.000 A 
ATOM     12  C   UNL     1       3.436  -3.303   2.058  0.00  0.00    +0.000 A 
ATOM     13  C   UNL     1       4.559  -2.838   2.742  0.00  0.00    +0.000 A 
ATOM     14  C   UNL     1       5.016  -1.539   2.519  0.00  0.00    +0.000 A 
ATOM     15  C   UNL     1       4.346  -0.706   1.616  0.00  0.00    +0.000 A 
BRANCH  10  17
ATOM     16  C   UNL     1       1.235  -0.232  -0.264  0.00  0.00    +0.000 C 
ATOM     17  C   UNL     1       2.552  -0.257  -0.023  0.00  0.00    +0.000 C 
ENDBRANCH  10  17
ENDBRANCH   1  13
TORSDOF 3
