REMARK  Name = *****
REMARK  4 active torsions:
REMARK  status: ('A' for Active; 'I' for Inactive)
REMARK    1  A    between atoms: C_1  and  C_2
REMARK    2  A    between atoms: C_5  and  C_8
REMARK    3  A    between atoms: C_9  and  C_10
REMARK    4  A    between atoms: C_10  and  C_16
REMARK                            x       y       z     vdW  Elec       q    Type
REMARK                         _______ _______ _______ _____ _____    ______ ____
ROOT
ATOM      1  C   UNL     1      -3.221  -0.019  -0.006  0.00  0.00    +0.000 C 
ATOM      2  C   UNL     1      -4.002   1.070  -0.119  0.00  0.00    +0.000 C 
ENDROOT
BRANCH   1   7
ATOM      3  C   UNL     1       2.568   0.028  -0.064  0.00  0.00    +0.000 C 
ATOM      4  C   UNL     1       1.068   0.046  -0.070  0.00  0.00    +0.000 A 
ATOM      5  C   UNL     1       0.365   1.009   0.662  0.00  0.00    +0.000 A 
ATOM      6  C   UNL     1      -1.033   1.004   0.682  0.00  0.00    +0.000 A 
ATOM      7  C   UNL     1      -1.752   0.036  -0.030  0.00  0.00    +0.000 A 
ATOM      8  C   UNL     1      -1.047  -0.945  -0.735  0.00  0.00    +0.000 A 
ATOM      9  C   UNL     1       0.351  -0.941  -0.756  0.00  0.00    +0.000 A 
ENDBRANCH   1   7
BRANCH   2  10
ATOM     10  C   UNL     1      -5.531   1.132  -0.111  0.00  0.00    +0.000 C 
ATOM     11  C   UNL     1      -5.986   1.814  -1.425  0.00  0.00    +0.000 C 
ATOM     12  C   UNL     1      -7.507   1.849  -1.602  0.00  0.00    +0.000 C 
ATOM     13  C   UNL     1      -8.125   0.463  -1.471  0.00  0.00    +0.000 C 
ATOM     14  C   UNL     1      -7.733  -0.202  -0.157  0.00  0.00    +0.000 C 
ATOM     15  C   UNL     1      -6.213  -0.254   0.016  0.00  0.00    +0.000 C 
BRANCH  10  16
ATOM     16  C   UNL     1      -5.916   1.979   1.053  0.00  0.00    +0.000 C 
ATOM     17  N   UNL     1      -6.225   2.645   1.953  0.00  0.00    +0.000 NA
ENDBRANCH  10  16
ENDBRANCH   2  10
TORSDOF 3
