REMARK  Name = *****
REMARK  2 active torsions:
REMARK  status: ('A' for Active; 'I' for Inactive)
REMARK    1  A    between atoms: C_1  and  C_2
REMARK    2  A    between atoms: C_5  and  C_6
REMARK                            x       y       z     vdW  Elec       q    Type
REMARK                         _______ _______ _______ _____ _____    ______ ____
ROOT
ATOM      1  C   UNL     1       0.998   1.722   1.502  0.00  0.00    +0.000 A 
ATOM      2  C   UNL     1       0.933   3.073   1.750  0.00  0.00    +0.000 A 
ATOM      3  C   UNL     1       1.552   3.442   2.993  0.00  0.00    +0.000 A 
ATOM      4  C   UNL     1       1.697   4.708   3.610  0.00  0.00    +0.000 A 
ATOM      5  C   UNL     1       2.349   4.824   4.841  0.00  0.00    +0.000 A 
ATOM      6  C   UNL     1       2.861   3.699   5.472  0.00  0.00    +0.000 A 
ATOM      7  C   UNL     1       2.733   2.437   4.888  0.00  0.00    +0.000 A 
ATOM      8  C   UNL     1       2.075   2.324   3.647  0.00  0.00    +0.000 A 
ATOM      9  S   UNL     1       1.797   0.884   2.745  0.00  0.00    +0.000 S 
ENDROOT
BRANCH   1  14
ATOM     10  C   UNL     1      -1.792  -0.145  -0.418  0.00  0.00    +0.000 C 
ATOM     11  C   UNL     1      -0.561  -0.110   0.479  0.00  0.00    +0.000 C 
ATOM     12  C   UNL     1       0.570  -1.075   0.073  0.00  0.00    +0.000 C 
ATOM     13  C   UNL     1       1.328   0.115  -0.527  0.00  0.00    +0.000 C 
ATOM     14  C   UNL     1       0.397   1.100   0.229  0.00  0.00    +0.000 C 
ENDBRANCH   1  14
TORSDOF 1
