REMARK  Name = *****
REMARK  4 active torsions:
REMARK  status: ('A' for Active; 'I' for Inactive)
REMARK    1  A    between atoms: C_4  and  C_8
REMARK    2  A    between atoms: C_8  and  O_9
REMARK    3  A    between atoms: O_9  and  C_10
REMARK    4  A    between atoms: C_10  and  C_12
REMARK                            x       y       z     vdW  Elec       q    Type
REMARK                         _______ _______ _______ _____ _____    ______ ____
ROOT
ATOM      1  O   UNL     1       0.451  -2.771  -1.775  0.00  0.00    +0.000 OA
ENDROOT
BRANCH   1   2
ATOM      2  C   UNL     1      -0.893  -2.868  -1.623  0.00  0.00    +0.000 C 
ATOM      3  O   UNL     1      -1.672  -1.934  -1.527  0.00  0.00    +0.000 OA
BRANCH   2   4
ATOM      4  C   UNL     1      -1.311  -4.296  -1.574  0.00  0.00    +0.000 A 
ATOM      5  C   UNL     1      -0.399  -5.352  -1.705  0.00  0.00    +0.000 A 
ATOM      6  C   UNL     1      -0.845  -6.675  -1.651  0.00  0.00    +0.000 A 
ATOM      7  C   UNL     1      -2.200  -6.950  -1.465  0.00  0.00    +0.000 A 
ATOM      8  C   UNL     1      -3.113  -5.904  -1.333  0.00  0.00    +0.000 A 
ATOM      9  C   UNL     1      -2.671  -4.581  -1.388  0.00  0.00    +0.000 A 
ENDBRANCH   2   4
ENDBRANCH   1   2
BRANCH   1  10
ATOM     10  C   UNL     1       0.982  -1.435  -1.832  0.00  0.00    +0.000 C 
BRANCH  10  14
ATOM     11  C   UNL     1       2.302   0.578   1.078  0.00  0.00    +0.000 C 
ATOM     12  C   UNL     1       3.271  -0.584   0.841  0.00  0.00    +0.000 C 
ATOM     13  C   UNL     1       2.311  -1.699   0.371  0.00  0.00    +0.000 C 
ATOM     14  C   UNL     1       1.226  -0.902  -0.423  0.00  0.00    +0.000 C 
ATOM     15  C   UNL     1       1.764   0.550  -0.359  0.00  0.00    +0.000 C 
ATOM     16  C   UNL     1       3.081   0.641  -1.096  0.00  0.00    +0.000 C 
ATOM     17  C   UNL     1       3.984  -0.047  -0.379  0.00  0.00    +0.000 C 
ENDBRANCH  10  14
ENDBRANCH   1  10
TORSDOF 4
