REMARK  Name = *****
REMARK  5 active torsions:
REMARK  status: ('A' for Active; 'I' for Inactive)
REMARK    1  A    between atoms: C_1  and  C_2
REMARK    2  A    between atoms: C_2  and  C_3
REMARK    3  A    between atoms: C_2  and  N_9
REMARK    4  A    between atoms: N_9  and  C_10
REMARK    5  A    between atoms: C_10  and  C_12
REMARK                            x       y       z     vdW  Elec       q    Type
REMARK                         _______ _______ _______ _____ _____    ______ ____
ROOT
ATOM      1  N   UNL     1       2.734   1.189  -0.690  0.00  0.00    +0.000 N 
ATOM      2  H   UNL     1       2.840   1.069  -1.662  0.00  0.00    +0.000 HD
ENDROOT
BRANCH   1   4
ATOM      3  C   UNL     1       0.891  -0.099   0.333  0.00  0.00    +0.000 C 
ATOM      4  C   UNL     1       2.399  -0.014   0.076  0.00  0.00    +0.000 C 
BRANCH   4   5
ATOM      5  C   UNL     1       2.937  -1.235  -0.654  0.00  0.00    +0.000 A 
ATOM      6  C   UNL     1       2.316  -1.753  -1.802  0.00  0.00    +0.000 A 
ATOM      7  C   UNL     1       2.851  -2.860  -2.465  0.00  0.00    +0.000 A 
ATOM      8  C   UNL     1       4.017  -3.459  -1.996  0.00  0.00    +0.000 A 
ATOM      9  C   UNL     1       4.654  -2.949  -0.867  0.00  0.00    +0.000 A 
ATOM     10  C   UNL     1       4.121  -1.842  -0.204  0.00  0.00    +0.000 A 
ENDBRANCH   4   5
ENDBRANCH   1   4
BRANCH   1  11
ATOM     11  C   UNL     1       2.920   2.473  -0.209  0.00  0.00    +0.000 C 
ATOM     12  S   UNL     1       2.855   2.925   1.406  0.00  0.00    +0.000 S 
BRANCH  11  13
ATOM     13  C   UNL     1       3.197   3.465  -1.284  0.00  0.00    +0.000 A 
ATOM     14  C   UNL     1       2.279   3.609  -2.333  0.00  0.00    +0.000 A 
ATOM     15  C   UNL     1       2.534   4.521  -3.358  0.00  0.00    +0.000 A 
ATOM     16  C   UNL     1       3.702   5.284  -3.339  0.00  0.00    +0.000 A 
ATOM     17  C   UNL     1       4.618   5.140  -2.296  0.00  0.00    +0.000 A 
ATOM     18  C   UNL     1       4.369   4.230  -1.267  0.00  0.00    +0.000 A 
ENDBRANCH  11  13
ENDBRANCH   1  11
TORSDOF 4
