REMARK  Name = *****
REMARK  2 active torsions:
REMARK  status: ('A' for Active; 'I' for Inactive)
REMARK    1  A    between atoms: C_3  and  C_8
REMARK    2  A    between atoms: N_9  and  C_10
REMARK                            x       y       z     vdW  Elec       q    Type
REMARK                         _______ _______ _______ _____ _____    ______ ____
ROOT
ATOM      1  C   UNL     1      -1.829   2.611  -0.110  0.00  0.00    +0.000 C 
ATOM      2  N   UNL     1      -1.282   3.676   0.384  0.00  0.00    +0.000 NA
ENDROOT
BRANCH   1   5
ATOM      3  C   UNL     1      -1.189  -1.065  -0.586  0.00  0.00    +0.000 A 
ATOM      4  C   UNL     1      -1.808   0.187  -0.614  0.00  0.00    +0.000 A 
ATOM      5  C   UNL     1      -1.155   1.299  -0.069  0.00  0.00    +0.000 A 
ATOM      6  C   UNL     1       0.112   1.166   0.501  0.00  0.00    +0.000 A 
ATOM      7  C   UNL     1       0.715  -0.085   0.520  0.00  0.00    +0.000 A 
ATOM      8  C   UNL     1       0.078  -1.200  -0.017  0.00  0.00    +0.000 A 
ATOM      9  F   UNL     1       1.931  -0.224   1.064  0.00  0.00    +0.000 F 
ENDBRANCH   1   5
BRANCH   2  10
ATOM     10  C   UNL     1      -2.031   4.856   0.280  0.00  0.00    +0.000 A 
ATOM     11  C   UNL     1      -2.984   5.180   1.246  0.00  0.00    +0.000 A 
ATOM     12  C   UNL     1      -3.704   6.363   1.132  0.00  0.00    +0.000 A 
ATOM     13  C   UNL     1      -3.484   7.241   0.075  0.00  0.00    +0.000 A 
ATOM     14  C   UNL     1      -2.521   6.932  -0.884  0.00  0.00    +0.000 A 
ATOM     15  C   UNL     1      -1.794   5.743  -0.777  0.00  0.00    +0.000 A 
ATOM     16  F   UNL     1      -4.625   6.666   2.056  0.00  0.00    +0.000 F 
ENDBRANCH   2  10
TORSDOF 2
