REMARK  Name = *****
REMARK  5 active torsions:
REMARK  status: ('A' for Active; 'I' for Inactive)
REMARK    1  A    between atoms: C_1  and  C_2
REMARK    2  A    between atoms: C_5  and  C_8
REMARK    3  A    between atoms: C_9  and  C_10
REMARK    4  A    between atoms: C_9  and  C_16
REMARK    5  A    between atoms: C_16  and  C_18
REMARK                            x       y       z     vdW  Elec       q    Type
REMARK                         _______ _______ _______ _____ _____    ______ ____
ROOT
ATOM      1  C   UNL     1      -3.424   0.237  -0.192  0.00  0.00    +0.000 C 
ATOM      2  C   UNL     1      -4.233   1.298  -0.003  0.00  0.00    +0.000 C 
ENDROOT
BRANCH   1   7
ATOM      3  C   UNL     1       2.357   0.177  -0.069  0.00  0.00    +0.000 C 
ATOM      4  C   UNL     1       0.858   0.223  -0.104  0.00  0.00    +0.000 A 
ATOM      5  C   UNL     1       0.134   0.615   1.028  0.00  0.00    +0.000 A 
ATOM      6  C   UNL     1      -1.263   0.626   1.007  0.00  0.00    +0.000 A 
ATOM      7  C   UNL     1      -1.957   0.245  -0.146  0.00  0.00    +0.000 A 
ATOM      8  C   UNL     1      -1.236  -0.175  -1.268  0.00  0.00    +0.000 A 
ATOM      9  C   UNL     1       0.162  -0.187  -1.247  0.00  0.00    +0.000 A 
ENDBRANCH   1   7
BRANCH   2  10
ATOM     10  C   UNL     1      -5.702   1.149  -0.057  0.00  0.00    +0.000 A 
ATOM     11  C   UNL     1      -6.506   1.655   0.974  0.00  0.00    +0.000 A 
ATOM     12  C   UNL     1      -7.896   1.532   0.919  0.00  0.00    +0.000 A 
ATOM     13  C   UNL     1      -8.500   0.905  -0.168  0.00  0.00    +0.000 A 
ATOM     14  C   UNL     1      -7.715   0.402  -1.203  0.00  0.00    +0.000 A 
ATOM     15  C   UNL     1      -6.324   0.525  -1.150  0.00  0.00    +0.000 A 
ENDBRANCH   2  10
BRANCH   2  16
ATOM     16  C   UNL     1      -3.638   2.641   0.287  0.00  0.00    +0.000 C 
ATOM     17  O   UNL     1      -3.665   3.107   1.425  0.00  0.00    +0.000 OA
ATOM     18  C   UNL     1      -3.040   3.397  -0.869  0.00  0.00    +0.000 C 
ENDBRANCH   2  16
TORSDOF 3
