REMARK  Name = *****
REMARK  3 active torsions:
REMARK  status: ('A' for Active; 'I' for Inactive)
REMARK    1  A    between atoms: C_5  and  C_7
REMARK    2  A    between atoms: C_7  and  O_9
REMARK    3  A    between atoms: O_9  and  C_10
REMARK                            x       y       z     vdW  Elec       q    Type
REMARK                         _______ _______ _______ _____ _____    ______ ____
ROOT
ATOM      1  C   UNL     1      -0.359  -2.541   0.348  0.00  0.00    +0.000 C 
ATOM      2  O   UNL     1       0.267  -3.586   0.257  0.00  0.00    +0.000 OA
ENDROOT
BRANCH   1   7
ATOM      3  C   UNL     1       1.686   0.155  -1.260  0.00  0.00    +0.000 A 
ATOM      4  C   UNL     1       1.489   1.232  -0.399  0.00  0.00    +0.000 A 
ATOM      5  C   UNL     1       0.693   1.083   0.739  0.00  0.00    +0.000 A 
ATOM      6  C   UNL     1       0.078  -0.143   1.017  0.00  0.00    +0.000 A 
ATOM      7  C   UNL     1       0.255  -1.217   0.138  0.00  0.00    +0.000 A 
ATOM      8  C   UNL     1       1.075  -1.070  -0.991  0.00  0.00    +0.000 A 
ATOM      9 CL   UNL     1      -0.824  -0.266   2.485  0.00  0.00    +0.000 Cl
ENDBRANCH   1   7
BRANCH   1  10
ATOM     10  O   UNL     1      -1.720  -2.374   0.510  0.00  0.00    +0.000 OA
BRANCH  10  11
ATOM     11  C   UNL     1      -2.430  -3.562   0.709  0.00  0.00    +0.000 A 
ATOM     12  C   UNL     1      -2.251  -4.317   1.867  0.00  0.00    +0.000 A 
ATOM     13  C   UNL     1      -3.021  -5.463   2.047  0.00  0.00    +0.000 A 
ATOM     14  C   UNL     1      -3.969  -5.839   1.093  0.00  0.00    +0.000 A 
ATOM     15  C   UNL     1      -4.154  -5.061  -0.052  0.00  0.00    +0.000 A 
ATOM     16  C   UNL     1      -3.387  -3.912  -0.244  0.00  0.00    +0.000 A 
ATOM     17 CL   UNL     1      -2.811  -6.421   3.462  0.00  0.00    +0.000 Cl
ENDBRANCH  10  11
ENDBRANCH   1  10
TORSDOF 3
