REMARK  Name = *****
REMARK  4 active torsions:
REMARK  status: ('A' for Active; 'I' for Inactive)
REMARK    1  A    between atoms: C_1  and  C_2
REMARK    2  A    between atoms: C_4  and  C_15
REMARK    3  A    between atoms: N_6  and  C_7
REMARK    4  A    between atoms: C_8  and  C_9
REMARK                            x       y       z     vdW  Elec       q    Type
REMARK                         _______ _______ _______ _____ _____    ______ ____
ROOT
ATOM      1  C   UNL     1       2.873  -2.473  -0.161  0.00  0.00    +0.000 C 
ATOM      2  C   UNL     1       3.653  -3.563  -0.259  0.00  0.00    +0.000 C 
ENDROOT
BRANCH   1   8
ATOM      3  C   UNL     1       0.991  -0.093   0.078  0.00  0.00    +0.000 C 
ATOM      4  C   UNL     1       2.477  -0.017   0.002  0.00  0.00    +0.000 A 
ATOM      5  C   UNL     1       3.274   1.113   0.025  0.00  0.00    +0.000 A 
ATOM      6  C   UNL     1       4.623   0.704  -0.072  0.00  0.00    +0.000 A 
ATOM      7  C   UNL     1       4.601  -0.673  -0.151  0.00  0.00    +0.000 A 
ATOM      8  N   UNL     1       3.296  -1.138  -0.106  0.00  0.00    +0.000 N 
ATOM      9  C   UNL     1       5.825   1.574  -0.085  0.00  0.00    +0.000 C 
ENDBRANCH   1   8
BRANCH   2  10
ATOM     10  C   UNL     1       3.125  -4.934  -0.305  0.00  0.00    +0.000 A 
ATOM     11  C   UNL     1       2.001  -5.275  -1.068  0.00  0.00    +0.000 A 
ATOM     12  C   UNL     1       1.545  -6.595  -1.110  0.00  0.00    +0.000 A 
ATOM     13  C   UNL     1       2.215  -7.588  -0.399  0.00  0.00    +0.000 A 
ATOM     14  C   UNL     1       3.345  -7.264   0.350  0.00  0.00    +0.000 A 
ATOM     15  C   UNL     1       3.801  -5.944   0.392  0.00  0.00    +0.000 A 
ENDBRANCH   2  10
TORSDOF 2
