REMARK  Name = *****
REMARK  4 active torsions:
REMARK  status: ('A' for Active; 'I' for Inactive)
REMARK    1  A    between atoms: C_1  and  C_2
REMARK    2  A    between atoms: C_4  and  N_8
REMARK    3  A    between atoms: C_9  and  C_10
REMARK    4  A    between atoms: C_9  and  C_11
REMARK                            x       y       z     vdW  Elec       q    Type
REMARK                         _______ _______ _______ _____ _____    ______ ____
ROOT
ATOM      1  N   UNL     1      -1.531   2.472  -0.359  0.00  0.00    +0.000 NA
ATOM      2  C   UNL     1      -1.232   3.539   0.322  0.00  0.00    +0.000 C 
ATOM      3  C   UNL     1      -0.145   3.601   1.377  0.00  0.00    +0.000 C 
ENDROOT
BRANCH   1   7
ATOM      4  C   UNL     1       2.349  -0.393  -1.459  0.00  0.00    +0.000 C 
ATOM      5  C   UNL     1       1.097  -0.135  -0.674  0.00  0.00    +0.000 A 
ATOM      6  C   UNL     1       0.374   1.050  -0.864  0.00  0.00    +0.000 A 
ATOM      7  C   UNL     1      -0.808   1.291  -0.156  0.00  0.00    +0.000 A 
ATOM      8  C   UNL     1      -1.294   0.314   0.714  0.00  0.00    +0.000 A 
ATOM      9  C   UNL     1      -0.593  -0.877   0.900  0.00  0.00    +0.000 A 
ATOM     10  C   UNL     1       0.598  -1.101   0.208  0.00  0.00    +0.000 A 
ENDBRANCH   1   7
BRANCH   2  11
ATOM     11  C   UNL     1      -2.045   4.815   0.090  0.00  0.00    +0.000 C 
ATOM     12  C   UNL     1      -3.222   4.852   1.073  0.00  0.00    +0.000 C 
ATOM     13  C   UNL     1      -4.076   6.102   0.879  0.00  0.00    +0.000 C 
ATOM     14  C   UNL     1      -4.546   6.248  -0.566  0.00  0.00    +0.000 C 
ATOM     15  C   UNL     1      -3.377   6.208  -1.546  0.00  0.00    +0.000 C 
ATOM     16  C   UNL     1      -2.533   4.949  -1.358  0.00  0.00    +0.000 C 
ENDBRANCH   2  11
TORSDOF 2
