REMARK  Name = *****
REMARK  6 active torsions:
REMARK  status: ('A' for Active; 'I' for Inactive)
REMARK    1  A    between atoms: C_1  and  C_2
REMARK    2  A    between atoms: C_2  and  C_3
REMARK    3  A    between atoms: C_2  and  N_9
REMARK    4  A    between atoms: N_9  and  C_10
REMARK    5  A    between atoms: N_9  and  O_18
REMARK    6  A    between atoms: C_10  and  C_12
REMARK                            x       y       z     vdW  Elec       q    Type
REMARK                         _______ _______ _______ _____ _____    ______ ____
ROOT
ATOM      1  N   UNL     1       1.858   0.968   0.794  0.00  0.00    +0.000 N 
ENDROOT
BRANCH   1   3
ATOM      2  C   UNL     1       0.563  -0.241  -0.959  0.00  0.00    +0.000 C 
ATOM      3  C   UNL     1       1.909  -0.098  -0.239  0.00  0.00    +0.000 C 
BRANCH   3   4
ATOM      4  C   UNL     1       3.066   0.079  -1.217  0.00  0.00    +0.000 A 
ATOM      5  C   UNL     1       3.098   1.131  -2.146  0.00  0.00    +0.000 A 
ATOM      6  C   UNL     1       4.164   1.269  -3.039  0.00  0.00    +0.000 A 
ATOM      7  C   UNL     1       5.216   0.358  -3.015  0.00  0.00    +0.000 A 
ATOM      8  C   UNL     1       5.205  -0.690  -2.098  0.00  0.00    +0.000 A 
ATOM      9  C   UNL     1       4.139  -0.829  -1.206  0.00  0.00    +0.000 A 
ENDBRANCH   3   4
ENDBRANCH   1   3
BRANCH   1  10
ATOM     10  C   UNL     1       2.687   1.056   1.913  0.00  0.00    +0.000 C 
ATOM     11  S   UNL     1       3.524  -0.236   2.603  0.00  0.00    +0.000 S 
BRANCH  10  12
ATOM     12  C   UNL     1       2.746   2.383   2.576  0.00  0.00    +0.000 A 
ATOM     13  C   UNL     1       1.778   2.725   3.527  0.00  0.00    +0.000 A 
ATOM     14  C   UNL     1       1.831   3.977   4.139  0.00  0.00    +0.000 A 
ATOM     15  C   UNL     1       2.844   4.877   3.801  0.00  0.00    +0.000 A 
ATOM     16  C   UNL     1       3.807   4.532   2.850  0.00  0.00    +0.000 A 
ATOM     17  C   UNL     1       3.761   3.282   2.232  0.00  0.00    +0.000 A 
ENDBRANCH  10  12
ENDBRANCH   1  10
BRANCH   1  18
ATOM     18  O   UNL     1       1.454   2.217   0.252  0.00  0.00    +0.000 OA
ATOM     19  H   UNL     1       0.884   2.065  -0.518  0.00  0.00    +0.000 HD
ENDBRANCH   1  18
TORSDOF 5
