REMARK  Name = *****
REMARK  2 active torsions:
REMARK  status: ('A' for Active; 'I' for Inactive)
REMARK    1  A    between atoms: C_5  and  C_7
REMARK    2  A    between atoms: C_7  and  C_8
REMARK                            x       y       z     vdW  Elec       q    Type
REMARK                         _______ _______ _______ _____ _____    ______ ____
ROOT
ATOM      1  C   UNL     1      -1.812  -2.678  -0.281  0.00  0.00    +0.000 A 
ATOM      2  N   UNL     1      -2.707  -2.633  -1.253  0.00  0.00    +0.000 NA
ATOM      3  C   UNL     1      -3.902  -2.795  -0.597  0.00  0.00    +0.000 A 
ATOM      4  C   UNL     1      -5.218  -2.832  -1.073  0.00  0.00    +0.000 A 
ATOM      5  C   UNL     1      -6.253  -3.016  -0.143  0.00  0.00    +0.000 A 
ATOM      6  C   UNL     1      -5.982  -3.159   1.225  0.00  0.00    +0.000 A 
ATOM      7  C   UNL     1      -4.671  -3.125   1.715  0.00  0.00    +0.000 A 
ATOM      8  C   UNL     1      -3.676  -2.942   0.762  0.00  0.00    +0.000 A 
ATOM      9  O   UNL     1      -2.331  -2.874   0.973  0.00  0.00    +0.000 OA
ENDROOT
BRANCH   1  10
ATOM     10  C   UNL     1      -0.332  -2.557  -0.379  0.00  0.00    +0.000 C 
BRANCH  10  15
ATOM     11  C   UNL     1       0.573   1.054  -1.182  0.00  0.00    +0.000 A 
ATOM     12  C   UNL     1       0.987   1.543   0.054  0.00  0.00    +0.000 A 
ATOM     13  C   UNL     1       0.978   0.705   1.169  0.00  0.00    +0.000 A 
ATOM     14  C   UNL     1       0.560  -0.625   1.050  0.00  0.00    +0.000 A 
ATOM     15  C   UNL     1       0.152  -1.136  -0.192  0.00  0.00    +0.000 A 
ATOM     16  C   UNL     1       0.156  -0.272  -1.304  0.00  0.00    +0.000 A 
ATOM     17 CL   UNL     1       0.571  -1.591   2.482  0.00  0.00    +0.000 Cl
ENDBRANCH  10  15
ENDBRANCH   1  10
TORSDOF 2
