REMARK  Name = *****
REMARK  3 active torsions:
REMARK  status: ('A' for Active; 'I' for Inactive)
REMARK    1  A    between atoms: C_4  and  C_7
REMARK    2  A    between atoms: C_7  and  S_8
REMARK    3  A    between atoms: S_8  and  C_9
REMARK                            x       y       z     vdW  Elec       q    Type
REMARK                         _______ _______ _______ _____ _____    ______ ____
ROOT
ATOM      1  C   UNL     1       1.389  -0.030  -0.197  0.00  0.00    +0.000 A 
ATOM      2  C   UNL     1       0.782  -1.036   0.552  0.00  0.00    +0.000 A 
ATOM      3  C   UNL     1      -0.600  -1.027   0.744  0.00  0.00    +0.000 A 
ATOM      4  C   UNL     1      -1.390  -0.007   0.192  0.00  0.00    +0.000 A 
ATOM      5  C   UNL     1      -0.768   0.994  -0.569  0.00  0.00    +0.000 A 
ATOM      6  C   UNL     1       0.614   0.983  -0.759  0.00  0.00    +0.000 A 
ENDROOT
BRANCH   4   7
ATOM      7  C   UNL     1      -2.884  -0.003   0.391  0.00  0.00    +0.000 C 
BRANCH   7   8
ATOM      8  S   UNL     1      -3.736  -0.985  -0.880  0.00  0.00    +0.000 S 
BRANCH   8   9
ATOM      9  C   UNL     1      -5.386  -0.805  -0.374  0.00  0.00    +0.000 C 
ATOM     10  C   UNL     1      -6.439  -1.402  -0.953  0.00  0.00    +0.000 C 
ATOM     11 CL   UNL     1      -6.334  -2.465  -2.311  0.00  0.00    +0.000 Cl
ATOM     12 CL   UNL     1      -8.028  -1.113  -0.319  0.00  0.00    +0.000 Cl
ENDBRANCH   8   9
ENDBRANCH   7   8
ENDBRANCH   4   7
TORSDOF 3
