REMARK  Name = *****
REMARK  4 active torsions:
REMARK  status: ('A' for Active; 'I' for Inactive)
REMARK    1  A    between atoms: C_4  and  C_7
REMARK    2  A    between atoms: C_7  and  S_8
REMARK    3  A    between atoms: S_8  and  C_9
REMARK    4  A    between atoms: C_9  and  C_11
REMARK                            x       y       z     vdW  Elec       q    Type
REMARK                         _______ _______ _______ _____ _____    ______ ____
ROOT
ATOM      1  S   UNL     1      -3.864  -1.188   1.331  0.00  0.00    +0.000 S 
ENDROOT
BRANCH   1   2
ATOM      2  C   UNL     1      -5.575  -0.920   1.028  0.00  0.00    +0.000 C 
ATOM      3  S   UNL     1      -6.478   0.188   1.897  0.00  0.00    +0.000 S 
BRANCH   2   4
ATOM      4  C   UNL     1      -6.154  -1.775   0.007  0.00  0.00    +0.000 A 
ATOM      5  C   UNL     1      -5.942  -3.130  -0.204  0.00  0.00    +0.000 A 
ATOM      6  C   UNL     1      -6.660  -3.637  -1.326  0.00  0.00    +0.000 A 
ATOM      7  C   UNL     1      -7.391  -2.656  -1.954  0.00  0.00    +0.000 A 
ATOM      8  S   UNL     1      -7.208  -1.137  -1.196  0.00  0.00    +0.000 S 
ENDBRANCH   2   4
ENDBRANCH   1   2
BRANCH   1   9
ATOM      9  C   UNL     1      -3.204  -0.027   0.099  0.00  0.00    +0.000 C 
BRANCH   9  13
ATOM     10  C   UNL     1       1.095  -0.282  -0.125  0.00  0.00    +0.000 A 
ATOM     11  C   UNL     1       0.306  -1.033  -0.994  0.00  0.00    +0.000 A 
ATOM     12  C   UNL     1      -1.086  -0.950  -0.924  0.00  0.00    +0.000 A 
ATOM     13  C   UNL     1      -1.702  -0.109   0.014  0.00  0.00    +0.000 A 
ATOM     14  C   UNL     1      -0.897   0.636   0.889  0.00  0.00    +0.000 A 
ATOM     15  C   UNL     1       0.495   0.551   0.817  0.00  0.00    +0.000 A 
ENDBRANCH   9  13
ENDBRANCH   1   9
TORSDOF 4
