REMARK  Name = *****
REMARK  4 active torsions:
REMARK  status: ('A' for Active; 'I' for Inactive)
REMARK    1  A    between atoms: C_1  and  C_2
REMARK    2  A    between atoms: C_2  and  C_9
REMARK    3  A    between atoms: C_9  and  S_10
REMARK    4  A    between atoms: S_10  and  C_11
REMARK                            x       y       z     vdW  Elec       q    Type
REMARK                         _______ _______ _______ _____ _____    ______ ____
ROOT
ATOM      1  C   UNL     1       0.849   0.065   0.178  0.00  0.00    +0.000 C 
ATOM      2  C   UNL     1       2.385   0.048   0.075  0.00  0.00    +0.000 C 
ATOM      3  C   UNL     1       2.890   1.055  -0.985  0.00  0.00    +0.000 C 
ATOM      4  C   UNL     1       2.555   0.661  -2.424  0.00  0.00    +0.000 C 
ATOM      5  C   UNL     1       3.106  -0.721  -2.749  0.00  0.00    +0.000 C 
ATOM      6  C   UNL     1       2.573  -1.772  -1.791  0.00  0.00    +0.000 C 
ATOM      7  C   UNL     1       2.809  -1.369  -0.349  0.00  0.00    +0.000 C 
ATOM      8  O   UNL     1       3.227  -2.197   0.462  0.00  0.00    +0.000 OA
ENDROOT
BRANCH   2   9
ATOM      9  C   UNL     1       3.025   0.334   1.462  0.00  0.00    +0.000 C 
BRANCH   9  10
ATOM     10  S   UNL     1       2.681   2.005   2.142  0.00  0.00    +0.000 S 
BRANCH  10  11
ATOM     11  C   UNL     1       3.631   1.937   3.650  0.00  0.00    +0.000 A 
ATOM     12  C   UNL     1       4.594   2.922   3.890  0.00  0.00    +0.000 A 
ATOM     13  C   UNL     1       5.340   2.908   5.071  0.00  0.00    +0.000 A 
ATOM     14  C   UNL     1       5.121   1.914   6.023  0.00  0.00    +0.000 A 
ATOM     15  C   UNL     1       4.152   0.938   5.797  0.00  0.00    +0.000 A 
ATOM     16  C   UNL     1       3.406   0.952   4.617  0.00  0.00    +0.000 A 
ENDBRANCH  10  11
ENDBRANCH   9  10
ENDBRANCH   2   9
TORSDOF 3
