REMARK  Name = *****
REMARK  5 active torsions:
REMARK  status: ('A' for Active; 'I' for Inactive)
REMARK    1  A    between atoms: C_1  and  O_2
REMARK    2  A    between atoms: O_2  and  C_3
REMARK    3  A    between atoms: C_6  and  C_9
REMARK    4  A    between atoms: C_9  and  C_10
REMARK    5  A    between atoms: C_10  and  C_12
REMARK                            x       y       z     vdW  Elec       q    Type
REMARK                         _______ _______ _______ _____ _____    ______ ____
ROOT
ATOM      1  C   UNL     1       5.264   4.678   1.353  0.00  0.00    +0.000 C 
ENDROOT
BRANCH   1   5
ATOM      2  C   UNL     1       3.162   1.075   0.189  0.00  0.00    +0.000 A 
ATOM      3  C   UNL     1       2.550   2.321   0.056  0.00  0.00    +0.000 A 
ATOM      4  C   UNL     1       3.230   3.484   0.436  0.00  0.00    +0.000 A 
ATOM      5  C   UNL     1       4.529   3.418   0.958  0.00  0.00    +0.000 A 
ATOM      6  C   UNL     1       5.137   2.164   1.091  0.00  0.00    +0.000 A 
ATOM      7  C   UNL     1       4.457   1.006   0.707  0.00  0.00    +0.000 A 
BRANCH   2   9
ATOM      8  C   UNL     1       1.270  -0.118  -0.609  0.00  0.00    +0.000 C 
ATOM      9  O   UNL     1       2.614  -0.132  -0.146  0.00  0.00    +0.000 OA
ENDBRANCH   2   9
ENDBRANCH   1   5
BRANCH   1  10
ATOM     10  C   UNL     1       4.709   5.383   2.582  0.00  0.00    +0.000 C 
ATOM     11  O   UNL     1       3.743   4.970   3.222  0.00  0.00    +0.000 OA
BRANCH  10  12
ATOM     12  C   UNL     1       5.368   6.651   3.031  0.00  0.00    +0.000 A 
ATOM     13  C   UNL     1       6.481   7.197   2.376  0.00  0.00    +0.000 A 
ATOM     14  C   UNL     1       7.055   8.387   2.836  0.00  0.00    +0.000 A 
ATOM     15  C   UNL     1       6.521   9.036   3.949  0.00  0.00    +0.000 A 
ATOM     16  C   UNL     1       5.417   8.505   4.608  0.00  0.00    +0.000 A 
ATOM     17  C   UNL     1       4.842   7.316   4.151  0.00  0.00    +0.000 A 
ATOM     18 CL   UNL     1       7.232  10.499   4.507  0.00  0.00    +0.000 Cl
ENDBRANCH  10  12
ENDBRANCH   1  10
TORSDOF 4
