REMARK  Name = *****
REMARK  4 active torsions:
REMARK  status: ('A' for Active; 'I' for Inactive)
REMARK    1  A    between atoms: C_1  and  C_2
REMARK    2  A    between atoms: C_6  and  C_8
REMARK    3  A    between atoms: C_8  and  C_9
REMARK    4  A    between atoms: C_9  and  C_10
REMARK                            x       y       z     vdW  Elec       q    Type
REMARK                         _______ _______ _______ _____ _____    ______ ____
ROOT
ATOM      1  C   UNL     1       2.452   1.652  -2.737  0.00  0.00    +0.000 C 
ENDROOT
BRANCH   1   7
ATOM      2  C   UNL     1       3.994   0.419   1.418  0.00  0.00    +0.000 C 
ATOM      3  C   UNL     1       2.751  -0.159   0.734  0.00  0.00    +0.000 C 
ATOM      4  C   UNL     1       3.030  -1.545   0.125  0.00  0.00    +0.000 C 
ATOM      5  C   UNL     1       3.700  -1.490  -1.218  0.00  0.00    +0.000 C 
ATOM      6  C   UNL     1       3.764  -0.378  -1.965  0.00  0.00    +0.000 C 
ATOM      7  C   UNL     1       3.141   0.936  -1.556  0.00  0.00    +0.000 C 
ATOM      8  C   UNL     1       2.197   0.788  -0.343  0.00  0.00    +0.000 C 
ENDBRANCH   1   7
BRANCH   1   9
ATOM      9  C   UNL     1       1.336   0.856  -3.426  0.00  0.00    +0.000 C 
BRANCH   9  10
ATOM     10  C   UNL     1       0.734   1.636  -4.571  0.00  0.00    +0.000 A 
ATOM     11  C   UNL     1       1.263   1.524  -5.864  0.00  0.00    +0.000 A 
ATOM     12  C   UNL     1       0.716   2.258  -6.917  0.00  0.00    +0.000 A 
ATOM     13  C   UNL     1      -0.359   3.114  -6.688  0.00  0.00    +0.000 A 
ATOM     14  C   UNL     1      -0.888   3.238  -5.405  0.00  0.00    +0.000 A 
ATOM     15  C   UNL     1      -0.344   2.505  -4.350  0.00  0.00    +0.000 A 
ENDBRANCH   9  10
ENDBRANCH   1   9
TORSDOF 3
