REMARK  Name = *****
REMARK  5 active torsions:
REMARK  status: ('A' for Active; 'I' for Inactive)
REMARK    1  A    between atoms: C_1  and  P_2
REMARK    2  A    between atoms: P_2  and  N_4
REMARK    3  A    between atoms: P_2  and  O_12
REMARK    4  A    between atoms: N_4  and  C_5
REMARK    5  A    between atoms: O_12  and  C_13
REMARK                            x       y       z     vdW  Elec       q    Type
REMARK                         _______ _______ _______ _____ _____    ______ ____
ROOT
ATOM      1  C   UNL     1       0.926  -0.052  -0.044  0.00  0.00    +0.000 C 
ATOM      2  P   UNL     1       2.756  -0.052  -0.044  0.00  0.00    +0.000 P 
ATOM      3  O   UNL     1       2.702   1.057   1.019  0.00  0.00    +0.000 OA
ENDROOT
BRANCH   2   4
ATOM      4  N   UNL     1       2.649  -1.607   0.579  0.00  0.00    +0.000 N 
ATOM      5  H   UNL     1       2.416  -1.698   1.531  0.00  0.00    +0.000 HD
BRANCH   4   6
ATOM      6  C   UNL     1       2.866  -2.789  -0.151  0.00  0.00    +0.000 A 
ATOM      7  C   UNL     1       2.941  -2.810  -1.548  0.00  0.00    +0.000 A 
ATOM      8  C   UNL     1       3.074  -4.020  -2.239  0.00  0.00    +0.000 A 
ATOM      9  C   UNL     1       3.108  -5.221  -1.537  0.00  0.00    +0.000 A 
ATOM     10  C   UNL     1       3.004  -5.223  -0.150  0.00  0.00    +0.000 A 
ATOM     11  C   UNL     1       2.874  -4.012   0.536  0.00  0.00    +0.000 A 
ATOM     12 CL   UNL     1       3.264  -6.707  -2.388  0.00  0.00    +0.000 Cl
ENDBRANCH   4   6
ENDBRANCH   2   4
BRANCH   2  13
ATOM     13  O   UNL     1       4.487  -0.052  -0.044  0.00  0.00    +0.000 OA
BRANCH  13  14
ATOM     14  C   UNL     1       5.131   0.685  -1.001  0.00  0.00    +0.000 A 
ATOM     15  C   UNL     1       4.693   1.944  -1.404  0.00  0.00    +0.000 A 
ATOM     16  C   UNL     1       5.404   2.642  -2.382  0.00  0.00    +0.000 A 
ATOM     17  C   UNL     1       6.551   2.083  -2.946  0.00  0.00    +0.000 A 
ATOM     18  C   UNL     1       6.996   0.830  -2.525  0.00  0.00    +0.000 A 
ATOM     19  C   UNL     1       6.288   0.133  -1.547  0.00  0.00    +0.000 A 
ENDBRANCH  13  14
ENDBRANCH   2  13
TORSDOF 4
