REMARK  Name = *****
REMARK  3 active torsions:
REMARK  status: ('A' for Active; 'I' for Inactive)
REMARK    1  A    between atoms: C_7  and  O_8
REMARK    2  A    between atoms: O_8  and  C_9
REMARK    3  A    between atoms: C_9  and  C_10
REMARK                            x       y       z     vdW  Elec       q    Type
REMARK                         _______ _______ _______ _____ _____    ______ ____
ROOT
ATOM      1  O   UNL     1       2.955  -0.030  -1.033  0.00  0.00    +0.000 OA
ENDROOT
BRANCH   1   8
ATOM      2  C   UNL     1      -1.489  -0.817  -0.349  0.00  0.00    +0.000 C 
ATOM      3  C   UNL     1      -1.616   0.589   0.233  0.00  0.00    +0.000 C 
ATOM      4  C   UNL     1      -0.419   1.455  -0.151  0.00  0.00    +0.000 C 
ATOM      5  C   UNL     1       0.890   0.776   0.121  0.00  0.00    +0.000 C 
ATOM      6  C   UNL     1       0.964  -0.724   0.274  0.00  0.00    +0.000 C 
ATOM      7  C   UNL     1      -0.286  -1.549   0.243  0.00  0.00    +0.000 C 
ATOM      8  C   UNL     1       1.516  -0.073  -0.965  0.00  0.00    +0.000 C 
ENDBRANCH   1   8
BRANCH   1   9
ATOM      9  C   UNL     1       3.435   0.928  -1.976  0.00  0.00    +0.000 C 
BRANCH   9  10
ATOM     10  C   UNL     1       4.943   0.964  -1.961  0.00  0.00    +0.000 A 
ATOM     11  C   UNL     1       5.690  -0.223  -1.943  0.00  0.00    +0.000 A 
ATOM     12  C   UNL     1       7.085  -0.186  -1.965  0.00  0.00    +0.000 A 
ATOM     13  C   UNL     1       7.750   1.038  -2.014  0.00  0.00    +0.000 A 
ATOM     14  C   UNL     1       7.019   2.224  -2.044  0.00  0.00    +0.000 A 
ATOM     15  C   UNL     1       5.624   2.188  -2.022  0.00  0.00    +0.000 A 
ENDBRANCH   9  10
ENDBRANCH   1   9
TORSDOF 3
