REMARK  Name = *****
REMARK  2 active torsions:
REMARK  status: ('A' for Active; 'I' for Inactive)
REMARK    1  A    between atoms: C_5  and  C_7
REMARK    2  A    between atoms: C_8  and  C_9
REMARK                            x       y       z     vdW  Elec       q    Type
REMARK                         _______ _______ _______ _____ _____    ______ ____
ROOT
ATOM      1  C   UNL     1      -1.212  -2.506   0.034  0.00  0.00    +0.000 C 
ATOM      2  C   UNL     1      -0.630  -3.717   0.022  0.00  0.00    +0.000 C 
ENDROOT
BRANCH   2   3
ATOM      3  C   UNL     1      -1.367  -4.987   0.051  0.00  0.00    +0.000 A 
ATOM      4  C   UNL     1      -0.832  -6.061   0.774  0.00  0.00    +0.000 A 
ATOM      5  C   UNL     1      -1.487  -7.298   0.806  0.00  0.00    +0.000 A 
ATOM      6  C   UNL     1      -2.682  -7.473   0.102  0.00  0.00    +0.000 A 
ATOM      7  C   UNL     1      -3.212  -6.412  -0.636  0.00  0.00    +0.000 A 
ATOM      8  C   UNL     1      -2.555  -5.178  -0.665  0.00  0.00    +0.000 A 
ATOM      9 CL   UNL     1      -3.546  -8.969   0.094  0.00  0.00    +0.000 Cl
ATOM     10 CL   UNL     1      -0.765  -8.566   1.733  0.00  0.00    +0.000 Cl
ENDBRANCH   2   3
BRANCH   1  15
ATOM     11  C   UNL     1      -0.409   1.159   0.022  0.00  0.00    +0.000 A 
ATOM     12  C   UNL     1       0.978   1.099  -0.009  0.00  0.00    +0.000 A 
ATOM     13  C   UNL     1       1.576  -0.149  -0.024  0.00  0.00    +0.000 A 
ATOM     14  N   UNL     1       0.889  -1.313  -0.011  0.00  0.00    +0.000 NA
ATOM     15  C   UNL     1      -0.462  -1.240   0.019  0.00  0.00    +0.000 A 
ATOM     16  C   UNL     1      -1.143  -0.025   0.037  0.00  0.00    +0.000 A 
ENDBRANCH   1  15
TORSDOF 2
