REMARK  Name = *****
REMARK  3 active torsions:
REMARK  status: ('A' for Active; 'I' for Inactive)
REMARK    1  A    between atoms: C_6  and  O_8
REMARK    2  A    between atoms: O_8  and  C_9
REMARK    3  A    between atoms: C_9  and  C_11
REMARK                            x       y       z     vdW  Elec       q    Type
REMARK                         _______ _______ _______ _____ _____    ______ ____
ROOT
ATOM      1  O   UNL     1       2.541  -1.218  -0.703  0.00  0.00    +0.000 OA
ENDROOT
BRANCH   1   7
ATOM      2  C   UNL     1      -0.470  -1.463  -0.018  0.00  0.00    +0.000 C 
ATOM      3  C   UNL     1      -1.529  -0.563  -0.583  0.00  0.00    +0.000 C 
ATOM      4  C   UNL     1      -1.250   0.738  -0.450  0.00  0.00    +0.000 C 
ATOM      5  C   UNL     1       0.052   0.912   0.221  0.00  0.00    +0.000 C 
ATOM      6  C   UNL     1       0.504  -0.501   0.675  0.00  0.00    +0.000 C 
ATOM      7  C   UNL     1       1.910  -0.192   0.090  0.00  0.00    +0.000 C 
ATOM      8  C   UNL     1       1.283   0.970  -0.709  0.00  0.00    +0.000 C 
ENDBRANCH   1   7
BRANCH   1   9
ATOM      9  C   UNL     1       3.024  -2.271   0.004  0.00  0.00    +0.000 C 
ATOM     10  O   UNL     1       2.963  -2.401   1.217  0.00  0.00    +0.000 OA
BRANCH   9  11
ATOM     11  C   UNL     1       3.650  -3.270  -0.903  0.00  0.00    +0.000 A 
ATOM     12  C   UNL     1       4.249  -4.400  -0.329  0.00  0.00    +0.000 A 
ATOM     13  C   UNL     1       4.848  -5.368  -1.137  0.00  0.00    +0.000 A 
ATOM     14  C   UNL     1       4.851  -5.213  -2.523  0.00  0.00    +0.000 A 
ATOM     15  C   UNL     1       4.256  -4.093  -3.103  0.00  0.00    +0.000 A 
ATOM     16  C   UNL     1       3.656  -3.122  -2.297  0.00  0.00    +0.000 A 
ENDBRANCH   9  11
ENDBRANCH   1   9
TORSDOF 3
