REMARK  Name = *****
REMARK  3 active torsions:
REMARK  status: ('A' for Active; 'I' for Inactive)
REMARK    1  A    between atoms: C_1  and  C_2
REMARK    2  A    between atoms: C_5  and  N_8
REMARK    3  A    between atoms: C_9  and  C_10
REMARK                            x       y       z     vdW  Elec       q    Type
REMARK                         _______ _______ _______ _____ _____    ______ ____
ROOT
ATOM      1  C   UNL     1       2.421   0.005  -0.194  0.00  0.00    +0.000 C 
ATOM      2  C   UNL     1       0.931   0.066  -0.026  0.00  0.00    +0.000 A 
ATOM      3  C   UNL     1       0.330   1.184   0.564  0.00  0.00    +0.000 A 
ATOM      4  C   UNL     1      -1.054   1.224   0.754  0.00  0.00    +0.000 A 
ATOM      5  C   UNL     1      -1.854   0.151   0.357  0.00  0.00    +0.000 A 
ATOM      6  C   UNL     1      -1.253  -0.978  -0.202  0.00  0.00    +0.000 A 
ATOM      7  C   UNL     1       0.131  -1.022  -0.393  0.00  0.00    +0.000 A 
ENDROOT
BRANCH   5   8
ATOM      8  N   UNL     1      -3.241   0.186   0.555  0.00  0.00    +0.000 NA
ATOM      9  C   UNL     1      -3.928   0.739  -0.395  0.00  0.00    +0.000 C 
BRANCH   9  10
ATOM     10  C   UNL     1      -5.364   0.834  -0.302  0.00  0.00    +0.000 A 
ATOM     11  C   UNL     1      -6.200   0.392   0.704  0.00  0.00    +0.000 A 
ATOM     12  C   UNL     1      -7.570   0.672   0.431  0.00  0.00    +0.000 A 
ATOM     13  C   UNL     1      -7.732   1.318  -0.775  0.00  0.00    +0.000 A 
ATOM     14  S   UNL     1      -6.238   1.582  -1.567  0.00  0.00    +0.000 S 
ENDBRANCH   9  10
ENDBRANCH   5   8
TORSDOF 2
