REMARK  Name = *****
REMARK  3 active torsions:
REMARK  status: ('A' for Active; 'I' for Inactive)
REMARK    1  A    between atoms: C_4  and  S_7
REMARK    2  A    between atoms: S_7  and  C_8
REMARK    3  A    between atoms: C_8  and  C_9
REMARK                            x       y       z     vdW  Elec       q    Type
REMARK                         _______ _______ _______ _____ _____    ______ ____
ROOT
ATOM      1  S   UNL     1       2.878  -0.815  -1.056  0.00  0.00    +0.000 S 
ENDROOT
BRANCH   1   5
ATOM      2  C   UNL     1      -1.462   0.402   0.044  0.00  0.00    +0.000 C 
ATOM      3  C   UNL     1      -1.072  -1.058   0.253  0.00  0.00    +0.000 C 
ATOM      4  C   UNL     1       0.221  -1.411  -0.482  0.00  0.00    +0.000 C 
ATOM      5  C   UNL     1       1.363  -0.467  -0.087  0.00  0.00    +0.000 C 
ATOM      6  C   UNL     1       0.966   0.999  -0.312  0.00  0.00    +0.000 C 
ATOM      7  C   UNL     1      -0.326   1.345   0.428  0.00  0.00    +0.000 C 
ENDBRANCH   1   5
BRANCH   1   8
ATOM      8  C   UNL     1       3.394  -2.374  -0.270  0.00  0.00    +0.000 C 
BRANCH   8   9
ATOM      9  C   UNL     1       4.736  -2.832  -0.782  0.00  0.00    +0.000 A 
ATOM     10  C   UNL     1       5.918  -2.437  -0.139  0.00  0.00    +0.000 A 
ATOM     11  C   UNL     1       7.161  -2.858  -0.618  0.00  0.00    +0.000 A 
ATOM     12  C   UNL     1       7.235  -3.671  -1.747  0.00  0.00    +0.000 A 
ATOM     13  C   UNL     1       6.068  -4.060  -2.402  0.00  0.00    +0.000 A 
ATOM     14  C   UNL     1       4.825  -3.641  -1.925  0.00  0.00    +0.000 A 
ENDBRANCH   8   9
ENDBRANCH   1   8
TORSDOF 3
