REMARK  Name = *****
REMARK  4 active torsions:
REMARK  status: ('A' for Active; 'I' for Inactive)
REMARK    1  A    between atoms: C_1  and  C_2
REMARK    2  A    between atoms: C_7  and  C_8
REMARK    3  A    between atoms: C_8  and  O_10
REMARK    4  A    between atoms: O_10  and  C_11
REMARK                            x       y       z     vdW  Elec       q    Type
REMARK                         _______ _______ _______ _____ _____    ______ ____
ROOT
ATOM      1  C   UNL     1       1.274  -2.217  -0.446  0.00  0.00    +0.000 C 
ATOM      2  O   UNL     1       0.937  -3.355  -0.153  0.00  0.00    +0.000 OA
ENDROOT
BRANCH   1   9
ATOM      3  C   UNL     1       2.495   0.494   0.351  0.00  0.00    +0.000 C 
ATOM      4  C   UNL     1       1.017   0.236   0.258  0.00  0.00    +0.000 A 
ATOM      5  C   UNL     1       0.137   1.297   0.537  0.00  0.00    +0.000 A 
ATOM      6  C   UNL     1      -1.246   1.115   0.504  0.00  0.00    +0.000 A 
ATOM      7  C   UNL     1      -1.778  -0.131   0.192  0.00  0.00    +0.000 A 
ATOM      8  C   UNL     1      -0.923  -1.193  -0.103  0.00  0.00    +0.000 A 
ATOM      9  C   UNL     1       0.472  -1.016  -0.091  0.00  0.00    +0.000 A 
ENDBRANCH   1   9
BRANCH   1  10
ATOM     10  O   UNL     1       2.331  -1.845  -1.254  0.00  0.00    +0.000 OA
BRANCH  10  11
ATOM     11  C   UNL     1       3.033  -2.952  -1.748  0.00  0.00    +0.000 A 
ATOM     12  C   UNL     1       4.107  -3.509  -1.042  0.00  0.00    +0.000 A 
ATOM     13  C   UNL     1       4.786  -4.597  -1.605  0.00  0.00    +0.000 A 
ATOM     14  C   UNL     1       4.399  -5.100  -2.855  0.00  0.00    +0.000 A 
ATOM     15  C   UNL     1       3.339  -4.519  -3.554  0.00  0.00    +0.000 A 
ATOM     16  C   UNL     1       2.657  -3.437  -3.004  0.00  0.00    +0.000 A 
ATOM     17 CL   UNL     1       6.122  -5.366  -0.820  0.00  0.00    +0.000 Cl
ATOM     18 CL   UNL     1       4.581  -2.837   0.481  0.00  0.00    +0.000 Cl
ENDBRANCH  10  11
ENDBRANCH   1  10
TORSDOF 3
