REMARK  Name = *****
REMARK  3 active torsions:
REMARK  status: ('A' for Active; 'I' for Inactive)
REMARK    1  A    between atoms: C_4  and  C_7
REMARK    2  A    between atoms: C_7  and  N_9
REMARK    3  A    between atoms: N_9  and  C_10
REMARK                            x       y       z     vdW  Elec       q    Type
REMARK                         _______ _______ _______ _____ _____    ______ ____
ROOT
ATOM      1  C   UNL     1       2.709  -0.948  -0.398  0.00  0.00    +0.000 C 
ATOM      2  S   UNL     1       3.884  -1.332   0.737  0.00  0.00    +0.000 S 
ENDROOT
BRANCH   1   6
ATOM      3  C   UNL     1      -1.415   0.573  -0.197  0.00  0.00    +0.000 C 
ATOM      4  C   UNL     1      -1.166  -0.900   0.114  0.00  0.00    +0.000 C 
ATOM      5  C   UNL     1       0.192  -1.364  -0.410  0.00  0.00    +0.000 C 
ATOM      6  C   UNL     1       1.330  -0.479   0.125  0.00  0.00    +0.000 C 
ATOM      7  C   UNL     1       1.075   1.002  -0.200  0.00  0.00    +0.000 C 
ATOM      8  C   UNL     1      -0.286   1.459   0.322  0.00  0.00    +0.000 C 
ENDBRANCH   1   6
BRANCH   1   9
ATOM      9  N   UNL     1       2.810  -0.935  -1.782  0.00  0.00    +0.000 N 
ATOM     10  H   UNL     1       2.040  -0.519  -2.232  0.00  0.00    +0.000 HD
BRANCH   9  11
ATOM     11  C   UNL     1       3.805  -1.403  -2.674  0.00  0.00    +0.000 A 
ATOM     12  C   UNL     1       4.853  -2.260  -2.342  0.00  0.00    +0.000 A 
ATOM     13  C   UNL     1       5.771  -2.678  -3.314  0.00  0.00    +0.000 A 
ATOM     14  C   UNL     1       5.645  -2.250  -4.632  0.00  0.00    +0.000 A 
ATOM     15  C   UNL     1       4.595  -1.411  -4.984  0.00  0.00    +0.000 A 
ATOM     16  C   UNL     1       3.679  -0.997  -4.012  0.00  0.00    +0.000 A 
ENDBRANCH   9  11
ENDBRANCH   1   9
TORSDOF 3
