REMARK  Name = *****
REMARK  2 active torsions:
REMARK  status: ('A' for Active; 'I' for Inactive)
REMARK    1  A    between atoms: N_8  and  C_11
REMARK    2  A    between atoms: C_11  and  C_12
REMARK                            x       y       z     vdW  Elec       q    Type
REMARK                         _______ _______ _______ _____ _____    ______ ____
ROOT
ATOM      1  C   UNL     1       1.939   1.394   0.029  0.00  0.00    +0.000 A 
ATOM      2  C   UNL     1       2.385   0.075   0.182  0.00  0.00    +0.000 A 
ATOM      3  C   UNL     1       1.483  -0.987   0.092  0.00  0.00    +0.000 A 
ATOM      4  C   UNL     1       0.141  -0.712  -0.150  0.00  0.00    +0.000 A 
ATOM      5  C   UNL     1      -0.298   0.593  -0.292  0.00  0.00    +0.000 A 
ATOM      6  C   UNL     1       0.588   1.658  -0.209  0.00  0.00    +0.000 A 
ATOM      7  S   UNL     1      -2.037   0.682  -0.551  0.00  0.00    +0.000 S 
ATOM      8  N   UNL     1      -2.396  -0.877  -0.049  0.00  0.00    +0.000 NA
ATOM      9  S   UNL     1      -1.131  -1.954  -0.337  0.00  0.00    +0.000 S 
ATOM     10  O   UNL     1      -0.891  -2.937   0.770  0.00  0.00    +0.000 OA
ENDROOT
BRANCH   8  11
ATOM     11  C   UNL     1      -3.238  -1.119   1.134  0.00  0.00    +0.000 C 
BRANCH  11  12
ATOM     12  C   UNL     1      -4.613  -0.511   1.015  0.00  0.00    +0.000 A 
ATOM     13  C   UNL     1      -5.100   0.633   1.618  0.00  0.00    +0.000 A 
ATOM     14  C   UNL     1      -6.457   0.893   1.274  0.00  0.00    +0.000 A 
ATOM     15  C   UNL     1      -6.965  -0.063   0.424  0.00  0.00    +0.000 A 
ATOM     16  S   UNL     1      -5.811  -1.267   0.047  0.00  0.00    +0.000 S 
ENDBRANCH  11  12
ENDBRANCH   8  11
TORSDOF 2
