REMARK  Name = *****
REMARK  1 active torsions:
REMARK  status: ('A' for Active; 'I' for Inactive)
REMARK    1  A    between atoms: C_9  and  C_11
REMARK                            x       y       z     vdW  Elec       q    Type
REMARK                         _______ _______ _______ _____ _____    ______ ____
ROOT
ATOM      1  C   UNL     1      -2.094   0.675   0.063  0.00  0.00    +0.000 A 
ATOM      2  C   UNL     1      -0.900   1.406   0.032  0.00  0.00    +0.000 A 
ATOM      3  C   UNL     1       0.263   0.648  -0.009  0.00  0.00    +0.000 A 
ATOM      4  C   UNL     1       0.306  -0.736  -0.021  0.00  0.00    +0.000 A 
ATOM      5  C   UNL     1      -0.893  -1.457   0.010  0.00  0.00    +0.000 A 
ATOM      6  C   UNL     1      -2.088  -0.726   0.052  0.00  0.00    +0.000 A 
ATOM      7 CL   UNL     1      -3.588  -1.574   0.090  0.00  0.00    +0.000 Cl
ATOM      8  N   UNL     1       1.611  -1.158  -0.064  0.00  0.00    +0.000 NA
ATOM      9  C   UNL     1       2.308  -0.035  -0.077  0.00  0.00    +0.000 A 
ATOM     10  O   UNL     1       1.547   1.104  -0.045  0.00  0.00    +0.000 OA
ENDROOT
BRANCH   9  11
ATOM     11  C   UNL     1       3.757   0.126  -0.123  0.00  0.00    +0.000 A 
ATOM     12  C   UNL     1       4.567  -1.024  -0.161  0.00  0.00    +0.000 A 
ATOM     13  C   UNL     1       5.955  -0.909  -0.206  0.00  0.00    +0.000 A 
ATOM     14  C   UNL     1       6.562   0.338  -0.216  0.00  0.00    +0.000 A 
ATOM     15  C   UNL     1       5.777   1.479  -0.179  0.00  0.00    +0.000 A 
ATOM     16  C   UNL     1       4.388   1.378  -0.133  0.00  0.00    +0.000 A 
ATOM     17  F   UNL     1       3.671   2.511  -0.098  0.00  0.00    +0.000 F 
ATOM     18  F   UNL     1       6.356   2.689  -0.187  0.00  0.00    +0.000 F 
ATOM     19  F   UNL     1       7.897   0.438  -0.260  0.00  0.00    +0.000 F 
ATOM     20  F   UNL     1       6.702  -2.021  -0.242  0.00  0.00    +0.000 F 
ENDBRANCH   9  11
TORSDOF 1
