REMARK  Name = *****
REMARK  4 active torsions:
REMARK  status: ('A' for Active; 'I' for Inactive)
REMARK    1  A    between atoms: C_4  and  O_7
REMARK    2  A    between atoms: O_7  and  C_8
REMARK    3  A    between atoms: C_8  and  C_9
REMARK    4  A    between atoms: C_12  and  S_15
REMARK                            x       y       z     vdW  Elec       q    Type
REMARK                         _______ _______ _______ _____ _____    ______ ____
ROOT
ATOM      1  C   UNL     1       4.462  -2.307  -0.661  0.00  0.00    +0.000 A 
ATOM      2  C   UNL     1       5.378  -3.163  -0.044  0.00  0.00    +0.000 A 
ATOM      3  C   UNL     1       6.606  -3.467  -0.628  0.00  0.00    +0.000 A 
ATOM      4  C   UNL     1       6.940  -2.912  -1.862  0.00  0.00    +0.000 A 
ATOM      5  C   UNL     1       6.029  -2.069  -2.505  0.00  0.00    +0.000 A 
ATOM      6  C   UNL     1       4.797  -1.771  -1.911  0.00  0.00    +0.000 A 
ATOM      7  F   UNL     1       5.075  -3.717   1.139  0.00  0.00    +0.000 F 
ENDROOT
BRANCH   4   8
ATOM      8  S   UNL     1       8.494  -3.290  -2.641  0.00  0.00    +0.000 S 
ATOM      9  H   UNL     1       9.212  -4.122  -1.839  0.00  0.00    +0.000 HD
ENDBRANCH   4   8
BRANCH   1  10
ATOM     10  C   UNL     1       3.137  -2.048   0.009  0.00  0.00    +0.000 C 
BRANCH  10  11
ATOM     11  O   UNL     1       2.502  -0.898  -0.551  0.00  0.00    +0.000 OA
BRANCH  11  15
ATOM     12  C   UNL     1      -1.489   0.473  -0.116  0.00  0.00    +0.000 C 
ATOM     13  C   UNL     1      -1.201  -0.975   0.267  0.00  0.00    +0.000 C 
ATOM     14  C   UNL     1       0.135  -1.453  -0.293  0.00  0.00    +0.000 C 
ATOM     15  C   UNL     1       1.290  -0.531   0.115  0.00  0.00    +0.000 C 
ATOM     16  C   UNL     1       0.986   0.918  -0.278  0.00  0.00    +0.000 C 
ATOM     17  C   UNL     1      -0.345   1.398   0.289  0.00  0.00    +0.000 C 
ENDBRANCH  11  15
ENDBRANCH  10  11
ENDBRANCH   1  10
TORSDOF 4
