REMARK  Name = *****
REMARK  2 active torsions:
REMARK  status: ('A' for Active; 'I' for Inactive)
REMARK    1  A    between atoms: C_4  and  C_8
REMARK    2  A    between atoms: N_9  and  C_10
REMARK                            x       y       z     vdW  Elec       q    Type
REMARK                         _______ _______ _______ _____ _____    ______ ____
ROOT
ATOM      1  C   UNL     1       0.033   2.440   0.163  0.00  0.00    +0.000 C 
ATOM      2  N   UNL     1       1.078   3.159  -0.093  0.00  0.00    +0.000 NA
ENDROOT
BRANCH   1   6
ATOM      3  C   UNL     1      -0.069  -1.833  -0.015  0.00  0.00    +0.000 A 
ATOM      4  C   UNL     1      -1.194  -1.103   0.364  0.00  0.00    +0.000 A 
ATOM      5  C   UNL     1      -1.132   0.290   0.414  0.00  0.00    +0.000 A 
ATOM      6  C   UNL     1       0.041   0.970   0.090  0.00  0.00    +0.000 A 
ATOM      7  C   UNL     1       1.162   0.233  -0.287  0.00  0.00    +0.000 A 
ATOM      8  C   UNL     1       1.110  -1.161  -0.341  0.00  0.00    +0.000 A 
ATOM      9  F   UNL     1       2.320   0.825  -0.610  0.00  0.00    +0.000 F 
ATOM     10  F   UNL     1      -2.231   0.963   0.786  0.00  0.00    +0.000 F 
ENDBRANCH   1   6
BRANCH   2  11
ATOM     11  C   UNL     1       0.945   4.558  -0.005  0.00  0.00    +0.000 A 
ATOM     12  C   UNL     1      -0.014   5.290  -0.726  0.00  0.00    +0.000 A 
ATOM     13  C   UNL     1      -0.090   6.679  -0.635  0.00  0.00    +0.000 A 
ATOM     14  C   UNL     1       0.811   7.362   0.179  0.00  0.00    +0.000 A 
ATOM     15  C   UNL     1       1.773   6.645   0.884  0.00  0.00    +0.000 A 
ATOM     16  C   UNL     1       1.850   5.258   0.794  0.00  0.00    +0.000 A 
ATOM     17  F   UNL     1       2.642   7.304   1.662  0.00  0.00    +0.000 F 
ATOM     18  F   UNL     1      -0.891   4.654  -1.520  0.00  0.00    +0.000 F 
ENDBRANCH   2  11
TORSDOF 2
