REMARK  Name = *****
REMARK  3 active torsions:
REMARK  status: ('A' for Active; 'I' for Inactive)
REMARK    1  A    between atoms: C_5  and  C_7
REMARK    2  A    between atoms: C_7  and  S_9
REMARK    3  A    between atoms: S_9  and  C_10
REMARK                            x       y       z     vdW  Elec       q    Type
REMARK                         _______ _______ _______ _____ _____    ______ ____
ROOT
ATOM      1  C   UNL     1      -1.889  -1.937  -1.001  0.00  0.00    +0.000 C 
ATOM      2  O   UNL     1      -1.387  -2.431  -2.004  0.00  0.00    +0.000 OA
ENDROOT
BRANCH   1   7
ATOM      3  C   UNL     1      -0.404   1.396   0.246  0.00  0.00    +0.000 C 
ATOM      4  C   UNL     1       1.045   1.023  -0.069  0.00  0.00    +0.000 C 
ATOM      5  C   UNL     1       1.296  -0.454   0.002  0.00  0.00    +0.000 C 
ATOM      6  C   UNL     1       0.312  -1.366   0.040  0.00  0.00    +0.000 C 
ATOM      7  C   UNL     1      -1.157  -1.010  -0.024  0.00  0.00    +0.000 C 
ATOM      8  C   UNL     1      -1.388   0.452  -0.443  0.00  0.00    +0.000 C 
ENDBRANCH   1   7
BRANCH   1   9
ATOM      9  S   UNL     1      -3.567  -2.277  -0.554  0.00  0.00    +0.000 S 
BRANCH   9  10
ATOM     10  C   UNL     1      -4.435  -1.557  -1.934  0.00  0.00    +0.000 A 
ATOM     11  C   UNL     1      -4.258  -2.030  -3.238  0.00  0.00    +0.000 A 
ATOM     12  C   UNL     1      -4.967  -1.462  -4.298  0.00  0.00    +0.000 A 
ATOM     13  C   UNL     1      -5.865  -0.423  -4.061  0.00  0.00    +0.000 A 
ATOM     14  C   UNL     1      -6.057   0.046  -2.763  0.00  0.00    +0.000 A 
ATOM     15  C   UNL     1      -5.347  -0.521  -1.702  0.00  0.00    +0.000 A 
ENDBRANCH   9  10
ENDBRANCH   1   9
TORSDOF 3
