REMARK  Name = *****
REMARK  5 active torsions:
REMARK  status: ('A' for Active; 'I' for Inactive)
REMARK    1  A    between atoms: C_1  and  C_2
REMARK    2  A    between atoms: C_5  and  C_8
REMARK    3  A    between atoms: C_8  and  C_9
REMARK    4  A    between atoms: C_8  and  N_10
REMARK    5  A    between atoms: C_11  and  C_12
REMARK                            x       y       z     vdW  Elec       q    Type
REMARK                         _______ _______ _______ _____ _____    ______ ____
ROOT
ATOM      1  C   UNL     1      -3.299   0.164   0.108  0.00  0.00    +0.000 C 
ATOM      2  C   UNL     1      -3.791  -0.582   1.349  0.00  0.00    +0.000 C 
ENDROOT
BRANCH   1   7
ATOM      3  C   UNL     1       2.523  -0.203  -0.227  0.00  0.00    +0.000 C 
ATOM      4  C   UNL     1       1.030  -0.122  -0.122  0.00  0.00    +0.000 A 
ATOM      5  C   UNL     1       0.217  -0.990  -0.858  0.00  0.00    +0.000 A 
ATOM      6  C   UNL     1      -1.176  -0.892  -0.785  0.00  0.00    +0.000 A 
ATOM      7  C   UNL     1      -1.785   0.086   0.015  0.00  0.00    +0.000 A 
ATOM      8  C   UNL     1      -0.964   0.959   0.743  0.00  0.00    +0.000 A 
ATOM      9  C   UNL     1       0.428   0.862   0.670  0.00  0.00    +0.000 A 
ENDBRANCH   1   7
BRANCH   1  10
ATOM     10  N   UNL     1      -3.768   1.560   0.193  0.00  0.00    +0.000 NA
ATOM     11  C   UNL     1      -4.825   1.827  -0.494  0.00  0.00    +0.000 C 
BRANCH  11  12
ATOM     12  C   UNL     1      -5.414   3.181  -0.520  0.00  0.00    +0.000 A 
ATOM     13  C   UNL     1      -4.818   4.234   0.180  0.00  0.00    +0.000 A 
ATOM     14  C   UNL     1      -5.393   5.505   0.141  0.00  0.00    +0.000 A 
ATOM     15  C   UNL     1      -6.559   5.722  -0.595  0.00  0.00    +0.000 A 
ATOM     16  C   UNL     1      -7.152   4.669  -1.294  0.00  0.00    +0.000 A 
ATOM     17  C   UNL     1      -6.581   3.396  -1.258  0.00  0.00    +0.000 A 
ENDBRANCH  11  12
ENDBRANCH   1  10
TORSDOF 3
