REMARK  Name = *****
REMARK  1 active torsions:
REMARK  status: ('A' for Active; 'I' for Inactive)
REMARK    1  A    between atoms: C_6  and  C_7
REMARK                            x       y       z     vdW  Elec       q    Type
REMARK                         _______ _______ _______ _____ _____    ______ ____
ROOT
ATOM      1  C   UNL     1       4.078   0.623   0.428  0.00  0.00    +0.000 A 
ATOM      2  N   UNL     1       4.845   1.386   1.188  0.00  0.00    +0.000 NA
ATOM      3  C   UNL     1       6.099   1.218   0.662  0.00  0.00    +0.000 A 
ATOM      4  C   UNL     1       6.045   0.348  -0.415  0.00  0.00    +0.000 A 
ATOM      5  O   UNL     1       4.747  -0.039  -0.572  0.00  0.00    +0.000 OA
ATOM      6  C   UNL     1       7.137  -0.041  -1.180  0.00  0.00    +0.000 A 
ATOM      7  C   UNL     1       8.362   0.512  -0.792  0.00  0.00    +0.000 A 
ATOM      8  C   UNL     1       8.468   1.394   0.291  0.00  0.00    +0.000 A 
ATOM      9  C   UNL     1       7.335   1.761   1.035  0.00  0.00    +0.000 A 
ATOM     10 CL   UNL     1       9.782   0.093  -1.675  0.00  0.00    +0.000 Cl
ENDROOT
BRANCH   1  16
ATOM     11  C   UNL     1       1.968  -0.485  -0.348  0.00  0.00    +0.000 A 
ATOM     12  C   UNL     1       0.587  -0.683  -0.239  0.00  0.00    +0.000 A 
ATOM     13  C   UNL     1      -0.137   0.001   0.734  0.00  0.00    +0.000 A 
ATOM     14  C   UNL     1       0.507   0.881   1.599  0.00  0.00    +0.000 A 
ATOM     15  C   UNL     1       1.887   1.077   1.489  0.00  0.00    +0.000 A 
ATOM     16  C   UNL     1       2.636   0.398   0.515  0.00  0.00    +0.000 A 
ATOM     17 CL   UNL     1      -1.834  -0.244   0.868  0.00  0.00    +0.000 Cl
ENDBRANCH   1  16
TORSDOF 1
