REMARK  Name = *****
REMARK  2 active torsions:
REMARK  status: ('A' for Active; 'I' for Inactive)
REMARK    1  A    between atoms: C_4  and  C_7
REMARK    2  A    between atoms: C_8  and  C_9
REMARK                            x       y       z     vdW  Elec       q    Type
REMARK                         _______ _______ _______ _____ _____    ______ ____
ROOT
ATOM      1  C   UNL     1      -2.757   0.731  -0.411  0.00  0.00    +0.000 C 
ATOM      2  C   UNL     1      -3.335   1.892  -0.040  0.00  0.00    +0.000 C 
ATOM      3  I   UNL     1      -2.338   3.435   0.961  0.00  0.00    +0.000 I 
ATOM      4  F   UNL     1      -3.522  -0.225  -0.995  0.00  0.00    +0.000 F 
ENDROOT
BRANCH   1   8
ATOM      5  C   UNL     1       1.305  -0.446   0.168  0.00  0.00    +0.000 A 
ATOM      6  C   UNL     1       0.283  -1.068   0.884  0.00  0.00    +0.000 A 
ATOM      7  C   UNL     1      -1.043  -0.676   0.692  0.00  0.00    +0.000 A 
ATOM      8  C   UNL     1      -1.355   0.348  -0.211  0.00  0.00    +0.000 A 
ATOM      9  C   UNL     1      -0.323   0.956  -0.939  0.00  0.00    +0.000 A 
ATOM     10  C   UNL     1       1.003   0.563  -0.745  0.00  0.00    +0.000 A 
ENDBRANCH   1   8
BRANCH   2  11
ATOM     11  C   UNL     1      -4.772   2.089  -0.324  0.00  0.00    +0.000 A 
ATOM     12  C   UNL     1      -5.720   1.983   0.703  0.00  0.00    +0.000 A 
ATOM     13  C   UNL     1      -7.077   2.171   0.432  0.00  0.00    +0.000 A 
ATOM     14  C   UNL     1      -7.496   2.463  -0.865  0.00  0.00    +0.000 A 
ATOM     15  C   UNL     1      -6.561   2.567  -1.894  0.00  0.00    +0.000 A 
ATOM     16  C   UNL     1      -5.203   2.380  -1.626  0.00  0.00    +0.000 A 
ENDBRANCH   2  11
TORSDOF 2
