REMARK  Name = *****
REMARK  3 active torsions:
REMARK  status: ('A' for Active; 'I' for Inactive)
REMARK    1  A    between atoms: N_2  and  C_3
REMARK    2  A    between atoms: C_6  and  C_9
REMARK    3  A    between atoms: N_10  and  C_11
REMARK                            x       y       z     vdW  Elec       q    Type
REMARK                         _______ _______ _______ _____ _____    ______ ____
ROOT
ATOM      1  C   UNL     1      -0.467   0.018  -0.045  0.00  0.00    +0.000 A 
ATOM      2  C   UNL     1       0.167  -1.216   0.093  0.00  0.00    +0.000 A 
ATOM      3  C   UNL     1       1.562  -1.263   0.110  0.00  0.00    +0.000 A 
ATOM      4  C   UNL     1       2.303  -0.081  -0.018  0.00  0.00    +0.000 A 
ATOM      5  C   UNL     1       1.655   1.152  -0.161  0.00  0.00    +0.000 A 
ATOM      6  C   UNL     1       0.259   1.203  -0.170  0.00  0.00    +0.000 A 
ENDROOT
BRANCH   1   8
ATOM      7  C   UNL     1      -3.025   0.115  -0.068  0.00  0.00    +0.000 C 
ATOM      8  N   UNL     1      -1.854   0.069  -0.057  0.00  0.00    +0.000 NA
ENDBRANCH   1   8
BRANCH   4   9
ATOM      9  C   UNL     1       3.779  -0.115  -0.006  0.00  0.00    +0.000 C 
ATOM     10  N   UNL     1       4.429  -1.198   0.277  0.00  0.00    +0.000 NA
BRANCH  10  11
ATOM     11  C   UNL     1       5.832  -1.140   0.265  0.00  0.00    +0.000 A 
ATOM     12  C   UNL     1       6.553  -0.225   1.041  0.00  0.00    +0.000 A 
ATOM     13  C   UNL     1       7.950  -0.222   1.021  0.00  0.00    +0.000 A 
ATOM     14  C   UNL     1       8.638  -1.148   0.238  0.00  0.00    +0.000 A 
ATOM     15  C   UNL     1       7.930  -2.078  -0.520  0.00  0.00    +0.000 A 
ATOM     16  C   UNL     1       6.533  -2.073  -0.502  0.00  0.00    +0.000 A 
ENDBRANCH  10  11
ENDBRANCH   4   9
TORSDOF 3
