REMARK  Name = *****
REMARK  4 active torsions:
REMARK  status: ('A' for Active; 'I' for Inactive)
REMARK    1  A    between atoms: C_4  and  C_7
REMARK    2  A    between atoms: C_7  and  O_9
REMARK    3  A    between atoms: O_9  and  C_10
REMARK    4  A    between atoms: C_10  and  C_11
REMARK                            x       y       z     vdW  Elec       q    Type
REMARK                         _______ _______ _______ _____ _____    ______ ____
ROOT
ATOM      1  C   UNL     1       0.802  -2.853  -0.185  0.00  0.00    +0.000 C 
ATOM      2  O   UNL     1       1.715  -3.270  -0.881  0.00  0.00    +0.000 OA
ENDROOT
BRANCH   1   6
ATOM      3  C   UNL     1      -0.212   1.345   0.377  0.00  0.00    +0.000 C 
ATOM      4  C   UNL     1      -1.370   0.366   0.217  0.00  0.00    +0.000 C 
ATOM      5  C   UNL     1      -0.930  -1.069   0.525  0.00  0.00    +0.000 C 
ATOM      6  C   UNL     1       0.396  -1.423  -0.093  0.00  0.00    +0.000 C 
ATOM      7  C   UNL     1       1.232  -0.493  -0.593  0.00  0.00    +0.000 C 
ATOM      8  C   UNL     1       0.951   0.980  -0.547  0.00  0.00    +0.000 C 
ENDBRANCH   1   6
BRANCH   1   9
ATOM      9  O   UNL     1       0.019  -3.604   0.625  0.00  0.00    +0.000 OA
BRANCH   9  10
ATOM     10  C   UNL     1       0.350  -4.995   0.617  0.00  0.00    +0.000 C 
BRANCH  10  11
ATOM     11  C   UNL     1      -0.502  -5.687   1.651  0.00  0.00    +0.000 A 
ATOM     12  C   UNL     1      -1.893  -5.762   1.487  0.00  0.00    +0.000 A 
ATOM     13  C   UNL     1      -2.686  -6.400   2.443  0.00  0.00    +0.000 A 
ATOM     14  C   UNL     1      -2.097  -6.966   3.572  0.00  0.00    +0.000 A 
ATOM     15  C   UNL     1      -0.716  -6.895   3.747  0.00  0.00    +0.000 A 
ATOM     16  C   UNL     1       0.078  -6.257   2.792  0.00  0.00    +0.000 A 
ENDBRANCH  10  11
ENDBRANCH   9  10
ENDBRANCH   1   9
TORSDOF 4
