REMARK  Name = *****
REMARK  4 active torsions:
REMARK  status: ('A' for Active; 'I' for Inactive)
REMARK    1  A    between atoms: C_4  and  C_7
REMARK    2  A    between atoms: C_7  and  O_8
REMARK    3  A    between atoms: O_8  and  C_9
REMARK    4  A    between atoms: C_13  and  C_15
REMARK                            x       y       z     vdW  Elec       q    Type
REMARK                         _______ _______ _______ _____ _____    ______ ____
ROOT
ATOM      1  C   UNL     1      -4.959  -0.683  -0.246  0.00  0.00    +0.000 A 
ATOM      2  C   UNL     1      -5.714   0.457  -0.517  0.00  0.00    +0.000 A 
ATOM      3  C   UNL     1      -7.100   0.361  -0.662  0.00  0.00    +0.000 A 
ATOM      4  C   UNL     1      -7.740  -0.874  -0.537  0.00  0.00    +0.000 A 
ATOM      5  C   UNL     1      -6.994  -2.027  -0.264  0.00  0.00    +0.000 A 
ATOM      6  C   UNL     1      -5.602  -1.918  -0.120  0.00  0.00    +0.000 A 
ENDROOT
BRANCH   5   7
ATOM      7  C   UNL     1      -7.634  -3.376  -0.123  0.00  0.00    +0.000 C 
ATOM      8  O   UNL     1      -6.895  -4.335   0.094  0.00  0.00    +0.000 OA
ATOM      9 CL   UNL     1      -9.374  -3.535  -0.268  0.00  0.00    +0.000 Cl
ENDBRANCH   5   7
BRANCH   1  10
ATOM     10  O   UNL     1      -3.603  -0.730  -0.081  0.00  0.00    +0.000 OA
BRANCH  10  11
ATOM     11  C   UNL     1      -2.879   0.491  -0.241  0.00  0.00    +0.000 C 
BRANCH  11  15
ATOM     12  C   UNL     1       1.366  -0.206   0.146  0.00  0.00    +0.000 A 
ATOM     13  C   UNL     1       0.581  -1.089  -0.591  0.00  0.00    +0.000 A 
ATOM     14  C   UNL     1      -0.793  -0.871  -0.710  0.00  0.00    +0.000 A 
ATOM     15  C   UNL     1      -1.399   0.228  -0.083  0.00  0.00    +0.000 A 
ATOM     16  C   UNL     1      -0.595   1.116   0.646  0.00  0.00    +0.000 A 
ATOM     17  C   UNL     1       0.779   0.897   0.763  0.00  0.00    +0.000 A 
ENDBRANCH  11  15
ENDBRANCH  10  11
ENDBRANCH   1  10
TORSDOF 4
