REMARK  Name = *****
REMARK  4 active torsions:
REMARK  status: ('A' for Active; 'I' for Inactive)
REMARK    1  A    between atoms: C_4  and  C_7
REMARK    2  A    between atoms: C_7  and  C_8
REMARK    3  A    between atoms: C_8  and  N_10
REMARK    4  A    between atoms: N_10  and  C_11
REMARK                            x       y       z     vdW  Elec       q    Type
REMARK                         _______ _______ _______ _____ _____    ______ ____
ROOT
ATOM      1  C   UNL     1      -3.546  -1.006  -0.352  0.00  0.00    +0.000 C 
ATOM      2  S   UNL     1      -2.337  -2.016  -0.930  0.00  0.00    +0.000 S 
ENDROOT
BRANCH   1   3
ATOM      3  N   UNL     1      -4.899  -1.275  -0.160  0.00  0.00    +0.000 N 
ATOM      4  H   UNL     1      -5.436  -0.475   0.044  0.00  0.00    +0.000 HD
BRANCH   3   5
ATOM      5  C   UNL     1      -5.652  -2.471  -0.200  0.00  0.00    +0.000 A 
ATOM      6  C   UNL     1      -5.126  -3.762  -0.216  0.00  0.00    +0.000 A 
ATOM      7  C   UNL     1      -5.971  -4.879  -0.238  0.00  0.00    +0.000 A 
ATOM      8  C   UNL     1      -7.353  -4.718  -0.235  0.00  0.00    +0.000 A 
ATOM      9  C   UNL     1      -7.894  -3.438  -0.201  0.00  0.00    +0.000 A 
ATOM     10  C   UNL     1      -7.049  -2.325  -0.178  0.00  0.00    +0.000 A 
ENDBRANCH   3   5
ENDBRANCH   1   3
BRANCH   1  11
ATOM     11  C   UNL     1      -3.191   0.453  -0.031  0.00  0.00    +0.000 C 
BRANCH  11  15
ATOM     12  C   UNL     1      -1.521   1.033   3.912  0.00  0.00    +0.000 A 
ATOM     13  C   UNL     1      -2.800   0.500   3.772  0.00  0.00    +0.000 A 
ATOM     14  C   UNL     1      -3.344   0.306   2.500  0.00  0.00    +0.000 A 
ATOM     15  C   UNL     1      -2.609   0.640   1.353  0.00  0.00    +0.000 A 
ATOM     16  C   UNL     1      -1.323   1.178   1.508  0.00  0.00    +0.000 A 
ATOM     17  C   UNL     1      -0.783   1.373   2.781  0.00  0.00    +0.000 A 
ENDBRANCH  11  15
ENDBRANCH   1  11
TORSDOF 4
