REMARK  Name = *****
REMARK  2 active torsions:
REMARK  status: ('A' for Active; 'I' for Inactive)
REMARK    1  A    between atoms: C_3  and  N_8
REMARK    2  A    between atoms: C_9  and  C_11
REMARK                            x       y       z     vdW  Elec       q    Type
REMARK                         _______ _______ _______ _____ _____    ______ ____
ROOT
ATOM      1  N   UNL     1       2.078   2.665   0.033  0.00  0.00    +0.000 N 
ATOM      2  C   UNL     1       1.474   3.900  -0.121  0.00  0.00    +0.000 C 
ATOM      3  O   UNL     1       0.276   4.126  -0.232  0.00  0.00    +0.000 OA
ATOM      4  H   UNL     1       3.052   2.669   0.177  0.00  0.00    +0.000 HD
ENDROOT
BRANCH   1   7
ATOM      5  C   UNL     1      -0.446  -0.085  -0.298  0.00  0.00    +0.000 A 
ATOM      6  C   UNL     1       0.100   1.203  -0.282  0.00  0.00    +0.000 A 
ATOM      7  C   UNL     1       1.453   1.399   0.005  0.00  0.00    +0.000 A 
ATOM      8  C   UNL     1       2.256   0.283   0.271  0.00  0.00    +0.000 A 
ATOM      9  C   UNL     1       1.707  -1.000   0.254  0.00  0.00    +0.000 A 
ATOM     10  C   UNL     1       0.358  -1.190  -0.029  0.00  0.00    +0.000 A 
ATOM     11 CL   UNL     1       2.709  -2.360   0.585  0.00  0.00    +0.000 Cl
ENDBRANCH   1   7
BRANCH   2  12
ATOM     12  C   UNL     1       2.409   5.062  -0.099  0.00  0.00    +0.000 A 
ATOM     13  C   UNL     1       3.683   4.994  -0.684  0.00  0.00    +0.000 A 
ATOM     14  C   UNL     1       4.524   6.109  -0.646  0.00  0.00    +0.000 A 
ATOM     15  C   UNL     1       4.088   7.281  -0.036  0.00  0.00    +0.000 A 
ATOM     16  C   UNL     1       2.822   7.366   0.532  0.00  0.00    +0.000 A 
ATOM     17  C   UNL     1       1.976   6.256   0.496  0.00  0.00    +0.000 A 
ATOM     18  F   UNL     1       4.899   8.346  -0.004  0.00  0.00    +0.000 F 
ENDBRANCH   2  12
TORSDOF 2
