REMARK  Name = *****
REMARK  1 active torsions:
REMARK  status: ('A' for Active; 'I' for Inactive)
REMARK    1  A    between atoms: C_5  and  C_7
REMARK                            x       y       z     vdW  Elec       q    Type
REMARK                         _______ _______ _______ _____ _____    ______ ____
ROOT
ATOM      1  C   UNL     1       0.885  -2.497  -0.065  0.00  0.00    +0.000 A 
ATOM      2  N   UNL     1       0.756  -3.427  -0.998  0.00  0.00    +0.000 NA
ATOM      3  C   UNL     1       1.607  -4.423  -0.590  0.00  0.00    +0.000 A 
ATOM      4  C   UNL     1       1.916  -5.664  -1.159  0.00  0.00    +0.000 A 
ATOM      5  C   UNL     1       2.845  -6.482  -0.497  0.00  0.00    +0.000 A 
ATOM      6  C   UNL     1       3.448  -6.072   0.699  0.00  0.00    +0.000 A 
ATOM      7  C   UNL     1       3.148  -4.833   1.280  0.00  0.00    +0.000 A 
ATOM      8  C   UNL     1       2.225  -4.055   0.592  0.00  0.00    +0.000 A 
ATOM      9  O   UNL     1       1.765  -2.820   0.937  0.00  0.00    +0.000 OA
ENDROOT
BRANCH   1  14
ATOM     10  C   UNL     1      -1.369   0.388  -0.940  0.00  0.00    +0.000 A 
ATOM     11  C   UNL     1      -1.115   1.285   0.095  0.00  0.00    +0.000 A 
ATOM     12  C   UNL     1      -0.201   0.947   1.091  0.00  0.00    +0.000 A 
ATOM     13  C   UNL     1       0.455  -0.285   1.049  0.00  0.00    +0.000 A 
ATOM     14  C   UNL     1       0.217  -1.202   0.020  0.00  0.00    +0.000 A 
ATOM     15  C   UNL     1      -0.709  -0.844  -0.977  0.00  0.00    +0.000 A 
ATOM     16  F   UNL     1       1.325  -0.555   2.034  0.00  0.00    +0.000 F 
ENDBRANCH   1  14
TORSDOF 1
