REMARK  Name = *****
REMARK  6 active torsions:
REMARK  status: ('A' for Active; 'I' for Inactive)
REMARK    1  A    between atoms: C_1  and  C_2
REMARK    2  A    between atoms: C_5  and  C_8
REMARK    3  A    between atoms: C_8  and  C_9
REMARK    4  A    between atoms: C_9  and  C_10
REMARK    5  A    between atoms: C_9  and  C_13
REMARK    6  A    between atoms: C_10  and  C_11
REMARK                            x       y       z     vdW  Elec       q    Type
REMARK                         _______ _______ _______ _____ _____    ______ ____
ROOT
ATOM      1  C   UNL     1      -3.487   1.109  -0.125  0.00  0.00    +0.000 C 
ENDROOT
BRANCH   1   2
ATOM      2  C   UNL     1      -2.519   2.289  -0.120  0.00  0.00    +0.000 A 
ATOM      3  C   UNL     1      -1.554   2.457  -1.126  0.00  0.00    +0.000 A 
ATOM      4  C   UNL     1      -0.673   3.540  -1.092  0.00  0.00    +0.000 A 
ATOM      5  C   UNL     1      -0.745   4.468  -0.056  0.00  0.00    +0.000 A 
ATOM      6  C   UNL     1      -1.700   4.316   0.947  0.00  0.00    +0.000 A 
ATOM      7  C   UNL     1      -2.583   3.235   0.915  0.00  0.00    +0.000 A 
ENDBRANCH   1   2
BRANCH   1   8
ATOM      8  C   UNL     1      -4.396   1.182  -1.375  0.00  0.00    +0.000 C 
BRANCH   8  13
ATOM      9  C   UNL     1      -8.917  -2.494  -1.232  0.00  0.00    +0.000 C 
ATOM     10  C   UNL     1      -7.743  -1.562  -1.253  0.00  0.00    +0.000 A 
ATOM     11  C   UNL     1      -7.708  -0.447  -0.409  0.00  0.00    +0.000 A 
ATOM     12  C   UNL     1      -6.629   0.439  -0.449  0.00  0.00    +0.000 A 
ATOM     13  C   UNL     1      -5.568   0.229  -1.338  0.00  0.00    +0.000 A 
ATOM     14  C   UNL     1      -5.614  -0.876  -2.197  0.00  0.00    +0.000 A 
ATOM     15  C   UNL     1      -6.694  -1.761  -2.157  0.00  0.00    +0.000 A 
ENDBRANCH   8  13
ENDBRANCH   1   8
BRANCH   1  16
ATOM     16  C   UNL     1      -2.744  -0.235  -0.029  0.00  0.00    +0.000 C 
BRANCH  16  17
ATOM     17  C   UNL     1      -2.010  -0.356   1.283  0.00  0.00    +0.000 C 
ATOM     18  O   UNL     1      -2.267  -1.216   2.121  0.00  0.00    +0.000 OA
ENDBRANCH  16  17
ENDBRANCH   1  16
TORSDOF 5
