REMARK  Name = *****
REMARK  3 active torsions:
REMARK  status: ('A' for Active; 'I' for Inactive)
REMARK    1  A    between atoms: C_1  and  C_2
REMARK    2  A    between atoms: C_5  and  C_7
REMARK    3  A    between atoms: C_8  and  C_9
REMARK                            x       y       z     vdW  Elec       q    Type
REMARK                         _______ _______ _______ _____ _____    ______ ____
ROOT
ATOM      1  C   UNL     1      -2.405   1.665  -0.019  0.00  0.00    +0.000 C 
ATOM      2  C   UNL     1      -3.710   1.357   0.041  0.00  0.00    +0.000 C 
ENDROOT
BRANCH   1   7
ATOM      3  C   UNL     1      -0.609  -2.851   0.252  0.00  0.00    +0.000 C 
ATOM      4  C   UNL     1      -0.509  -1.383   0.143  0.00  0.00    +0.000 A 
ATOM      5  C   UNL     1       0.545  -0.507   0.048  0.00  0.00    +0.000 A 
ATOM      6  C   UNL     1      -0.029   0.784  -0.027  0.00  0.00    +0.000 A 
ATOM      7  C   UNL     1      -1.412   0.646   0.025  0.00  0.00    +0.000 A 
ATOM      8  O   UNL     1      -1.684  -0.701   0.131  0.00  0.00    +0.000 OA
ENDBRANCH   1   7
BRANCH   2   9
ATOM      9  C   UNL     1      -4.738   2.347  -0.002  0.00  0.00    +0.000 A 
ATOM     10  C   UNL     1      -4.675   3.729  -0.100  0.00  0.00    +0.000 A 
ATOM     11  C   UNL     1      -5.957   4.355  -0.113  0.00  0.00    +0.000 A 
ATOM     12  C   UNL     1      -6.975   3.437  -0.024  0.00  0.00    +0.000 A 
ATOM     13  S   UNL     1      -6.388   1.838   0.075  0.00  0.00    +0.000 S 
ENDBRANCH   2   9
TORSDOF 2
