REMARK  Name = *****
REMARK  4 active torsions:
REMARK  status: ('A' for Active; 'I' for Inactive)
REMARK    1  A    between atoms: C_4  and  C_7
REMARK    2  A    between atoms: C_7  and  N_8
REMARK    3  A    between atoms: N_8  and  C_9
REMARK    4  A    between atoms: C_9  and  C_10
REMARK                            x       y       z     vdW  Elec       q    Type
REMARK                         _______ _______ _______ _____ _____    ______ ____
ROOT
ATOM      1  C   UNL     1      -2.984   0.500   0.085  0.00  0.00    +0.000 C 
ENDROOT
BRANCH   1   5
ATOM      2  C   UNL     1       1.254  -0.287  -0.126  0.00  0.00    +0.000 A 
ATOM      3  C   UNL     1       0.634   0.459  -1.128  0.00  0.00    +0.000 A 
ATOM      4  C   UNL     1      -0.737   0.714  -1.064  0.00  0.00    +0.000 A 
ATOM      5  C   UNL     1      -1.502   0.220   0.002  0.00  0.00    +0.000 A 
ATOM      6  C   UNL     1      -0.867  -0.525   1.005  0.00  0.00    +0.000 A 
ATOM      7  C   UNL     1       0.504  -0.778   0.940  0.00  0.00    +0.000 A 
ENDBRANCH   1   5
BRANCH   1   8
ATOM      8  N   UNL     1      -3.794  -0.715   0.250  0.00  0.00    +0.000 NA
BRANCH   8   9
ATOM      9  C   UNL     1      -3.970  -1.368  -0.849  0.00  0.00    +0.000 C 
BRANCH   9  10
ATOM     10  C   UNL     1      -4.743  -2.585  -0.862  0.00  0.00    +0.000 A 
ATOM     11  C   UNL     1      -5.351  -3.240   0.190  0.00  0.00    +0.000 A 
ATOM     12  C   UNL     1      -6.030  -4.421  -0.227  0.00  0.00    +0.000 A 
ATOM     13  C   UNL     1      -5.918  -4.626  -1.584  0.00  0.00    +0.000 A 
ATOM     14  S   UNL     1      -4.995  -3.401  -2.344  0.00  0.00    +0.000 S 
ENDBRANCH   9  10
ENDBRANCH   8   9
ENDBRANCH   1   8
TORSDOF 4
