REMARK  Name = *****
REMARK  3 active torsions:
REMARK  status: ('A' for Active; 'I' for Inactive)
REMARK    1  A    between atoms: C_4  and  C_7
REMARK    2  A    between atoms: C_7  and  S_8
REMARK    3  A    between atoms: S_8  and  C_9
REMARK                            x       y       z     vdW  Elec       q    Type
REMARK                         _______ _______ _______ _____ _____    ______ ____
ROOT
ATOM      1  S   UNL     1      -3.781  -1.204  -0.362  0.00  0.00    +0.000 S 
ENDROOT
BRANCH   1   2
ATOM      2  C   UNL     1      -5.459  -0.614  -0.468  0.00  0.00    +0.000 A 
ATOM      3  N   UNL     1      -5.685   0.718  -0.410  0.00  0.00    +0.000 NA
ATOM      4  C   UNL     1      -6.975   1.132  -0.491  0.00  0.00    +0.000 A 
ATOM      5  C   UNL     1      -8.054   0.275  -0.626  0.00  0.00    +0.000 A 
ATOM      6  C   UNL     1      -7.805  -1.089  -0.685  0.00  0.00    +0.000 A 
ATOM      7  C   UNL     1      -6.487  -1.543  -0.604  0.00  0.00    +0.000 A 
ATOM      8 CL   UNL     1      -9.657   0.878  -0.720  0.00  0.00    +0.000 Cl
ENDBRANCH   1   2
BRANCH   1   9
ATOM      9  C   UNL     1      -2.890   0.376  -0.186  0.00  0.00    +0.000 C 
BRANCH   9  13
ATOM     10  C   UNL     1       1.358  -0.266   0.226  0.00  0.00    +0.000 A 
ATOM     11  C   UNL     1       0.799  -0.096  -1.039  0.00  0.00    +0.000 A 
ATOM     12  C   UNL     1      -0.575   0.111  -1.174  0.00  0.00    +0.000 A 
ATOM     13  C   UNL     1      -1.403   0.155  -0.043  0.00  0.00    +0.000 A 
ATOM     14  C   UNL     1      -0.829  -0.029   1.224  0.00  0.00    +0.000 A 
ATOM     15  C   UNL     1       0.545  -0.235   1.357  0.00  0.00    +0.000 A 
ENDBRANCH   9  13
ENDBRANCH   1   9
TORSDOF 3
