REMARK  Name = *****
REMARK  4 active torsions:
REMARK  status: ('A' for Active; 'I' for Inactive)
REMARK    1  A    between atoms: C_1  and  O_2
REMARK    2  A    between atoms: O_2  and  C_3
REMARK    3  A    between atoms: C_6  and  C_9
REMARK    4  A    between atoms: C_10  and  C_11
REMARK                            x       y       z     vdW  Elec       q    Type
REMARK                         _______ _______ _______ _____ _____    ______ ____
ROOT
ATOM      1  C   UNL     1       3.176  -0.569  -1.070  0.00  0.00    +0.000 A 
ATOM      2  C   UNL     1       2.447  -1.179  -2.090  0.00  0.00    +0.000 A 
ATOM      3  C   UNL     1       3.081  -2.053  -2.984  0.00  0.00    +0.000 A 
ATOM      4  C   UNL     1       4.452  -2.318  -2.876  0.00  0.00    +0.000 A 
ATOM      5  C   UNL     1       5.173  -1.716  -1.841  0.00  0.00    +0.000 A 
ATOM      6  C   UNL     1       4.539  -0.844  -0.950  0.00  0.00    +0.000 A 
ENDROOT
BRANCH   1   8
ATOM      7  C   UNL     1       1.300   0.618  -0.221  0.00  0.00    +0.000 C 
ATOM      8  O   UNL     1       2.683   0.299  -0.136  0.00  0.00    +0.000 OA
ENDBRANCH   1   8
BRANCH   4   9
ATOM      9  C   UNL     1       5.140  -3.255  -3.777  0.00  0.00    +0.000 C 
ATOM     10  C   UNL     1       4.935  -3.289  -5.104  0.00  0.00    +0.000 C 
BRANCH  10  11
ATOM     11  C   UNL     1       5.588  -4.181  -6.060  0.00  0.00    +0.000 C 
ATOM     12  C   UNL     1       5.400  -3.966  -7.377  0.00  0.00    +0.000 C 
ATOM     13  C   UNL     1       6.043  -4.744  -8.409  0.00  0.00    +0.000 C 
ATOM     14  C   UNL     1       6.600  -5.944  -8.211  0.00  0.00    +0.000 C 
ATOM     15  S   UNL     1       6.616  -6.727  -6.673  0.00  0.00    +0.000 S 
ATOM     16  C   UNL     1       6.461  -5.307  -5.545  0.00  0.00    +0.000 C 
ENDBRANCH  10  11
ENDBRANCH   4   9
TORSDOF 3
