REMARK  Name = *****
REMARK  2 active torsions:
REMARK  status: ('A' for Active; 'I' for Inactive)
REMARK    1  A    between atoms: C_5  and  C_6
REMARK    2  A    between atoms: C_7  and  C_8
REMARK                            x       y       z     vdW  Elec       q    Type
REMARK                         _______ _______ _______ _____ _____    ______ ____
ROOT
ATOM      1  C   UNL     1      -0.774   2.574   0.006  0.00  0.00    +0.000 C 
ATOM      2  C   UNL     1      -1.136   3.719   0.009  0.00  0.00    +0.000 C 
ENDROOT
BRANCH   1   7
ATOM      3  C   UNL     1      -1.206   0.081   0.002  0.00  0.00    +0.000 A 
ATOM      4  C   UNL     1      -0.505  -1.106   0.000  0.00  0.00    +0.000 A 
ATOM      5  S   UNL     1       1.188  -0.852   0.001  0.00  0.00    +0.000 S 
ATOM      6  C   UNL     1       0.987   0.849   0.003  0.00  0.00    +0.000 A 
ATOM      7  C   UNL     1      -0.341   1.213   0.004  0.00  0.00    +0.000 A 
ENDBRANCH   1   7
BRANCH   2   8
ATOM      8  C   UNL     1      -1.562   5.084   0.011  0.00  0.00    +0.000 A 
ATOM      9  C   UNL     1      -2.887   5.457   0.043  0.00  0.00    +0.000 A 
ATOM     10  S   UNL     1      -3.075   7.159   0.038  0.00  0.00    +0.000 S 
ATOM     11  C   UNL     1      -1.381   7.401  -0.007  0.00  0.00    +0.000 A 
ATOM     12  C   UNL     1      -0.689   6.209  -0.018  0.00  0.00    +0.000 A 
ENDBRANCH   2   8
TORSDOF 2
