REMARK  Name = *****
REMARK  6 active torsions:
REMARK  status: ('A' for Active; 'I' for Inactive)
REMARK    1  A    between atoms: C_1  and  O_2
REMARK    2  A    between atoms: O_2  and  C_3
REMARK    3  A    between atoms: C_5  and  O_18
REMARK    4  A    between atoms: C_7  and  C_9
REMARK    5  A    between atoms: C_10  and  C_11
REMARK    6  A    between atoms: O_18  and  C_19
REMARK                            x       y       z     vdW  Elec       q    Type
REMARK                         _______ _______ _______ _____ _____    ______ ____
ROOT
ATOM      1  C   UNL     1       3.115   0.417   1.002  0.00  0.00    +0.000 A 
ATOM      2  C   UNL     1       2.568   0.192   2.268  0.00  0.00    +0.000 A 
ATOM      3  C   UNL     1       3.302   0.512   3.413  0.00  0.00    +0.000 A 
ATOM      4  C   UNL     1       4.586   1.052   3.285  0.00  0.00    +0.000 A 
ATOM      5  C   UNL     1       5.157   1.266   2.026  0.00  0.00    +0.000 A 
ATOM      6  C   UNL     1       4.402   0.955   0.890  0.00  0.00    +0.000 A 
ENDROOT
BRANCH   1   8
ATOM      7  C   UNL     1       1.189  -0.377  -0.151  0.00  0.00    +0.000 C 
ATOM      8  O   UNL     1       2.505   0.159  -0.196  0.00  0.00    +0.000 OA
ENDBRANCH   1   8
BRANCH   5   9
ATOM      9  C   UNL     1       6.491   1.860   1.853  0.00  0.00    +0.000 C 
ATOM     10  C   UNL     1       7.529   1.626   2.672  0.00  0.00    +0.000 C 
BRANCH  10  11
ATOM     11  C   UNL     1       8.866   2.208   2.486  0.00  0.00    +0.000 A 
ATOM     12  C   UNL     1       9.053   3.528   2.052  0.00  0.00    +0.000 A 
ATOM     13  C   UNL     1      10.340   4.057   1.917  0.00  0.00    +0.000 A 
ATOM     14  C   UNL     1      11.448   3.271   2.225  0.00  0.00    +0.000 A 
ATOM     15  C   UNL     1      11.279   1.964   2.673  0.00  0.00    +0.000 A 
ATOM     16  C   UNL     1       9.991   1.437   2.808  0.00  0.00    +0.000 A 
ATOM     17 CL   UNL     1      13.032   3.922   2.060  0.00  0.00    +0.000 Cl
ENDBRANCH  10  11
ENDBRANCH   5   9
BRANCH   3  18
ATOM     18  O   UNL     1       2.883   0.352   4.707  0.00  0.00    +0.000 OA
ATOM     19  C   UNL     1       1.589  -0.201   4.907  0.00  0.00    +0.000 C 
ENDBRANCH   3  18
TORSDOF 4
