REMARK  Name = *****
REMARK  6 active torsions:
REMARK  status: ('A' for Active; 'I' for Inactive)
REMARK    1  A    between atoms: C_1  and  C_2
REMARK    2  A    between atoms: C_5  and  O_8
REMARK    3  A    between atoms: O_8  and  C_9
REMARK    4  A    between atoms: C_9  and  C_11
REMARK    5  A    between atoms: C_13  and  C_18
REMARK    6  A    between atoms: C_14  and  C_17
REMARK                            x       y       z     vdW  Elec       q    Type
REMARK                         _______ _______ _______ _____ _____    ______ ____
ROOT
ATOM      1  C   UNL     1      -3.759   1.639   0.076  0.00  0.00    +0.000 C 
ATOM      2  O   UNL     1      -3.137   2.579  -0.396  0.00  0.00    +0.000 OA
ENDROOT
BRANCH   1   3
ATOM      3  C   UNL     1      -5.243   1.524  -0.007  0.00  0.00    +0.000 A 
ATOM      4  C   UNL     1      -5.933   2.446  -0.807  0.00  0.00    +0.000 A 
ATOM      5  C   UNL     1      -7.332   2.396  -0.930  0.00  0.00    +0.000 A 
ATOM      6  C   UNL     1      -8.049   1.395  -0.243  0.00  0.00    +0.000 A 
ATOM      7  C   UNL     1      -7.353   0.484   0.566  0.00  0.00    +0.000 A 
ATOM      8  C   UNL     1      -5.963   0.546   0.685  0.00  0.00    +0.000 A 
ATOM      9  C   UNL     1      -9.548   1.298  -0.337  0.00  0.00    +0.000 C 
ATOM     10  C   UNL     1      -8.029   3.400  -1.807  0.00  0.00    +0.000 C 
ENDBRANCH   1   3
BRANCH   1  11
ATOM     11  O   UNL     1      -3.251   0.531   0.716  0.00  0.00    +0.000 OA
BRANCH  11  16
ATOM     12  C   UNL     1       2.270   0.219   1.755  0.00  0.00    +0.000 C 
ATOM     13  C   UNL     1       0.814   0.296   1.424  0.00  0.00    +0.000 A 
ATOM     14  C   UNL     1      -0.156   0.224   2.419  0.00  0.00    +0.000 A 
ATOM     15  N   UNL     1      -1.486   0.317   2.194  0.00  0.00    +0.000 NA
ATOM     16  C   UNL     1      -1.867   0.533   0.918  0.00  0.00    +0.000 A 
ATOM     17  C   UNL     1      -0.985   0.601  -0.152  0.00  0.00    +0.000 A 
ATOM     18  C   UNL     1       0.378   0.498   0.113  0.00  0.00    +0.000 A 
ENDBRANCH  11  16
ENDBRANCH   1  11
TORSDOF 3
