REMARK  Name = *****
REMARK  3 active torsions:
REMARK  status: ('A' for Active; 'I' for Inactive)
REMARK    1  A    between atoms: C_4  and  O_7
REMARK    2  A    between atoms: O_7  and  C_8
REMARK    3  A    between atoms: C_8  and  C_10
REMARK                            x       y       z     vdW  Elec       q    Type
REMARK                         _______ _______ _______ _____ _____    ______ ____
ROOT
ATOM      1  C   UNL     1      -3.632  -0.764  -0.309  0.00  0.00    +0.000 C 
ATOM      2  O   UNL     1      -3.327  -1.935  -0.144  0.00  0.00    +0.000 OA
ENDROOT
BRANCH   1   3
ATOM      3  C   UNL     1      -5.022  -0.323  -0.616  0.00  0.00    +0.000 A 
ATOM      4  C   UNL     1      -5.392   1.029  -0.681  0.00  0.00    +0.000 A 
ATOM      5  C   UNL     1      -6.715   1.382  -0.971  0.00  0.00    +0.000 A 
ATOM      6  C   UNL     1      -7.668   0.390  -1.196  0.00  0.00    +0.000 A 
ATOM      7  C   UNL     1      -7.312  -0.956  -1.132  0.00  0.00    +0.000 A 
ATOM      8  C   UNL     1      -5.992  -1.312  -0.841  0.00  0.00    +0.000 A 
ATOM      9 CL   UNL     1      -9.291   0.830  -1.552  0.00  0.00    +0.000 Cl
ENDBRANCH   1   3
BRANCH   1  10
ATOM     10  O   UNL     1      -2.797   0.339  -0.255  0.00  0.00    +0.000 OA
BRANCH  10  14
ATOM     11  C   UNL     1       1.294  -0.100   0.485  0.00  0.00    +0.000 A 
ATOM     12  C   UNL     1       0.693  -0.900  -0.489  0.00  0.00    +0.000 A 
ATOM     13  C   UNL     1      -0.673  -0.782  -0.746  0.00  0.00    +0.000 A 
ATOM     14  C   UNL     1      -1.430   0.127  -0.007  0.00  0.00    +0.000 A 
ATOM     15  C   UNL     1      -0.834   0.944   0.953  0.00  0.00    +0.000 A 
ATOM     16  C   UNL     1       0.532   0.824   1.203  0.00  0.00    +0.000 A 
ENDBRANCH  10  14
ENDBRANCH   1  10
TORSDOF 3
