REMARK  Name = *****
REMARK  4 active torsions:
REMARK  status: ('A' for Active; 'I' for Inactive)
REMARK    1  A    between atoms: C_1  and  C_2
REMARK    2  A    between atoms: C_5  and  C_8
REMARK    3  A    between atoms: C_10  and  C_11
REMARK    4  A    between atoms: C_14  and  C_17
REMARK                            x       y       z     vdW  Elec       q    Type
REMARK                         _______ _______ _______ _____ _____    ______ ____
ROOT
ATOM      1  C   UNL     1      -3.181  -0.082  -0.631  0.00  0.00    +0.000 C 
ATOM      2  C   UNL     1      -4.317   0.862  -0.929  0.00  0.00    +0.000 C 
ATOM      3  C   UNL     1      -3.405   1.149   0.236  0.00  0.00    +0.000 C 
ENDROOT
BRANCH   1   8
ATOM      4  C   UNL     1      -4.250  -5.415   1.522  0.00  0.00    +0.000 C 
ATOM      5  C   UNL     1      -3.955  -4.058   0.956  0.00  0.00    +0.000 A 
ATOM      6  C   UNL     1      -4.560  -3.636  -0.230  0.00  0.00    +0.000 A 
ATOM      7  C   UNL     1      -4.308  -2.357  -0.737  0.00  0.00    +0.000 A 
ATOM      8  C   UNL     1      -3.463  -1.456  -0.070  0.00  0.00    +0.000 A 
ATOM      9  C   UNL     1      -2.868  -1.896   1.123  0.00  0.00    +0.000 A 
ATOM     10  C   UNL     1      -3.115  -3.173   1.636  0.00  0.00    +0.000 A 
ENDBRANCH   1   8
BRANCH   3  11
ATOM     11  C   UNL     1      -2.431   2.301   0.172  0.00  0.00    +0.000 A 
ATOM     12  C   UNL     1      -2.869   3.614  -0.062  0.00  0.00    +0.000 A 
ATOM     13  C   UNL     1      -1.973   4.687  -0.107  0.00  0.00    +0.000 A 
ATOM     14  C   UNL     1      -0.605   4.475   0.078  0.00  0.00    +0.000 A 
ATOM     15  C   UNL     1      -0.154   3.178   0.337  0.00  0.00    +0.000 A 
ATOM     16  C   UNL     1      -1.056   2.110   0.381  0.00  0.00    +0.000 A 
ATOM     17  C   UNL     1       0.356   5.626   0.066  0.00  0.00    +0.000 C 
ENDBRANCH   3  11
TORSDOF 2
