REMARK  Name = *****
REMARK  7 active torsions:
REMARK  status: ('A' for Active; 'I' for Inactive)
REMARK    1  A    between atoms: C_1  and  C_2
REMARK    2  A    between atoms: C_4  and  C_11
REMARK    3  A    between atoms: C_5  and  C_8
REMARK    4  A    between atoms: C_8  and  C_10
REMARK    5  A    between atoms: C_11  and  C_12
REMARK    6  A    between atoms: C_12  and  C_13
REMARK    7  A    between atoms: C_18  and  C_19
REMARK                            x       y       z     vdW  Elec       q    Type
REMARK                         _______ _______ _______ _____ _____    ______ ____
ROOT
ATOM      1  C   UNL     1       2.117  -1.095  -0.583  0.00  0.00    +0.000 C 
ATOM      2  C   UNL     1       0.650  -0.781  -0.541  0.00  0.00    +0.000 A 
ATOM      3  C   UNL     1       0.217   0.532  -0.293  0.00  0.00    +0.000 A 
ATOM      4  C   UNL     1      -1.148   0.861  -0.203  0.00  0.00    +0.000 A 
ATOM      5  C   UNL     1      -2.085  -0.184  -0.375  0.00  0.00    +0.000 A 
ATOM      6  C   UNL     1      -1.655  -1.501  -0.603  0.00  0.00    +0.000 A 
ATOM      7  C   UNL     1      -0.295  -1.797  -0.680  0.00  0.00    +0.000 A 
ENDROOT
BRANCH   5   8
ATOM      8  C   UNL     1      -3.555   0.060  -0.313  0.00  0.00    +0.000 C 
ATOM      9  O   UNL     1      -4.038   0.763   0.569  0.00  0.00    +0.000 OA
ATOM     10  C   UNL     1      -4.424  -0.609  -1.348  0.00  0.00    +0.000 C 
ENDBRANCH   5   8
BRANCH   4  11
ATOM     11  C   UNL     1      -1.616   2.286   0.047  0.00  0.00    +0.000 C 
BRANCH  11  12
ATOM     12  C   UNL     1      -0.573   3.421   0.099  0.00  0.00    +0.000 C 
BRANCH  12  13
ATOM     13  C   UNL     1       0.373   3.500   1.288  0.00  0.00    +0.000 A 
ATOM     14  C   UNL     1       0.102   2.824   2.491  0.00  0.00    +0.000 A 
ATOM     15  C   UNL     1       0.971   2.906   3.580  0.00  0.00    +0.000 A 
ATOM     16  C   UNL     1       2.126   3.673   3.494  0.00  0.00    +0.000 A 
ATOM     17  C   UNL     1       2.407   4.368   2.320  0.00  0.00    +0.000 A 
ATOM     18  C   UNL     1       1.537   4.303   1.217  0.00  0.00    +0.000 A 
ATOM     19  C   UNL     1       1.894   5.077  -0.024  0.00  0.00    +0.000 C 
ENDBRANCH  12  13
ENDBRANCH  11  12
ENDBRANCH   4  11
TORSDOF 4
