REMARK  Name = *****
REMARK  3 active torsions:
REMARK  status: ('A' for Active; 'I' for Inactive)
REMARK    1  A    between atoms: C_1  and  C_2
REMARK    2  A    between atoms: C_6  and  C_8
REMARK    3  A    between atoms: C_9  and  C_10
REMARK                            x       y       z     vdW  Elec       q    Type
REMARK                         _______ _______ _______ _____ _____    ______ ____
ROOT
ATOM      1  C   UNL     1      -1.495  -2.527  -0.298  0.00  0.00    +0.000 C 
ATOM      2  C   UNL     1      -2.753  -2.980  -0.168  0.00  0.00    +0.000 C 
ENDROOT
BRANCH   1   8
ATOM      3  C   UNL     1       1.833  -0.888   2.633  0.00  0.00    +0.000 C 
ATOM      4  C   UNL     1       0.688  -0.415   1.749  0.00  0.00    +0.000 C 
ATOM      5  C   UNL     1       1.171   0.615   0.725  0.00  0.00    +0.000 C 
ATOM      6  C   UNL     1       0.045   0.994  -0.231  0.00  0.00    +0.000 C 
ATOM      7  C   UNL     1      -0.594  -0.257  -0.828  0.00  0.00    +0.000 C 
ATOM      8  C   UNL     1      -0.990  -1.237   0.280  0.00  0.00    +0.000 C 
ATOM      9  O   UNL     1       0.150  -1.560   1.081  0.00  0.00    +0.000 OA
ENDBRANCH   1   8
BRANCH   2  10
ATOM     10  C   UNL     1      -3.238  -4.288  -0.745  0.00  0.00    +0.000 C 
ATOM     11  C   UNL     1      -4.381  -4.041  -1.742  0.00  0.00    +0.000 C 
ATOM     12  C   UNL     1      -4.937  -5.352  -2.294  0.00  0.00    +0.000 C 
ATOM     13  C   UNL     1      -5.372  -6.295  -1.176  0.00  0.00    +0.000 C 
ATOM     14  C   UNL     1      -4.245  -6.542  -0.178  0.00  0.00    +0.000 C 
ATOM     15  C   UNL     1      -3.689  -5.233   0.379  0.00  0.00    +0.000 C 
ENDBRANCH   2  10
TORSDOF 2
