REMARK  Name = *****
REMARK  2 active torsions:
REMARK  status: ('A' for Active; 'I' for Inactive)
REMARK    1  A    between atoms: C_4  and  C_7
REMARK    2  A    between atoms: C_8  and  C_9
REMARK                            x       y       z     vdW  Elec       q    Type
REMARK                         _______ _______ _______ _____ _____    ______ ____
ROOT
ATOM      1  C   UNL     1      -0.854  -2.834  -0.035  0.00  0.00    +0.000 C 
ATOM      2  C   UNL     1      -1.191  -3.987  -0.039  0.00  0.00    +0.000 C 
ENDROOT
BRANCH   1   6
ATOM      3  C   UNL     1       0.363   1.274   0.324  0.00  0.00    +0.000 C 
ATOM      4  C   UNL     1       1.358   0.299  -0.296  0.00  0.00    +0.000 C 
ATOM      5  C   UNL     1       1.024  -1.145   0.084  0.00  0.00    +0.000 C 
ATOM      6  C   UNL     1      -0.447  -1.467  -0.027  0.00  0.00    +0.000 C 
ATOM      7  C   UNL     1      -1.379  -0.504  -0.135  0.00  0.00    +0.000 C 
ATOM      8  C   UNL     1      -1.066   0.963  -0.124  0.00  0.00    +0.000 C 
ENDBRANCH   1   6
BRANCH   2   9
ATOM      9  C   UNL     1      -1.598  -5.355  -0.042  0.00  0.00    +0.000 C 
ATOM     10  C   UNL     1      -0.670  -6.315   0.121  0.00  0.00    +0.000 C 
ATOM     11  C   UNL     1      -0.983  -7.783   0.123  0.00  0.00    +0.000 C 
ATOM     12  C   UNL     1      -2.394  -8.103  -0.372  0.00  0.00    +0.000 C 
ATOM     13  C   UNL     1      -3.412  -7.117   0.189  0.00  0.00    +0.000 C 
ATOM     14  C   UNL     1      -3.062  -5.680  -0.207  0.00  0.00    +0.000 C 
ENDBRANCH   2   9
TORSDOF 2
