REMARK  Name = *****
REMARK  7 active torsions:
REMARK  status: ('A' for Active; 'I' for Inactive)
REMARK    1  A    between atoms: C_1  and  C_2
REMARK    2  A    between atoms: C_5  and  S_8
REMARK    3  A    between atoms: S_8  and  C_9
REMARK    4  A    between atoms: C_9  and  C_10
REMARK    5  A    between atoms: C_12  and  C_16
REMARK    6  A    between atoms: C_12  and  O_17
REMARK    7  A    between atoms: O_17  and  C_18
REMARK                            x       y       z     vdW  Elec       q    Type
REMARK                         _______ _______ _______ _____ _____    ______ ____
ROOT
ATOM      1  C   UNL     1      -6.433   2.108   1.121  0.00  0.00    +0.000 C 
ENDROOT
BRANCH   1   2
ATOM      2  C   UNL     1      -5.596   2.282  -0.164  0.00  0.00    +0.000 C 
ATOM      3  C   UNL     1      -5.416   0.945  -0.924  0.00  0.00    +0.000 C 
ATOM      4  C   UNL     1      -6.631   0.545  -1.789  0.00  0.00    +0.000 C 
ATOM      5  C   UNL     1      -6.955   1.693  -2.786  0.00  0.00    +0.000 C 
ATOM      6  C   UNL     1      -6.787   3.080  -2.229  0.00  0.00    +0.000 C 
ATOM      7  C   UNL     1      -6.184   3.345  -1.062  0.00  0.00    +0.000 C 
ATOM      8  C   UNL     1      -6.317  -0.721  -2.606  0.00  0.00    +0.000 C 
BRANCH   4   9
ATOM      9  O   UNL     1      -7.809   0.358  -0.982  0.00  0.00    +0.000 OA
ATOM     10  C   UNL     1      -7.873  -0.817  -0.186  0.00  0.00    +0.000 C 
ENDBRANCH   4   9
ENDBRANCH   1   2
BRANCH   1  11
ATOM     11  S   UNL     1      -6.175   3.496   2.294  0.00  0.00    +0.000 S 
BRANCH  11  16
ATOM     12  C   UNL     1      -9.453   2.185   7.284  0.00  0.00    +0.000 C 
ATOM     13  C   UNL     1      -8.635   2.461   6.058  0.00  0.00    +0.000 A 
ATOM     14  C   UNL     1      -8.816   1.702   4.898  0.00  0.00    +0.000 A 
ATOM     15  C   UNL     1      -8.083   1.982   3.738  0.00  0.00    +0.000 A 
ATOM     16  C   UNL     1      -7.158   3.030   3.714  0.00  0.00    +0.000 A 
ATOM     17  C   UNL     1      -6.994   3.798   4.874  0.00  0.00    +0.000 A 
ATOM     18  C   UNL     1      -7.726   3.522   6.033  0.00  0.00    +0.000 A 
ENDBRANCH  11  16
ENDBRANCH   1  11
TORSDOF 4
