REMARK  Name = *****
REMARK  3 active torsions:
REMARK  status: ('A' for Active; 'I' for Inactive)
REMARK    1  A    between atoms: C_1  and  C_16
REMARK    2  A    between atoms: C_2  and  C_10
REMARK    3  A    between atoms: N_3  and  C_4
REMARK                            x       y       z     vdW  Elec       q    Type
REMARK                         _______ _______ _______ _____ _____    ______ ____
ROOT
ATOM      1  C   UNL     1       1.730  -0.343  -0.622  0.00  0.00    +0.000 C 
ATOM      2  C   UNL     1       2.824   0.363  -1.423  0.00  0.00    +0.000 C 
ATOM      3  N   UNL     1       2.193  -0.878  -1.891  0.00  0.00    +0.000 N 
ATOM      4  C   UNL     1       0.335   0.169  -0.531  0.00  0.00    +0.000 C 
ENDROOT
BRANCH   3   5
ATOM      5  C   UNL     1       2.947  -2.076  -1.905  0.00  0.00    +0.000 A 
ATOM      6  C   UNL     1       2.431  -3.249  -1.337  0.00  0.00    +0.000 A 
ATOM      7  C   UNL     1       3.154  -4.443  -1.379  0.00  0.00    +0.000 A 
ATOM      8  C   UNL     1       4.397  -4.483  -2.009  0.00  0.00    +0.000 A 
ATOM      9  C   UNL     1       4.910  -3.333  -2.604  0.00  0.00    +0.000 A 
ATOM     10  C   UNL     1       4.184  -2.140  -2.561  0.00  0.00    +0.000 A 
ENDBRANCH   3   5
BRANCH   2  11
ATOM     11  C   UNL     1       2.546   1.637  -2.179  0.00  0.00    +0.000 A 
ATOM     12  C   UNL     1       2.448   2.866  -1.503  0.00  0.00    +0.000 A 
ATOM     13  C   UNL     1       2.207   4.059  -2.189  0.00  0.00    +0.000 A 
ATOM     14  C   UNL     1       2.063   4.049  -3.573  0.00  0.00    +0.000 A 
ATOM     15  C   UNL     1       2.161   2.848  -4.269  0.00  0.00    +0.000 A 
ATOM     16  C   UNL     1       2.402   1.658  -3.577  0.00  0.00    +0.000 A 
ENDBRANCH   2  11
TORSDOF 2
