REMARK  Name = *****
REMARK  3 active torsions:
REMARK  status: ('A' for Active; 'I' for Inactive)
REMARK    1  A    between atoms: C_5  and  C_8
REMARK    2  A    between atoms: C_8  and  S_9
REMARK    3  A    between atoms: S_9  and  C_10
REMARK                            x       y       z     vdW  Elec       q    Type
REMARK                         _______ _______ _______ _____ _____    ______ ____
ROOT
ATOM      1  C   UNL     1      -2.187   2.207  -0.496  0.00  0.00    +0.000 C 
ENDROOT
BRANCH   1   6
ATOM      2  C   UNL     1       1.572  -0.543   0.115  0.00  0.00    +0.000 C 
ATOM      3  C   UNL     1       0.508  -1.540  -0.333  0.00  0.00    +0.000 C 
ATOM      4  C   UNL     1      -0.836  -1.369   0.369  0.00  0.00    +0.000 C 
ATOM      5  C   UNL     1      -1.636  -0.183  -0.079  0.00  0.00    +0.000 C 
ATOM      6  C   UNL     1      -1.246   1.107  -0.050  0.00  0.00    +0.000 C 
ATOM      7  C   UNL     1       0.122   1.551   0.421  0.00  0.00    +0.000 C 
ATOM      8  C   UNL     1       1.298   0.898  -0.304  0.00  0.00    +0.000 C 
ENDBRANCH   1   6
BRANCH   1   9
ATOM      9  S   UNL     1      -2.780   3.135   0.961  0.00  0.00    +0.000 S 
BRANCH   9  10
ATOM     10  C   UNL     1      -4.024   4.179   0.221  0.00  0.00    +0.000 A 
ATOM     11  C   UNL     1      -5.255   4.309   0.874  0.00  0.00    +0.000 A 
ATOM     12  C   UNL     1      -6.253   5.134   0.351  0.00  0.00    +0.000 A 
ATOM     13  C   UNL     1      -6.025   5.842  -0.827  0.00  0.00    +0.000 A 
ATOM     14  C   UNL     1      -4.798   5.731  -1.477  0.00  0.00    +0.000 A 
ATOM     15  C   UNL     1      -3.798   4.907  -0.952  0.00  0.00    +0.000 A 
ENDBRANCH   9  10
ENDBRANCH   1   9
TORSDOF 3
