REMARK  Name = *****
REMARK  1 active torsions:
REMARK  status: ('A' for Active; 'I' for Inactive)
REMARK    1  A    between atoms: C_4  and  C_7
REMARK                            x       y       z     vdW  Elec       q    Type
REMARK                         _______ _______ _______ _____ _____    ______ ____
ROOT
ATOM      1  C   UNL     1      -0.408   0.631   2.058  0.00  0.00    +0.000 C 
ATOM      2  C   UNL     1      -1.260   1.240   2.902  0.00  0.00    +0.000 C 
ATOM      3  S   UNL     1      -2.346   2.496   2.403  0.00  0.00    +0.000 S 
ATOM      4  C   UNL     1      -3.918   1.823   3.003  0.00  0.00    +0.000 C 
ATOM      5  C   UNL     1      -3.905   1.520   4.497  0.00  0.00    +0.000 C 
ATOM      6  C   UNL     1      -2.952   0.389   4.867  0.00  0.00    +0.000 C 
ATOM      7  S   UNL     1      -1.208   0.804   4.590  0.00  0.00    +0.000 S 
ENDROOT
BRANCH   1  11
ATOM      8  C   UNL     1       1.743  -1.444  -0.370  0.00  0.00    +0.000 C 
ATOM      9  C   UNL     1       2.314  -0.291   0.441  0.00  0.00    +0.000 C 
ATOM     10  S   UNL     1       1.464   1.284   0.148  0.00  0.00    +0.000 S 
ATOM     11  C   UNL     1      -0.246   0.858   0.583  0.00  0.00    +0.000 C 
ATOM     12  S   UNL     1      -0.894  -0.547  -0.367  0.00  0.00    +0.000 S 
ATOM     13  C   UNL     1       0.327  -1.828   0.027  0.00  0.00    +0.000 C 
ENDBRANCH   1  11
TORSDOF 1
