REMARK  Name = *****
REMARK  2 active torsions:
REMARK  status: ('A' for Active; 'I' for Inactive)
REMARK    1  A    between atoms: C_5  and  C_7
REMARK    2  A    between atoms: N_8  and  C_9
REMARK                            x       y       z     vdW  Elec       q    Type
REMARK                         _______ _______ _______ _____ _____    ______ ____
ROOT
ATOM      1  C   UNL     1      -0.658  -2.394  -0.200  0.00  0.00    +0.000 C 
ATOM      2  N   UNL     1      -1.865  -2.520   0.260  0.00  0.00    +0.000 NA
ENDROOT
BRANCH   1   7
ATOM      3  C   UNL     1       0.113   1.211   0.602  0.00  0.00    +0.000 A 
ATOM      4  C   UNL     1       1.411   1.343   0.115  0.00  0.00    +0.000 A 
ATOM      5  C   UNL     1       2.045   0.253  -0.482  0.00  0.00    +0.000 A 
ATOM      6  C   UNL     1       1.385  -0.977  -0.594  0.00  0.00    +0.000 A 
ATOM      7  C   UNL     1       0.080  -1.114  -0.104  0.00  0.00    +0.000 A 
ATOM      8  C   UNL     1      -0.551  -0.013   0.494  0.00  0.00    +0.000 A 
ATOM      9 CL   UNL     1       2.251  -2.270  -1.346  0.00  0.00    +0.000 Cl
ENDBRANCH   1   7
BRANCH   2  10
ATOM     10  C   UNL     1      -2.451  -3.785   0.108  0.00  0.00    +0.000 A 
ATOM     11  C   UNL     1      -2.257  -4.776   1.070  0.00  0.00    +0.000 A 
ATOM     12  C   UNL     1      -2.861  -6.017   0.909  0.00  0.00    +0.000 A 
ATOM     13  C   UNL     1      -3.666  -6.289  -0.192  0.00  0.00    +0.000 A 
ATOM     14  C   UNL     1      -3.877  -5.298  -1.148  0.00  0.00    +0.000 A 
ATOM     15  C   UNL     1      -3.273  -4.047  -0.993  0.00  0.00    +0.000 A 
ATOM     16  F   UNL     1      -2.666  -6.970   1.831  0.00  0.00    +0.000 F 
ENDBRANCH   2  10
TORSDOF 2
