REMARK  Name = *****
REMARK  1 active torsions:
REMARK  status: ('A' for Active; 'I' for Inactive)
REMARK    1  A    between atoms: C_1  and  C_2
REMARK                            x       y       z     vdW  Elec       q    Type
REMARK                         _______ _______ _______ _____ _____    ______ ____
ROOT
ATOM      1  C   UNL     1       1.107   0.044  -0.192  0.00  0.00    +0.000 C 
ATOM      2  C   UNL     1       2.601   0.062  -0.062  0.00  0.00    +0.000 A 
ATOM      3  C   UNL     1       3.241   1.061   0.681  0.00  0.00    +0.000 A 
ATOM      4  C   UNL     1       4.641   1.071   0.831  0.00  0.00    +0.000 A 
ATOM      5  C   UNL     1       5.410   0.043   0.260  0.00  0.00    +0.000 A 
ATOM      6  C   UNL     1       4.759  -0.967  -0.465  0.00  0.00    +0.000 A 
ATOM      7  C   UNL     1       3.372  -0.957  -0.626  0.00  0.00    +0.000 A 
ATOM      8  S   UNL     1       7.179  -0.111   0.443  0.00  0.00    +0.000 S 
ATOM      9  C   UNL     1       7.778   0.781  -0.955  0.00  0.00    +0.000 C 
ATOM     10  O   UNL     1       8.797   0.411  -1.525  0.00  0.00    +0.000 OA
ATOM     11  C   UNL     1       7.007   1.927  -1.504  0.00  0.00    +0.000 A 
ATOM     12  C   UNL     1       6.873   1.956  -2.904  0.00  0.00    +0.000 A 
ATOM     13  C   UNL     1       6.158   2.977  -3.530  0.00  0.00    +0.000 A 
ATOM     14  C   UNL     1       5.582   3.986  -2.765  0.00  0.00    +0.000 A 
ATOM     15  C   UNL     1       5.727   3.979  -1.376  0.00  0.00    +0.000 A 
ATOM     16  C   UNL     1       6.438   2.954  -0.729  0.00  0.00    +0.000 A 
ATOM     17  S   UNL     1       6.605   3.088   1.043  0.00  0.00    +0.000 S 
ATOM     18  C   UNL     1       5.196   2.201   1.620  0.00  0.00    +0.000 C 
ATOM     19  O   UNL     1       4.622   2.564   2.641  0.00  0.00    +0.000 OA
ENDROOT
TORSDOF 0
