REMARK  Name = *****
REMARK  3 active torsions:
REMARK  status: ('A' for Active; 'I' for Inactive)
REMARK    1  A    between atoms: C_5  and  C_7
REMARK    2  A    between atoms: C_7  and  O_9
REMARK    3  A    between atoms: O_9  and  C_10
REMARK                            x       y       z     vdW  Elec       q    Type
REMARK                         _______ _______ _______ _____ _____    ______ ____
ROOT
ATOM      1  C   UNL     1       1.005  -2.160  -0.487  0.00  0.00    +0.000 C 
ATOM      2  O   UNL     1       0.817  -3.266   0.000  0.00  0.00    +0.000 OA
ENDROOT
BRANCH   1   7
ATOM      3  C   UNL     1      -1.904  -0.108   0.738  0.00  0.00    +0.000 A 
ATOM      4  C   UNL     1      -1.418   1.193   0.608  0.00  0.00    +0.000 A 
ATOM      5  C   UNL     1      -0.127   1.409   0.125  0.00  0.00    +0.000 A 
ATOM      6  C   UNL     1       0.672   0.325  -0.234  0.00  0.00    +0.000 A 
ATOM      7  C   UNL     1       0.192  -0.980  -0.123  0.00  0.00    +0.000 A 
ATOM      8  C   UNL     1      -1.101  -1.194   0.378  0.00  0.00    +0.000 A 
ATOM      9  F   UNL     1       1.918   0.576  -0.661  0.00  0.00    +0.000 F 
ENDBRANCH   1   7
BRANCH   1  10
ATOM     10  O   UNL     1       1.907  -1.826  -1.477  0.00  0.00    +0.000 OA
BRANCH  10  11
ATOM     11  C   UNL     1       2.719  -2.885  -1.895  0.00  0.00    +0.000 A 
ATOM     12  C   UNL     1       4.078  -2.821  -1.594  0.00  0.00    +0.000 A 
ATOM     13  C   UNL     1       4.915  -3.840  -2.042  0.00  0.00    +0.000 A 
ATOM     14  C   UNL     1       4.408  -4.901  -2.792  0.00  0.00    +0.000 A 
ATOM     15  C   UNL     1       3.047  -4.934  -3.100  0.00  0.00    +0.000 A 
ATOM     16  C   UNL     1       2.194  -3.923  -2.663  0.00  0.00    +0.000 A 
ATOM     17 CL   UNL     1       2.419  -6.232  -4.039  0.00  0.00    +0.000 Cl
ATOM     18 CL   UNL     1       6.595  -3.785  -1.673  0.00  0.00    +0.000 Cl
ENDBRANCH  10  11
ENDBRANCH   1  10
TORSDOF 3
