REMARK  Name = *****
REMARK  4 active torsions:
REMARK  status: ('A' for Active; 'I' for Inactive)
REMARK    1  A    between atoms: C_4  and  O_7
REMARK    2  A    between atoms: O_7  and  S_8
REMARK    3  A    between atoms: S_8  and  O_10
REMARK    4  A    between atoms: O_10  and  C_11
REMARK                            x       y       z     vdW  Elec       q    Type
REMARK                         _______ _______ _______ _____ _____    ______ ____
ROOT
ATOM      1  S   UNL     1       2.633  -2.764   0.494  0.00  0.00    +0.000 S 
ATOM      2  O   UNL     1       2.311  -3.341  -0.852  0.00  0.00    +0.000 OA
ENDROOT
BRANCH   1   3
ATOM      3  O   UNL     1       2.353  -1.181   0.427  0.00  0.00    +0.000 OA
BRANCH   3   7
ATOM      4  C   UNL     1      -1.130   1.224   0.363  0.00  0.00    +0.000 C 
ATOM      5  C   UNL     1      -0.289   1.128  -0.907  0.00  0.00    +0.000 C 
ATOM      6  C   UNL     1       1.096   0.558  -0.618  0.00  0.00    +0.000 C 
ATOM      7  C   UNL     1       1.018  -0.797   0.094  0.00  0.00    +0.000 C 
ATOM      8  C   UNL     1       0.178  -0.684   1.372  0.00  0.00    +0.000 C 
ATOM      9  C   UNL     1      -1.209  -0.116   1.089  0.00  0.00    +0.000 C 
ENDBRANCH   3   7
ENDBRANCH   1   3
BRANCH   1  10
ATOM     10  O   UNL     1       4.236  -2.684   0.619  0.00  0.00    +0.000 OA
BRANCH  10  11
ATOM     11  C   UNL     1       4.931  -3.927   0.516  0.00  0.00    +0.000 C 
ATOM     12  C   UNL     1       5.087  -4.546   1.910  0.00  0.00    +0.000 C 
ATOM     13  C   UNL     1       5.967  -5.792   1.880  0.00  0.00    +0.000 C 
ATOM     14  C   UNL     1       7.327  -5.505   1.250  0.00  0.00    +0.000 C 
ATOM     15  C   UNL     1       7.186  -4.879  -0.134  0.00  0.00    +0.000 C 
ATOM     16  C   UNL     1       6.304  -3.635  -0.099  0.00  0.00    +0.000 C 
ENDBRANCH  10  11
ENDBRANCH   1  10
TORSDOF 4
