REMARK  Name = *****
REMARK  3 active torsions:
REMARK  status: ('A' for Active; 'I' for Inactive)
REMARK    1  A    between atoms: C_4  and  C_7
REMARK    2  A    between atoms: C_8  and  S_9
REMARK    3  A    between atoms: S_9  and  C_10
REMARK                            x       y       z     vdW  Elec       q    Type
REMARK                         _______ _______ _______ _____ _____    ______ ____
ROOT
ATOM      1  C   UNL     1      -2.715  -0.217   0.523  0.00  0.00    +0.000 C 
ATOM      2  C   UNL     1      -3.493  -1.189   0.021  0.00  0.00    +0.000 C 
ENDROOT
BRANCH   1   6
ATOM      3  C   UNL     1       1.493   0.316   0.048  0.00  0.00    +0.000 A 
ATOM      4  C   UNL     1       0.654   0.429  -1.059  0.00  0.00    +0.000 A 
ATOM      5  C   UNL     1      -0.724   0.250  -0.913  0.00  0.00    +0.000 A 
ATOM      6  C   UNL     1      -1.269  -0.051   0.341  0.00  0.00    +0.000 A 
ATOM      7  C   UNL     1      -0.420  -0.154   1.449  0.00  0.00    +0.000 A 
ATOM      8  C   UNL     1       0.957   0.025   1.302  0.00  0.00    +0.000 A 
ENDBRANCH   1   6
BRANCH   2   9
ATOM      9  S   UNL     1      -2.930  -2.501  -0.962  0.00  0.00    +0.000 S 
BRANCH   9  10
ATOM     10  C   UNL     1      -4.447  -3.428  -1.098  0.00  0.00    +0.000 A 
ATOM     11  C   UNL     1      -5.337  -3.175  -2.147  0.00  0.00    +0.000 A 
ATOM     12  C   UNL     1      -6.523  -3.904  -2.253  0.00  0.00    +0.000 A 
ATOM     13  C   UNL     1      -6.822  -4.891  -1.314  0.00  0.00    +0.000 A 
ATOM     14  C   UNL     1      -5.934  -5.153  -0.271  0.00  0.00    +0.000 A 
ATOM     15  C   UNL     1      -4.748  -4.424  -0.164  0.00  0.00    +0.000 A 
ENDBRANCH   9  10
ENDBRANCH   2   9
TORSDOF 3
