REMARK  Name = *****
REMARK  5 active torsions:
REMARK  status: ('A' for Active; 'I' for Inactive)
REMARK    1  A    between atoms: C_1  and  C_2
REMARK    2  A    between atoms: C_4  and  C_9
REMARK    3  A    between atoms: C_9  and  O_11
REMARK    4  A    between atoms: O_11  and  C_12
REMARK    5  A    between atoms: C_12  and  C_13
REMARK                            x       y       z     vdW  Elec       q    Type
REMARK                         _______ _______ _______ _____ _____    ______ ____
ROOT
ATOM      1  C   UNL     1       5.591  -2.788   0.545  0.00  0.00    +0.000 C 
ATOM      2  O   UNL     1       6.034  -3.114   1.632  0.00  0.00    +0.000 OA
ENDROOT
BRANCH   1   6
ATOM      3  C   UNL     1       5.592   1.212  -2.456  0.00  0.00    +0.000 C 
ATOM      4  C   UNL     1       5.100   0.512  -1.224  0.00  0.00    +0.000 A 
ATOM      5  C   UNL     1       5.547  -0.783  -0.927  0.00  0.00    +0.000 A 
ATOM      6  C   UNL     1       5.120  -1.440   0.225  0.00  0.00    +0.000 A 
ATOM      7  C   UNL     1       4.258  -0.791   1.101  0.00  0.00    +0.000 A 
ATOM      8  C   UNL     1       3.813   0.501   0.830  0.00  0.00    +0.000 A 
ATOM      9  C   UNL     1       4.235   1.155  -0.329  0.00  0.00    +0.000 A 
ATOM     10  F   UNL     1       3.816  -1.398   2.212  0.00  0.00    +0.000 F 
ATOM     11  F   UNL     1       6.415  -1.374  -1.762  0.00  0.00    +0.000 F 
ENDBRANCH   1   6
BRANCH   1  12
ATOM     12  O   UNL     1       5.386  -3.585  -0.531  0.00  0.00    +0.000 OA
BRANCH  12  13
ATOM     13  C   UNL     1       5.763  -4.965  -0.391  0.00  0.00    +0.000 C 
BRANCH  13  14
ATOM     14  C   UNL     1       4.511  -5.853  -0.420  0.00  0.00    +0.000 C 
ATOM     15  C   UNL     1       3.583  -5.568   0.773  0.00  0.00    +0.000 C 
ATOM     16  C   UNL     1       2.371  -6.497   0.784  0.00  0.00    +0.000 C 
ATOM     17  C   UNL     1       2.783  -7.964   0.741  0.00  0.00    +0.000 C 
ATOM     18  C   UNL     1       3.695  -8.254  -0.446  0.00  0.00    +0.000 C 
ATOM     19  C   UNL     1       4.913  -7.335  -0.456  0.00  0.00    +0.000 C 
ENDBRANCH  13  14
ENDBRANCH  12  13
ENDBRANCH   1  12
TORSDOF 4
