REMARK  Name = *****
REMARK  2 active torsions:
REMARK  status: ('A' for Active; 'I' for Inactive)
REMARK    1  A    between atoms: C_5  and  C_6
REMARK    2  A    between atoms: C_6  and  C_8
REMARK                            x       y       z     vdW  Elec       q    Type
REMARK                         _______ _______ _______ _____ _____    ______ ____
ROOT
ATOM      1  C   UNL     1      -0.447  -3.168   2.228  0.00  0.00    +0.000 C 
ATOM      2  O   UNL     1       0.717  -3.017   2.581  0.00  0.00    +0.000 OA
ENDROOT
BRANCH   1   7
ATOM      3  C   UNL     1       0.589   1.202  -0.600  0.00  0.00    +0.000 C 
ATOM      4  C   UNL     1       1.452   0.057  -0.078  0.00  0.00    +0.000 C 
ATOM      5  S   UNL     1       0.657  -1.561  -0.267  0.00  0.00    +0.000 S 
ATOM      6  C   UNL     1      -0.804  -1.275   0.626  0.00  0.00    +0.000 C 
ATOM      7  C   UNL     1      -1.227  -2.054   1.633  0.00  0.00    +0.000 C 
ATOM      8  S   UNL     1      -1.849   0.015   0.086  0.00  0.00    +0.000 S 
ATOM      9  C   UNL     1      -0.690   1.409   0.204  0.00  0.00    +0.000 C 
ENDBRANCH   1   7
BRANCH   1  10
ATOM     10  C   UNL     1      -1.171  -4.441   2.504  0.00  0.00    +0.000 A 
ATOM     11  C   UNL     1      -2.369  -4.778   1.860  0.00  0.00    +0.000 A 
ATOM     12  C   UNL     1      -3.009  -5.985   2.158  0.00  0.00    +0.000 A 
ATOM     13  C   UNL     1      -2.455  -6.859   3.092  0.00  0.00    +0.000 A 
ATOM     14  C   UNL     1      -1.257  -6.536   3.726  0.00  0.00    +0.000 A 
ATOM     15  C   UNL     1      -0.614  -5.333   3.430  0.00  0.00    +0.000 A 
ENDBRANCH   1  10
TORSDOF 2
