REMARK  Name = *****
REMARK  2 active torsions:
REMARK  status: ('A' for Active; 'I' for Inactive)
REMARK    1  A    between atoms: C_2  and  C_11
REMARK    2  A    between atoms: C_3  and  C_4
REMARK                            x       y       z     vdW  Elec       q    Type
REMARK                         _______ _______ _______ _____ _____    ______ ____
ROOT
ATOM      1  C   UNL     1       0.035   0.637   0.061  0.00  0.00    +0.000 C 
ATOM      2  C   UNL     1       0.822  -0.630   0.273  0.00  0.00    +0.000 C 
ATOM      3  C   UNL     1      -0.645  -0.693  -0.130  0.00  0.00    +0.000 C 
ENDROOT
BRANCH   3   4
ATOM      4  C   UNL     1      -1.665  -1.187   0.869  0.00  0.00    +0.000 A 
ATOM      5  C   UNL     1      -2.759  -0.391   1.256  0.00  0.00    +0.000 A 
ATOM      6  C   UNL     1      -3.707  -0.855   2.172  0.00  0.00    +0.000 A 
ATOM      7  C   UNL     1      -3.575  -2.129   2.705  0.00  0.00    +0.000 A 
ATOM      8  C   UNL     1      -2.516  -2.947   2.338  0.00  0.00    +0.000 A 
ATOM      9  C   UNL     1      -1.570  -2.477   1.423  0.00  0.00    +0.000 A 
ATOM     10  F   UNL     1      -4.482  -2.577   3.582  0.00  0.00    +0.000 F 
ENDBRANCH   3   4
BRANCH   2  11
ATOM     11  C   UNL     1       1.892  -1.036  -0.712  0.00  0.00    +0.000 A 
ATOM     12  C   UNL     1       2.966  -0.183  -1.014  0.00  0.00    +0.000 A 
ATOM     13  C   UNL     1       3.971  -0.564  -1.908  0.00  0.00    +0.000 A 
ATOM     14  C   UNL     1       3.925  -1.815  -2.515  0.00  0.00    +0.000 A 
ATOM     15  C   UNL     1       2.876  -2.684  -2.226  0.00  0.00    +0.000 A 
ATOM     16  C   UNL     1       1.875  -2.297  -1.332  0.00  0.00    +0.000 A 
ENDBRANCH   2  11
TORSDOF 2
