REMARK  Name = *****
REMARK  4 active torsions:
REMARK  status: ('A' for Active; 'I' for Inactive)
REMARK    1  A    between atoms: C_1  and  C_2
REMARK    2  A    between atoms: C_3  and  C_9
REMARK    3  A    between atoms: C_4  and  C_8
REMARK    4  A    between atoms: C_10  and  C_11
REMARK                            x       y       z     vdW  Elec       q    Type
REMARK                         _______ _______ _______ _____ _____    ______ ____
ROOT
ATOM      1  C   UNL     1       2.583   0.920   0.195  0.00  0.00    +0.000 C 
ATOM      2  C   UNL     1       1.230   0.268   0.088  0.00  0.00    +0.000 A 
ATOM      3  C   UNL     1       0.038   1.027   0.056  0.00  0.00    +0.000 A 
ATOM      4  C   UNL     1      -1.211   0.374  -0.051  0.00  0.00    +0.000 A 
ATOM      5  C   UNL     1      -1.250  -1.026  -0.137  0.00  0.00    +0.000 A 
ATOM      6  C   UNL     1      -0.074  -1.772  -0.115  0.00  0.00    +0.000 A 
ATOM      7  C   UNL     1       1.156  -1.130  -0.005  0.00  0.00    +0.000 A 
ATOM      8  C   UNL     1      -2.505   1.144  -0.090  0.00  0.00    +0.000 C 
ENDROOT
BRANCH   3   9
ATOM      9  C   UNL     1       0.092   2.495   0.125  0.00  0.00    +0.000 C 
ATOM     10  C   UNL     1       0.293   3.240  -0.973  0.00  0.00    +0.000 C 
BRANCH  10  11
ATOM     11  C   UNL     1       0.344   4.708  -0.977  0.00  0.00    +0.000 A 
ATOM     12  C   UNL     1       0.896   5.444   0.081  0.00  0.00    +0.000 A 
ATOM     13  C   UNL     1       0.953   6.839   0.024  0.00  0.00    +0.000 A 
ATOM     14  C   UNL     1       0.468   7.513  -1.095  0.00  0.00    +0.000 A 
ATOM     15  C   UNL     1      -0.069   6.792  -2.160  0.00  0.00    +0.000 A 
ATOM     16  C   UNL     1      -0.125   5.397  -2.103  0.00  0.00    +0.000 A 
ENDBRANCH  10  11
ENDBRANCH   3   9
TORSDOF 2
