REMARK  Name = *****
REMARK  4 active torsions:
REMARK  status: ('A' for Active; 'I' for Inactive)
REMARK    1  A    between atoms: C_4  and  C_7
REMARK    2  A    between atoms: C_8  and  C_9
REMARK    3  A    between atoms: C_9  and  C_10
REMARK    4  A    between atoms: C_15  and  O_16
REMARK                            x       y       z     vdW  Elec       q    Type
REMARK                         _______ _______ _______ _____ _____    ______ ____
ROOT
ATOM      1  C   UNL     1      -3.245  -2.083  -0.229  0.00  0.00    +0.000 C 
ENDROOT
BRANCH   1   2
ATOM      2  C   UNL     1      -4.459  -2.984  -0.315  0.00  0.00    +0.000 A 
ATOM      3  C   UNL     1      -4.892  -3.454  -1.566  0.00  0.00    +0.000 A 
ATOM      4  C   UNL     1      -6.019  -4.270  -1.669  0.00  0.00    +0.000 A 
ATOM      5  C   UNL     1      -6.733  -4.622  -0.525  0.00  0.00    +0.000 A 
ATOM      6  C   UNL     1      -6.323  -4.156   0.723  0.00  0.00    +0.000 A 
ATOM      7  C   UNL     1      -5.195  -3.340   0.822  0.00  0.00    +0.000 A 
BRANCH   7   8
ATOM      8  O   UNL     1      -4.795  -2.874   2.043  0.00  0.00    +0.000 OA
ATOM      9  H   UNL     1      -4.038  -2.326   2.110  0.00  0.00    +0.000 HD
ENDBRANCH   7   8
ENDBRANCH   1   2
BRANCH   1  11
ATOM     10  C   UNL     1      -2.733   0.402  -0.215  0.00  0.00    +0.000 C 
ATOM     11  C   UNL     1      -3.598  -0.621  -0.320  0.00  0.00    +0.000 C 
BRANCH  10  15
ATOM     12  C   UNL     1       1.454  -0.076   0.404  0.00  0.00    +0.000 A 
ATOM     13  C   UNL     1       0.948   0.033  -0.891  0.00  0.00    +0.000 A 
ATOM     14  C   UNL     1      -0.424   0.190  -1.094  0.00  0.00    +0.000 A 
ATOM     15  C   UNL     1      -1.295   0.240  -0.002  0.00  0.00    +0.000 A 
ATOM     16  C   UNL     1      -0.783   0.127   1.295  0.00  0.00    +0.000 A 
ATOM     17  C   UNL     1       0.589  -0.030   1.497  0.00  0.00    +0.000 A 
ENDBRANCH  10  15
ENDBRANCH   1  11
TORSDOF 4
