REMARK  Name = *****
REMARK  3 active torsions:
REMARK  status: ('A' for Active; 'I' for Inactive)
REMARK    1  A    between atoms: C_4  and  C_7
REMARK    2  A    between atoms: C_7  and  S_9
REMARK    3  A    between atoms: S_9  and  C_10
REMARK                            x       y       z     vdW  Elec       q    Type
REMARK                         _______ _______ _______ _____ _____    ______ ____
ROOT
ATOM      1  C   UNL     1      -4.196  -2.732   0.706  0.00  0.00    +0.000 A 
ATOM      2  C   UNL     1      -5.507  -2.274   0.540  0.00  0.00    +0.000 A 
ATOM      3  C   UNL     1      -6.508  -2.646   1.433  0.00  0.00    +0.000 A 
ATOM      4  C   UNL     1      -6.213  -3.478   2.503  0.00  0.00    +0.000 A 
ATOM      5  C   UNL     1      -4.918  -3.943   2.680  0.00  0.00    +0.000 A 
ATOM      6  C   UNL     1      -3.915  -3.573   1.788  0.00  0.00    +0.000 A 
ATOM      7  F   UNL     1      -2.671  -4.039   1.977  0.00  0.00    +0.000 F 
ATOM      8  F   UNL     1      -4.632  -4.755   3.707  0.00  0.00    +0.000 F 
ATOM      9  F   UNL     1      -7.179  -3.840   3.358  0.00  0.00    +0.000 F 
ATOM     10  F   UNL     1      -7.760  -2.203   1.255  0.00  0.00    +0.000 F 
ATOM     11  F   UNL     1      -5.818  -1.471  -0.489  0.00  0.00    +0.000 F 
ENDROOT
BRANCH   1  12
ATOM     12  S   UNL     1      -2.906  -2.233  -0.421  0.00  0.00    +0.000 S 
BRANCH  12  13
ATOM     13  C   UNL     1      -2.189  -0.909   0.501  0.00  0.00    +0.000 C 
ATOM     14  O   UNL     1      -2.712  -0.514   1.538  0.00  0.00    +0.000 OA
BRANCH  13  18
ATOM     15  C   UNL     1       1.430   1.001  -0.835  0.00  0.00    +0.000 A 
ATOM     16  C   UNL     1       0.811   1.382   0.353  0.00  0.00    +0.000 A 
ATOM     17  C   UNL     1      -0.364   0.747   0.763  0.00  0.00    +0.000 A 
ATOM     18  C   UNL     1      -0.933  -0.279  -0.010  0.00  0.00    +0.000 A 
ATOM     19  C   UNL     1      -0.300  -0.653  -1.205  0.00  0.00    +0.000 A 
ATOM     20  C   UNL     1       0.876  -0.014  -1.613  0.00  0.00    +0.000 A 
ENDBRANCH  13  18
ENDBRANCH  12  13
ENDBRANCH   1  12
TORSDOF 3
