REMARK  Name = *****
REMARK  4 active torsions:
REMARK  status: ('A' for Active; 'I' for Inactive)
REMARK    1  A    between atoms: C_4  and  C_7
REMARK    2  A    between atoms: C_7  and  O_8
REMARK    3  A    between atoms: O_8  and  C_9
REMARK    4  A    between atoms: C_9  and  C_10
REMARK                            x       y       z     vdW  Elec       q    Type
REMARK                         _______ _______ _______ _____ _____    ______ ____
ROOT
ATOM      1  C   UNL     1      -4.880  -0.624  -0.559  0.00  0.00    +0.000 C 
ENDROOT
BRANCH   1   2
ATOM      2  C   UNL     1      -5.591  -1.952  -0.528  0.00  0.00    +0.000 A 
ATOM      3  C   UNL     1      -6.769  -2.113  -1.268  0.00  0.00    +0.000 A 
ATOM      4  C   UNL     1      -7.481  -3.307  -1.255  0.00  0.00    +0.000 A 
ATOM      5  C   UNL     1      -7.015  -4.357  -0.478  0.00  0.00    +0.000 A 
ATOM      6  C   UNL     1      -5.857  -4.227   0.282  0.00  0.00    +0.000 A 
ATOM      7  C   UNL     1      -5.148  -3.024   0.262  0.00  0.00    +0.000 A 
ATOM      8  F   UNL     1      -7.692  -5.512  -0.455  0.00  0.00    +0.000 F 
ATOM      9  F   UNL     1      -7.231  -1.095  -2.009  0.00  0.00    +0.000 F 
ENDBRANCH   1   2
BRANCH   1  10
ATOM     10  O   UNL     1      -3.513  -0.779  -0.182  0.00  0.00    +0.000 OA
BRANCH  10  11
ATOM     11  C   UNL     1      -2.815   0.465  -0.222  0.00  0.00    +0.000 C 
BRANCH  11  15
ATOM     12  C   UNL     1       1.350  -0.054   0.790  0.00  0.00    +0.000 A 
ATOM     13  C   UNL     1       0.687  -1.033   0.053  0.00  0.00    +0.000 A 
ATOM     14  C   UNL     1      -0.662  -0.874  -0.267  0.00  0.00    +0.000 A 
ATOM     15  C   UNL     1      -1.369   0.261   0.156  0.00  0.00    +0.000 A 
ATOM     16  C   UNL     1      -0.686   1.246   0.886  0.00  0.00    +0.000 A 
ATOM     17  C   UNL     1       0.664   1.086   1.205  0.00  0.00    +0.000 A 
ENDBRANCH  11  15
ENDBRANCH  10  11
ENDBRANCH   1  10
TORSDOF 4
