REMARK  Name = *****
REMARK  5 active torsions:
REMARK  status: ('A' for Active; 'I' for Inactive)
REMARK    1  A    between atoms: N_2  and  C_3
REMARK    2  A    between atoms: C_3  and  C_4
REMARK    3  A    between atoms: C_6  and  O_10
REMARK    4  A    between atoms: O_10  and  C_11
REMARK    5  A    between atoms: C_11  and  C_12
REMARK                            x       y       z     vdW  Elec       q    Type
REMARK                         _______ _______ _______ _____ _____    ______ ____
ROOT
ATOM      1  C   UNL     1       4.187   1.268  -0.096  0.00  0.00    +0.000 A 
ATOM      2  C   UNL     1       3.437   2.361   0.362  0.00  0.00    +0.000 A 
ATOM      3  C   UNL     1       3.935   3.666   0.277  0.00  0.00    +0.000 A 
ATOM      4  C   UNL     1       5.200   3.880  -0.270  0.00  0.00    +0.000 A 
ATOM      5  C   UNL     1       5.960   2.798  -0.721  0.00  0.00    +0.000 A 
ATOM      6  C   UNL     1       5.459   1.500  -0.633  0.00  0.00    +0.000 A 
ENDROOT
BRANCH   1   7
ATOM      7  C   UNL     1       3.646  -0.133   0.014  0.00  0.00    +0.000 C 
BRANCH   7   9
ATOM      8  C   UNL     1       4.745  -1.441   1.979  0.00  0.00    +0.000 C 
ATOM      9  N   UNL     1       4.257  -0.839   1.099  0.00  0.00    +0.000 NA
ENDBRANCH   7   9
ENDBRANCH   1   7
BRANCH   3  10
ATOM     10  O   UNL     1       3.090   4.627   0.757  0.00  0.00    +0.000 OA
BRANCH  10  11
ATOM     11  C   UNL     1       3.565   5.973   0.755  0.00  0.00    +0.000 C 
BRANCH  11  12
ATOM     12  C   UNL     1       2.492   6.872   1.322  0.00  0.00    +0.000 A 
ATOM     13  C   UNL     1       2.765   7.720   2.404  0.00  0.00    +0.000 A 
ATOM     14  C   UNL     1       1.775   8.565   2.909  0.00  0.00    +0.000 A 
ATOM     15  C   UNL     1       0.505   8.574   2.337  0.00  0.00    +0.000 A 
ATOM     16  C   UNL     1       0.222   7.738   1.259  0.00  0.00    +0.000 A 
ATOM     17  C   UNL     1       1.210   6.893   0.752  0.00  0.00    +0.000 A 
ENDBRANCH  11  12
ENDBRANCH  10  11
ENDBRANCH   3  10
TORSDOF 5
