REMARK  Name = *****
REMARK  4 active torsions:
REMARK  status: ('A' for Active; 'I' for Inactive)
REMARK    1  A    between atoms: C_3  and  C_7
REMARK    2  A    between atoms: C_7  and  C_8
REMARK    3  A    between atoms: C_8  and  C_9
REMARK    4  A    between atoms: C_9  and  C_11
REMARK                            x       y       z     vdW  Elec       q    Type
REMARK                         _______ _______ _______ _____ _____    ______ ____
ROOT
ATOM      1  C   UNL     1      -1.477   2.026  -2.351  0.00  0.00    +0.000 C 
ENDROOT
BRANCH   1   2
ATOM      2  C   UNL     1      -1.600   2.104  -3.866  0.00  0.00    +0.000 C 
ATOM      3  O   UNL     1      -1.538   1.107  -4.583  0.00  0.00    +0.000 OA
BRANCH   2   4
ATOM      4  C   UNL     1      -1.801   3.445  -4.498  0.00  0.00    +0.000 A 
ATOM      5  C   UNL     1      -1.909   4.622  -3.746  0.00  0.00    +0.000 A 
ATOM      6  C   UNL     1      -2.095   5.851  -4.387  0.00  0.00    +0.000 A 
ATOM      7  C   UNL     1      -2.174   5.912  -5.777  0.00  0.00    +0.000 A 
ATOM      8  C   UNL     1      -2.069   4.747  -6.533  0.00  0.00    +0.000 A 
ATOM      9  C   UNL     1      -1.883   3.518  -5.896  0.00  0.00    +0.000 A 
ENDBRANCH   2   4
ENDBRANCH   1   2
BRANCH   1  10
ATOM     10  C   UNL     1      -1.262   0.592  -1.860  0.00  0.00    +0.000 C 
BRANCH  10  13
ATOM     11  C   UNL     1       1.191   0.810   0.104  0.00  0.00    +0.000 C 
ATOM     12  C   UNL     1      -0.232   1.290   0.404  0.00  0.00    +0.000 C 
ATOM     13  C   UNL     1      -1.303   0.455  -0.321  0.00  0.00    +0.000 C 
ATOM     14  C   UNL     1      -1.162  -1.025   0.098  0.00  0.00    +0.000 C 
ATOM     15  C   UNL     1       0.260  -1.510   0.130  0.00  0.00    +0.000 C 
ATOM     16  C   UNL     1       1.318  -0.685   0.118  0.00  0.00    +0.000 C 
ENDBRANCH  10  13
ENDBRANCH   1  10
TORSDOF 4
