REMARK  Name = *****
REMARK  4 active torsions:
REMARK  status: ('A' for Active; 'I' for Inactive)
REMARK    1  A    between atoms: C_1  and  C_2
REMARK    2  A    between atoms: C_5  and  S_8
REMARK    3  A    between atoms: S_8  and  C_10
REMARK    4  A    between atoms: C_10  and  C_11
REMARK                            x       y       z     vdW  Elec       q    Type
REMARK                         _______ _______ _______ _____ _____    ______ ____
ROOT
ATOM      1  S   UNL     1      -3.839  -0.105   0.159  0.00  0.00    +0.000 S 
ATOM      2  O   UNL     1      -4.530  -0.541   1.422  0.00  0.00    +0.000 OA
ENDROOT
BRANCH   1   7
ATOM      3  C   UNL     1       2.151  -0.291   1.401  0.00  0.00    +0.000 C 
ATOM      4  C   UNL     1       0.679  -0.260   1.112  0.00  0.00    +0.000 A 
ATOM      5  C   UNL     1       0.225  -0.329  -0.210  0.00  0.00    +0.000 A 
ATOM      6  C   UNL     1      -1.142  -0.292  -0.493  0.00  0.00    +0.000 A 
ATOM      7  C   UNL     1      -2.072  -0.171   0.544  0.00  0.00    +0.000 A 
ATOM      8  C   UNL     1      -1.623  -0.110   1.867  0.00  0.00    +0.000 A 
ATOM      9  C   UNL     1      -0.255  -0.149   2.148  0.00  0.00    +0.000 A 
ENDBRANCH   1   7
BRANCH   1  10
ATOM     10  C   UNL     1      -3.991   1.726   0.031  0.00  0.00    +0.000 C 
ATOM     11 CL   UNL     1      -5.714   2.228  -0.028  0.00  0.00    +0.000 Cl
BRANCH  10  12
ATOM     12  C   UNL     1      -3.260   2.292  -1.171  0.00  0.00    +0.000 A 
ATOM     13  C   UNL     1      -3.632   1.964  -2.488  0.00  0.00    +0.000 A 
ATOM     14  C   UNL     1      -2.927   2.479  -3.576  0.00  0.00    +0.000 A 
ATOM     15  C   UNL     1      -1.842   3.328  -3.368  0.00  0.00    +0.000 A 
ATOM     16  C   UNL     1      -1.463   3.666  -2.071  0.00  0.00    +0.000 A 
ATOM     17  C   UNL     1      -2.167   3.154  -0.980  0.00  0.00    +0.000 A 
ENDBRANCH  10  12
ENDBRANCH   1  10
TORSDOF 3
