REMARK  Name = *****
REMARK  4 active torsions:
REMARK  status: ('A' for Active; 'I' for Inactive)
REMARK    1  A    between atoms: C_1  and  C_2
REMARK    2  A    between atoms: C_5  and  C_8
REMARK    3  A    between atoms: C_8  and  C_15
REMARK    4  A    between atoms: C_9  and  C_10
REMARK                            x       y       z     vdW  Elec       q    Type
REMARK                         _______ _______ _______ _____ _____    ______ ____
ROOT
ATOM      1  C   UNL     1      -3.325   0.092   0.216  0.00  0.00    +0.000 C 
ATOM      2  C   UNL     1      -3.999   0.966  -0.560  0.00  0.00    +0.000 C 
ENDROOT
BRANCH   1   7
ATOM      3  C   UNL     1       2.465   0.002  -0.135  0.00  0.00    +0.000 C 
ATOM      4  C   UNL     1       0.966   0.037  -0.074  0.00  0.00    +0.000 A 
ATOM      5  C   UNL     1       0.301   1.190   0.356  0.00  0.00    +0.000 A 
ATOM      6  C   UNL     1      -1.094   1.212   0.447  0.00  0.00    +0.000 A 
ATOM      7  C   UNL     1      -1.848   0.076   0.117  0.00  0.00    +0.000 A 
ATOM      8  C   UNL     1      -1.177  -1.084  -0.295  0.00  0.00    +0.000 A 
ATOM      9  C   UNL     1       0.218  -1.103  -0.385  0.00  0.00    +0.000 A 
ENDBRANCH   1   7
BRANCH   2  10
ATOM     10  C   UNL     1      -5.418   1.116  -0.607  0.00  0.00    +0.000 A 
ATOM     11  C   UNL     1      -6.392   0.991   0.372  0.00  0.00    +0.000 A 
ATOM     12  C   UNL     1      -7.711   1.241  -0.109  0.00  0.00    +0.000 A 
ATOM     13  C   UNL     1      -7.718   1.570  -1.443  0.00  0.00    +0.000 A 
ATOM     14  S   UNL     1      -6.145   1.587  -2.103  0.00  0.00    +0.000 S 
ENDBRANCH   2  10
BRANCH   1  15
ATOM     15  C   UNL     1      -3.950  -0.856   1.084  0.00  0.00    +0.000 C 
ATOM     16  N   UNL     1      -4.447  -1.628   1.794  0.00  0.00    +0.000 NA
ENDBRANCH   1  15
TORSDOF 3
