REMARK  Name = *****
REMARK  3 active torsions:
REMARK  status: ('A' for Active; 'I' for Inactive)
REMARK    1  A    between atoms: C_5  and  O_7
REMARK    2  A    between atoms: O_7  and  C_8
REMARK    3  A    between atoms: C_8  and  C_10
REMARK                            x       y       z     vdW  Elec       q    Type
REMARK                         _______ _______ _______ _____ _____    ______ ____
ROOT
ATOM      1  O   UNL     1      -2.806  -0.119   0.251  0.00  0.00    +0.000 OA
ENDROOT
BRANCH   1   6
ATOM      2  C   UNL     1       0.658   1.290  -0.221  0.00  0.00    +0.000 C 
ATOM      3  C   UNL     1       1.468   0.075   0.222  0.00  0.00    +0.000 C 
ATOM      4  C   UNL     1       0.811  -1.238  -0.209  0.00  0.00    +0.000 C 
ATOM      5  C   UNL     1      -0.654  -1.343   0.225  0.00  0.00    +0.000 C 
ATOM      6  C   UNL     1      -1.450  -0.105  -0.238  0.00  0.00    +0.000 C 
ATOM      7  C   UNL     1      -0.798   1.203   0.223  0.00  0.00    +0.000 C 
ATOM      8 CL   UNL     1      -0.748  -1.554   2.012  0.00  0.00    +0.000 Cl
ENDBRANCH   1   6
BRANCH   1   9
ATOM      9  C   UNL     1      -3.651  -0.974  -0.375  0.00  0.00    +0.000 C 
ATOM     10  O   UNL     1      -3.364  -1.687  -1.324  0.00  0.00    +0.000 OA
BRANCH   9  11
ATOM     11  C   UNL     1      -5.001  -0.930   0.247  0.00  0.00    +0.000 A 
ATOM     12  C   UNL     1      -6.030  -1.673  -0.348  0.00  0.00    +0.000 A 
ATOM     13  C   UNL     1      -7.313  -1.667   0.203  0.00  0.00    +0.000 A 
ATOM     14  C   UNL     1      -7.574  -0.920   1.351  0.00  0.00    +0.000 A 
ATOM     15  C   UNL     1      -6.556  -0.180   1.951  0.00  0.00    +0.000 A 
ATOM     16  C   UNL     1      -5.271  -0.183   1.403  0.00  0.00    +0.000 A 
ENDBRANCH   9  11
ENDBRANCH   1   9
TORSDOF 3
