REMARK  Name = *****
REMARK  2 active torsions:
REMARK  status: ('A' for Active; 'I' for Inactive)
REMARK    1  A    between atoms: C_1  and  C_2
REMARK    2  A    between atoms: C_5  and  C_8
REMARK                            x       y       z     vdW  Elec       q    Type
REMARK                         _______ _______ _______ _____ _____    ______ ____
ROOT
ATOM      1  C   UNL     1      -3.319  -0.035   0.153  0.00  0.00    +0.000 A 
ATOM      2  N   UNL     1      -4.147   0.997   0.131  0.00  0.00    +0.000 NA
ATOM      3  C   UNL     1      -5.390   0.424   0.212  0.00  0.00    +0.000 A 
ATOM      4  C   UNL     1      -5.266  -0.955   0.281  0.00  0.00    +0.000 A 
ATOM      5  O   UNL     1      -3.938  -1.258   0.243  0.00  0.00    +0.000 OA
ATOM      6  C   UNL     1      -6.331  -1.845   0.371  0.00  0.00    +0.000 A 
ATOM      7  C   UNL     1      -7.602  -1.260   0.391  0.00  0.00    +0.000 A 
ATOM      8  C   UNL     1      -7.757   0.128   0.324  0.00  0.00    +0.000 A 
ATOM      9  C   UNL     1      -6.666   0.996   0.233  0.00  0.00    +0.000 A 
ATOM     10  F   UNL     1      -8.994   0.642   0.346  0.00  0.00    +0.000 F 
ENDROOT
BRANCH   1  15
ATOM     11  C   UNL     1       2.463   0.033  -0.111  0.00  0.00    +0.000 C 
ATOM     12  C   UNL     1       0.966   0.010  -0.013  0.00  0.00    +0.000 A 
ATOM     13  C   UNL     1       0.233   1.200  -0.065  0.00  0.00    +0.000 A 
ATOM     14  C   UNL     1      -1.164   1.173  -0.006  0.00  0.00    +0.000 A 
ATOM     15  C   UNL     1      -1.859  -0.041   0.094  0.00  0.00    +0.000 A 
ATOM     16  C   UNL     1      -1.117  -1.231   0.130  0.00  0.00    +0.000 A 
ATOM     17  C   UNL     1       0.280  -1.206   0.072  0.00  0.00    +0.000 A 
ENDBRANCH   1  15
TORSDOF 1
