REMARK  Name = *****
REMARK  4 active torsions:
REMARK  status: ('A' for Active; 'I' for Inactive)
REMARK    1  A    between atoms: C_3  and  S_8
REMARK    2  A    between atoms: S_8  and  C_9
REMARK    3  A    between atoms: C_9  and  C_11
REMARK    4  A    between atoms: C_14  and  C_17
REMARK                            x       y       z     vdW  Elec       q    Type
REMARK                         _______ _______ _______ _____ _____    ______ ____
ROOT
ATOM      1  C   UNL     1       2.288   4.122   0.305  0.00  0.00    +0.000 C 
ATOM      2  O   UNL     1       1.176   3.628   0.159  0.00  0.00    +0.000 OA
ENDROOT
BRANCH   1   3
ATOM      3  C   UNL     1       2.512   5.573   0.013  0.00  0.00    +0.000 A 
ATOM      4  C   UNL     1       3.758   6.209   0.114  0.00  0.00    +0.000 A 
ATOM      5  C   UNL     1       3.882   7.577  -0.166  0.00  0.00    +0.000 A 
ATOM      6  C   UNL     1       2.766   8.326  -0.548  0.00  0.00    +0.000 A 
ATOM      7  C   UNL     1       1.521   7.701  -0.654  0.00  0.00    +0.000 A 
ATOM      8  C   UNL     1       1.397   6.335  -0.375  0.00  0.00    +0.000 A 
BRANCH   6   9
ATOM      9  C   UNL     1       2.897   9.726  -0.829  0.00  0.00    +0.000 C 
ATOM     10  N   UNL     1       3.008  10.859  -1.055  0.00  0.00    +0.000 NA
ENDBRANCH   6   9
ENDBRANCH   1   3
BRANCH   1  11
ATOM     11  S   UNL     1       3.656   3.155   0.851  0.00  0.00    +0.000 S 
BRANCH  11  14
ATOM     12  C   UNL     1       2.365  -0.398   2.336  0.00  0.00    +0.000 A 
ATOM     13  C   UNL     1       2.964   0.578   1.537  0.00  0.00    +0.000 A 
ATOM     14  C   UNL     1       2.851   1.933   1.868  0.00  0.00    +0.000 A 
ATOM     15  C   UNL     1       2.146   2.303   3.018  0.00  0.00    +0.000 A 
ATOM     16  C   UNL     1       1.548   1.324   3.811  0.00  0.00    +0.000 A 
ATOM     17  C   UNL     1       1.654  -0.024   3.476  0.00  0.00    +0.000 A 
ATOM     18 CL   UNL     1       0.679   1.786   5.223  0.00  0.00    +0.000 Cl
ENDBRANCH  11  14
ENDBRANCH   1  11
TORSDOF 4
