REMARK  Name = *****
REMARK  7 active torsions:
REMARK  status: ('A' for Active; 'I' for Inactive)
REMARK    1  A    between atoms: C_1  and  C_2
REMARK    2  A    between atoms: C_2  and  O_3
REMARK    3  A    between atoms: O_3  and  C_4
REMARK    4  A    between atoms: C_7  and  C_10
REMARK    5  A    between atoms: C_10  and  S_12
REMARK    6  A    between atoms: S_12  and  C_13
REMARK    7  A    between atoms: C_16  and  C_19
REMARK                            x       y       z     vdW  Elec       q    Type
REMARK                         _______ _______ _______ _____ _____    ______ ____
ROOT
ATOM      1  C   UNL     1       8.555  -1.286   1.210  0.00  0.00    +0.000 C 
ATOM      2  O   UNL     1       9.104  -2.366   1.397  0.00  0.00    +0.000 OA
ENDROOT
BRANCH   1   6
ATOM      3  C   UNL     1       4.253  -1.204   0.842  0.00  0.00    +0.000 A 
ATOM      4  C   UNL     1       4.965  -0.007   0.774  0.00  0.00    +0.000 A 
ATOM      5  C   UNL     1       6.363  -0.006   0.887  0.00  0.00    +0.000 A 
ATOM      6  C   UNL     1       7.068  -1.204   1.069  0.00  0.00    +0.000 A 
ATOM      7  C   UNL     1       6.343  -2.403   1.136  0.00  0.00    +0.000 A 
ATOM      8  C   UNL     1       4.950  -2.399   1.022  0.00  0.00    +0.000 A 
BRANCH   3   9
ATOM      9  O   UNL     1       2.897  -1.341   0.750  0.00  0.00    +0.000 OA
BRANCH   9  11
ATOM     10  C   UNL     1       0.665  -0.540   0.516  0.00  0.00    +0.000 C 
ATOM     11  C   UNL     1       2.130  -0.150   0.581  0.00  0.00    +0.000 C 
ENDBRANCH   9  11
ENDBRANCH   3   9
ENDBRANCH   1   6
BRANCH   1  12
ATOM     12  S   UNL     1       9.494   0.199   1.074  0.00  0.00    +0.000 S 
BRANCH  12  13
ATOM     13  C   UNL     1      10.630   0.004   2.432  0.00  0.00    +0.000 A 
ATOM     14  C   UNL     1      12.000  -0.107   2.179  0.00  0.00    +0.000 A 
ATOM     15  C   UNL     1      12.906  -0.231   3.236  0.00  0.00    +0.000 A 
ATOM     16  C   UNL     1      12.455  -0.228   4.561  0.00  0.00    +0.000 A 
ATOM     17  C   UNL     1      11.082  -0.125   4.811  0.00  0.00    +0.000 A 
ATOM     18  C   UNL     1      10.176   0.000   3.754  0.00  0.00    +0.000 A 
ATOM     19  C   UNL     1      13.424  -0.400   5.693  0.00  0.00    +0.000 C 
ENDBRANCH  12  13
ENDBRANCH   1  12
TORSDOF 5
