REMARK  Name = *****
REMARK  4 active torsions:
REMARK  status: ('A' for Active; 'I' for Inactive)
REMARK    1  A    between atoms: C_1  and  C_2
REMARK    2  A    between atoms: C_3  and  C_9
REMARK    3  A    between atoms: C_5  and  C_7
REMARK    4  A    between atoms: C_10  and  C_11
REMARK                            x       y       z     vdW  Elec       q    Type
REMARK                         _______ _______ _______ _____ _____    ______ ____
ROOT
ATOM      1  C   UNL     1       0.555  -2.470  -0.043  0.00  0.00    +0.000 C 
ATOM      2  C   UNL     1       1.772  -3.034   0.009  0.00  0.00    +0.000 C 
ENDROOT
BRANCH   2   3
ATOM      3  C   UNL     1       1.998  -4.486  -0.011  0.00  0.00    +0.000 A 
ATOM      4  C   UNL     1       1.261  -5.345  -0.841  0.00  0.00    +0.000 A 
ATOM      5  C   UNL     1       1.526  -6.716  -0.855  0.00  0.00    +0.000 A 
ATOM      6  C   UNL     1       2.534  -7.228  -0.048  0.00  0.00    +0.000 A 
ATOM      7  C   UNL     1       3.286  -6.394   0.769  0.00  0.00    +0.000 A 
ATOM      8  C   UNL     1       3.022  -5.023   0.783  0.00  0.00    +0.000 A 
ATOM      9  F   UNL     1       2.789  -8.543  -0.064  0.00  0.00    +0.000 F 
ENDBRANCH   2   3
BRANCH   1  12
ATOM     10  C   UNL     1       2.250  -0.141  -1.509  0.00  0.00    +0.000 C 
ATOM     11  C   UNL     1       1.074  -0.008  -0.592  0.00  0.00    +0.000 A 
ATOM     12  C   UNL     1       0.374  -1.055   0.004  0.00  0.00    +0.000 A 
ATOM     13  S   UNL     1      -0.963  -0.458   0.922  0.00  0.00    +0.000 S 
ATOM     14  C   UNL     1      -0.583   1.162   0.585  0.00  0.00    +0.000 A 
ATOM     15  C   UNL     1       0.519   1.267  -0.232  0.00  0.00    +0.000 A 
BRANCH  14  16
ATOM     16  C   UNL     1      -1.393   2.224   1.133  0.00  0.00    +0.000 C 
ATOM     17  O   UNL     1      -1.198   3.423   0.938  0.00  0.00    +0.000 OA
ENDBRANCH  14  16
ENDBRANCH   1  12
TORSDOF 3
