REMARK  Name = *****
REMARK  5 active torsions:
REMARK  status: ('A' for Active; 'I' for Inactive)
REMARK    1  A    between atoms: C_4  and  C_7
REMARK    2  A    between atoms: C_7  and  C_8
REMARK    3  A    between atoms: C_8  and  C_9
REMARK    4  A    between atoms: C_9  and  C_10
REMARK    5  A    between atoms: C_9  and  C_12
REMARK                            x       y       z     vdW  Elec       q    Type
REMARK                         _______ _______ _______ _____ _____    ______ ____
ROOT
ATOM      1  C   UNL     1      -5.037  -0.604  -0.647  0.00  0.00    +0.000 C 
ENDROOT
BRANCH   1   2
ATOM      2  C   UNL     1      -5.766  -1.940  -0.677  0.00  0.00    +0.000 A 
ATOM      3  C   UNL     1      -6.731  -2.235   0.301  0.00  0.00    +0.000 A 
ATOM      4  C   UNL     1      -7.406  -3.457   0.290  0.00  0.00    +0.000 A 
ATOM      5  C   UNL     1      -7.126  -4.401  -0.696  0.00  0.00    +0.000 A 
ATOM      6  C   UNL     1      -6.173  -4.124  -1.673  0.00  0.00    +0.000 A 
ATOM      7  C   UNL     1      -5.497  -2.902  -1.665  0.00  0.00    +0.000 A 
ENDBRANCH   1   2
BRANCH   1   8
ATOM      8  C   UNL     1      -5.303   0.187  -1.869  0.00  0.00    +0.000 C 
ATOM      9  N   UNL     1      -5.487   0.825  -2.821  0.00  0.00    +0.000 NA
ENDBRANCH   1   8
BRANCH   1  10
ATOM     10  C   UNL     1      -3.524  -0.807  -0.433  0.00  0.00    +0.000 C 
BRANCH  10  11
ATOM     11  C   UNL     1      -2.798   0.502  -0.098  0.00  0.00    +0.000 C 
BRANCH  11  15
ATOM     12  C   UNL     1       1.398  -0.208   0.593  0.00  0.00    +0.000 A 
ATOM     13  C   UNL     1       0.937   0.051  -0.696  0.00  0.00    +0.000 A 
ATOM     14  C   UNL     1      -0.420   0.287  -0.919  0.00  0.00    +0.000 A 
ATOM     15  C   UNL     1      -1.328   0.269   0.148  0.00  0.00    +0.000 A 
ATOM     16  C   UNL     1      -0.856   0.002   1.440  0.00  0.00    +0.000 A 
ATOM     17  C   UNL     1       0.502  -0.233   1.661  0.00  0.00    +0.000 A 
ENDBRANCH  11  15
ENDBRANCH  10  11
ENDBRANCH   1  10
TORSDOF 5
