REMARK  Name = *****
REMARK  4 active torsions:
REMARK  status: ('A' for Active; 'I' for Inactive)
REMARK    1  A    between atoms: C_1  and  C_2
REMARK    2  A    between atoms: C_5  and  C_7
REMARK    3  A    between atoms: N_8  and  C_9
REMARK    4  A    between atoms: C_13  and  C_15
REMARK                            x       y       z     vdW  Elec       q    Type
REMARK                         _______ _______ _______ _____ _____    ______ ____
ROOT
ATOM      1  C   UNL     1      -5.333   0.445  -0.515  0.00  0.00    +0.000 A 
ATOM      2  C   UNL     1      -5.715   1.559  -1.265  0.00  0.00    +0.000 A 
ATOM      3  C   UNL     1      -6.995   2.098  -1.130  0.00  0.00    +0.000 A 
ATOM      4  C   UNL     1      -7.907   1.515  -0.249  0.00  0.00    +0.000 A 
ATOM      5  C   UNL     1      -7.549   0.382   0.497  0.00  0.00    +0.000 A 
ATOM      6  C   UNL     1      -6.255  -0.146   0.352  0.00  0.00    +0.000 A 
ENDROOT
BRANCH   5   7
ATOM      7  C   UNL     1      -8.520  -0.271   1.447  0.00  0.00    +0.000 C 
ATOM      8  F   UNL     1      -9.763   0.287   1.423  0.00  0.00    +0.000 F 
ATOM      9  F   UNL     1      -8.702  -1.595   1.186  0.00  0.00    +0.000 F 
ATOM     10  F   UNL     1      -8.105  -0.198   2.742  0.00  0.00    +0.000 F 
ENDBRANCH   5   7
BRANCH   1  12
ATOM     11  C   UNL     1      -3.113   0.453   0.033  0.00  0.00    +0.000 C 
ATOM     12  N   UNL     1      -4.056  -0.110  -0.658  0.00  0.00    +0.000 NA
BRANCH  11  17
ATOM     13  C   UNL     1       2.079  -0.164   0.751  0.00  0.00    +0.000 C 
ATOM     14  C   UNL     1       0.669  -0.323   0.295  0.00  0.00    +0.000 A 
ATOM     15  C   UNL     1       0.149  -1.256  -0.578  0.00  0.00    +0.000 A 
ATOM     16  C   UNL     1      -1.253  -1.088  -0.772  0.00  0.00    +0.000 A 
ATOM     17  C   UNL     1      -1.758  -0.033  -0.040  0.00  0.00    +0.000 A 
ATOM     18  S   UNL     1      -0.540   0.743   0.871  0.00  0.00    +0.000 S 
ENDBRANCH  11  17
ENDBRANCH   1  12
TORSDOF 3
