REMARK  Name = *****
REMARK  3 active torsions:
REMARK  status: ('A' for Active; 'I' for Inactive)
REMARK    1  A    between atoms: C_3  and  O_9
REMARK    2  A    between atoms: O_9  and  C_10
REMARK    3  A    between atoms: C_10  and  C_12
REMARK                            x       y       z     vdW  Elec       q    Type
REMARK                         _______ _______ _______ _____ _____    ______ ____
ROOT
ATOM      1  C   UNL     1      -2.510  -3.496  -0.042  0.00  0.00    +0.000 C 
ATOM      2  O   UNL     1      -3.595  -3.018  -0.338  0.00  0.00    +0.000 OA
ENDROOT
BRANCH   1   3
ATOM      3  C   UNL     1      -2.239  -4.954  -0.083  0.00  0.00    +0.000 A 
ATOM      4  C   UNL     1      -1.110  -5.540   0.500  0.00  0.00    +0.000 A 
ATOM      5  C   UNL     1      -0.884  -6.911   0.403  0.00  0.00    +0.000 A 
ATOM      6  C   UNL     1      -1.800  -7.704  -0.275  0.00  0.00    +0.000 A 
ATOM      7  C   UNL     1      -2.940  -7.151  -0.848  0.00  0.00    +0.000 A 
ATOM      8  C   UNL     1      -3.163  -5.776  -0.751  0.00  0.00    +0.000 A 
ATOM      9  F   UNL     1      -1.585  -9.022  -0.375  0.00  0.00    +0.000 F 
ATOM     10  F   UNL     1      -0.217  -4.813   1.185  0.00  0.00    +0.000 F 
ENDBRANCH   1   3
BRANCH   1  11
ATOM     11  O   UNL     1      -1.367  -2.804   0.300  0.00  0.00    +0.000 OA
BRANCH  11  14
ATOM     12  C   UNL     1      -2.309   0.709   0.973  0.00  0.00    +0.000 A 
ATOM     13  C   UNL     1      -2.316  -0.684   1.014  0.00  0.00    +0.000 A 
ATOM     14  C   UNL     1      -1.417  -1.400   0.219  0.00  0.00    +0.000 A 
ATOM     15  C   UNL     1      -0.484  -0.743  -0.595  0.00  0.00    +0.000 A 
ATOM     16  C   UNL     1      -0.480   0.657  -0.622  0.00  0.00    +0.000 A 
ATOM     17  C   UNL     1      -1.393   1.378   0.158  0.00  0.00    +0.000 A 
ATOM     18 CL   UNL     1       0.631   1.563  -1.589  0.00  0.00    +0.000 Cl
ATOM     19 CL   UNL     1       0.632  -1.674  -1.538  0.00  0.00    +0.000 Cl
ENDBRANCH  11  14
ENDBRANCH   1  11
TORSDOF 3
