REMARK  Name = *****
REMARK  4 active torsions:
REMARK  status: ('A' for Active; 'I' for Inactive)
REMARK    1  A    between atoms: C_1  and  C_2
REMARK    2  A    between atoms: C_5  and  C_8
REMARK    3  A    between atoms: C_8  and  S_10
REMARK    4  A    between atoms: S_10  and  C_11
REMARK                            x       y       z     vdW  Elec       q    Type
REMARK                         _______ _______ _______ _____ _____    ______ ____
ROOT
ATOM      1  C   UNL     1      -3.532  -0.125   0.222  0.00  0.00    +0.000 C 
ATOM      2  O   UNL     1      -4.074  -1.111  -0.265  0.00  0.00    +0.000 OA
ENDROOT
BRANCH   1   7
ATOM      3  C   UNL     1       2.251   0.342  -0.188  0.00  0.00    +0.000 C 
ATOM      4  C   UNL     1       0.756   0.253  -0.099  0.00  0.00    +0.000 A 
ATOM      5  C   UNL     1       0.023   1.262   0.535  0.00  0.00    +0.000 A 
ATOM      6  C   UNL     1      -1.369   1.168   0.651  0.00  0.00    +0.000 A 
ATOM      7  C   UNL     1      -2.050   0.054   0.143  0.00  0.00    +0.000 A 
ATOM      8  C   UNL     1      -1.308  -0.962  -0.480  0.00  0.00    +0.000 A 
ATOM      9  C   UNL     1       0.082  -0.866  -0.594  0.00  0.00    +0.000 A 
ENDBRANCH   1   7
BRANCH   1  10
ATOM     10  S   UNL     1      -4.492   1.095   1.053  0.00  0.00    +0.000 S 
BRANCH  10  11
ATOM     11  C   UNL     1      -5.225   1.933  -0.340  0.00  0.00    +0.000 A 
ATOM     12  C   UNL     1      -4.993   3.301  -0.515  0.00  0.00    +0.000 A 
ATOM     13  C   UNL     1      -5.571   3.972  -1.592  0.00  0.00    +0.000 A 
ATOM     14  C   UNL     1      -6.386   3.295  -2.497  0.00  0.00    +0.000 A 
ATOM     15  C   UNL     1      -6.629   1.933  -2.321  0.00  0.00    +0.000 A 
ATOM     16  C   UNL     1      -6.053   1.256  -1.243  0.00  0.00    +0.000 A 
ATOM     17 CL   UNL     1      -5.275   5.654  -1.806  0.00  0.00    +0.000 Cl
ENDBRANCH  10  11
ENDBRANCH   1  10
TORSDOF 3
