REMARK  Name = *****
REMARK  3 active torsions:
REMARK  status: ('A' for Active; 'I' for Inactive)
REMARK    1  A    between atoms: C_4  and  C_7
REMARK    2  A    between atoms: C_8  and  C_9
REMARK    3  A    between atoms: C_9  and  C_10
REMARK                            x       y       z     vdW  Elec       q    Type
REMARK                         _______ _______ _______ _____ _____    ______ ____
ROOT
ATOM      1  C   UNL     1       2.675  -0.515  -0.319  0.00  0.00    +0.000 C 
ATOM      2  C   UNL     1       3.372   0.335  -1.089  0.00  0.00    +0.000 C 
ATOM      3  F   UNL     1       3.265  -1.704  -0.045  0.00  0.00    +0.000 F 
ENDROOT
BRANCH   1   7
ATOM      4  C   UNL     1      -1.002  -1.159   1.900  0.00  0.00    +0.000 C 
ATOM      5  C   UNL     1       0.003  -0.148   2.444  0.00  0.00    +0.000 C 
ATOM      6  C   UNL     1       1.381  -0.328   1.811  0.00  0.00    +0.000 C 
ATOM      7  C   UNL     1       1.310  -0.269   0.277  0.00  0.00    +0.000 C 
ATOM      8  C   UNL     1       0.301  -1.295  -0.260  0.00  0.00    +0.000 C 
ATOM      9  C   UNL     1      -1.076  -1.114   0.377  0.00  0.00    +0.000 C 
ENDBRANCH   1   7
BRANCH   2  10
ATOM     10  C   UNL     1       2.918   1.699  -1.522  0.00  0.00    +0.000 C 
BRANCH  10  11
ATOM     11  C   UNL     1       3.866   2.344  -2.507  0.00  0.00    +0.000 A 
ATOM     12  C   UNL     1       3.742   2.096  -3.882  0.00  0.00    +0.000 A 
ATOM     13  C   UNL     1       4.630   2.676  -4.788  0.00  0.00    +0.000 A 
ATOM     14  C   UNL     1       5.653   3.504  -4.331  0.00  0.00    +0.000 A 
ATOM     15  C   UNL     1       5.792   3.750  -2.966  0.00  0.00    +0.000 A 
ATOM     16  C   UNL     1       4.905   3.171  -2.057  0.00  0.00    +0.000 A 
ENDBRANCH  10  11
ENDBRANCH   2  10
TORSDOF 3
