REMARK  Name = *****
REMARK  3 active torsions:
REMARK  status: ('A' for Active; 'I' for Inactive)
REMARK    1  A    between atoms: C_4  and  C_7
REMARK    2  A    between atoms: C_8  and  C_9
REMARK    3  A    between atoms: C_9  and  C_10
REMARK                            x       y       z     vdW  Elec       q    Type
REMARK                         _______ _______ _______ _____ _____    ______ ____
ROOT
ATOM      1  C   UNL     1      -2.701   0.453  -0.578  0.00  0.00    +0.000 C 
ATOM      2  C   UNL     1      -3.719  -0.398  -0.371  0.00  0.00    +0.000 C 
ENDROOT
BRANCH   1   6
ATOM      3  C   UNL     1       1.374  -0.228   0.529  0.00  0.00    +0.000 A 
ATOM      4  C   UNL     1       0.604  -1.290   0.059  0.00  0.00    +0.000 A 
ATOM      5  C   UNL     1      -0.731  -1.082  -0.299  0.00  0.00    +0.000 A 
ATOM      6  C   UNL     1      -1.312   0.187  -0.179  0.00  0.00    +0.000 A 
ATOM      7  C   UNL     1      -0.523   1.249   0.280  0.00  0.00    +0.000 A 
ATOM      8  C   UNL     1       0.812   1.042   0.638  0.00  0.00    +0.000 A 
ENDBRANCH   1   6
BRANCH   2   9
ATOM      9  C   UNL     1      -5.139  -0.118  -0.778  0.00  0.00    +0.000 C 
BRANCH   9  10
ATOM     10  C   UNL     1      -5.659  -1.128  -1.769  0.00  0.00    +0.000 A 
ATOM     11  C   UNL     1      -5.241  -1.100  -3.108  0.00  0.00    +0.000 A 
ATOM     12  C   UNL     1      -5.719  -2.044  -4.020  0.00  0.00    +0.000 A 
ATOM     13  C   UNL     1      -6.618  -3.027  -3.606  0.00  0.00    +0.000 A 
ATOM     14  C   UNL     1      -7.037  -3.067  -2.278  0.00  0.00    +0.000 A 
ATOM     15  C   UNL     1      -6.556  -2.125  -1.373  0.00  0.00    +0.000 A 
ATOM     16  F   UNL     1      -6.970  -2.187  -0.099  0.00  0.00    +0.000 F 
ENDBRANCH   9  10
ENDBRANCH   2   9
TORSDOF 3
