REMARK  Name = *****
REMARK  5 active torsions:
REMARK  status: ('A' for Active; 'I' for Inactive)
REMARK    1  A    between atoms: C_1  and  C_2
REMARK    2  A    between atoms: C_2  and  C_3
REMARK    3  A    between atoms: C_2  and  O_9
REMARK    4  A    between atoms: O_9  and  C_10
REMARK    5  A    between atoms: C_10  and  C_11
REMARK                            x       y       z     vdW  Elec       q    Type
REMARK                         _______ _______ _______ _____ _____    ______ ____
ROOT
ATOM      1  O   UNL     1       2.694  -0.043  -1.403  0.00  0.00    +0.000 OA
ENDROOT
BRANCH   1   3
ATOM      2  C   UNL     1       0.802   0.338   0.104  0.00  0.00    +0.000 C 
ATOM      3  C   UNL     1       2.287  -0.009  -0.026  0.00  0.00    +0.000 C 
BRANCH   3   4
ATOM      4  C   UNL     1       2.781  -1.241   0.717  0.00  0.00    +0.000 A 
ATOM      5  C   UNL     1       1.954  -2.036   1.524  0.00  0.00    +0.000 A 
ATOM      6  C   UNL     1       2.466  -3.155   2.188  0.00  0.00    +0.000 A 
ATOM      7  C   UNL     1       3.811  -3.494   2.059  0.00  0.00    +0.000 A 
ATOM      8  C   UNL     1       4.648  -2.713   1.268  0.00  0.00    +0.000 A 
ATOM      9  C   UNL     1       4.138  -1.596   0.605  0.00  0.00    +0.000 A 
ENDBRANCH   3   4
ENDBRANCH   1   3
BRANCH   1  10
ATOM     10  C   UNL     1       2.010  -0.994  -2.212  0.00  0.00    +0.000 C 
BRANCH  10  11
ATOM     11  C   UNL     1       2.862  -1.263  -3.426  0.00  0.00    +0.000 A 
ATOM     12  C   UNL     1       3.780  -2.324  -3.426  0.00  0.00    +0.000 A 
ATOM     13  C   UNL     1       4.585  -2.564  -4.542  0.00  0.00    +0.000 A 
ATOM     14  C   UNL     1       4.482  -1.737  -5.659  0.00  0.00    +0.000 A 
ATOM     15  C   UNL     1       3.586  -0.671  -5.668  0.00  0.00    +0.000 A 
ATOM     16  C   UNL     1       2.781  -0.431  -4.552  0.00  0.00    +0.000 A 
ATOM     17 CL   UNL     1       5.474  -2.032  -7.034  0.00  0.00    +0.000 Cl
ENDBRANCH  10  11
ENDBRANCH   1  10
TORSDOF 4
