REMARK  Name = *****
REMARK  2 active torsions:
REMARK  status: ('A' for Active; 'I' for Inactive)
REMARK    1  A    between atoms: C_5  and  C_9
REMARK    2  A    between atoms: C_10  and  C_11
REMARK                            x       y       z     vdW  Elec       q    Type
REMARK                         _______ _______ _______ _____ _____    ______ ____
ROOT
ATOM      1  C   UNL     1       1.192   0.815   0.790  0.00  0.00    +0.000 C 
ATOM      2  C   UNL     1       1.360  -0.714   0.690  0.00  0.00    +0.000 C 
ATOM      3  C   UNL     1       0.374  -1.247  -0.352  0.00  0.00    +0.000 C 
ATOM      4  C   UNL     1      -1.015  -1.314   0.231  0.00  0.00    +0.000 C 
ATOM      5  C   UNL     1      -1.767  -0.229   0.509  0.00  0.00    +0.000 C 
ATOM      6  C   UNL     1      -1.275   1.182   0.221  0.00  0.00    +0.000 C 
ATOM      7  C   UNL     1       0.185   1.291  -0.270  0.00  0.00    +0.000 C 
ATOM      8  S   UNL     1       0.444   0.074  -1.587  0.00  0.00    +0.000 S 
ENDROOT
BRANCH   5   9
ATOM      9  C   UNL     1      -3.062  -0.405   1.078  0.00  0.00    +0.000 C 
ATOM     10  C   UNL     1      -4.154  -0.551   1.558  0.00  0.00    +0.000 C 
BRANCH  10  11
ATOM     11  C   UNL     1      -5.453  -0.730   2.128  0.00  0.00    +0.000 A 
ATOM     12  C   UNL     1      -5.935  -2.016   2.381  0.00  0.00    +0.000 A 
ATOM     13  C   UNL     1      -7.204  -2.190   2.937  0.00  0.00    +0.000 A 
ATOM     14  C   UNL     1      -7.992  -1.080   3.240  0.00  0.00    +0.000 A 
ATOM     15  C   UNL     1      -7.513   0.206   2.987  0.00  0.00    +0.000 A 
ATOM     16  C   UNL     1      -6.244   0.381   2.431  0.00  0.00    +0.000 A 
ENDBRANCH  10  11
ENDBRANCH   5   9
TORSDOF 2
