REMARK  Name = *****
REMARK  4 active torsions:
REMARK  status: ('A' for Active; 'I' for Inactive)
REMARK    1  A    between atoms: C_4  and  S_7
REMARK    2  A    between atoms: C_4  and  S_8
REMARK    3  A    between atoms: S_8  and  C_9
REMARK    4  A    between atoms: C_9  and  S_15
REMARK                            x       y       z     vdW  Elec       q    Type
REMARK                         _______ _______ _______ _____ _____    ______ ____
ROOT
ATOM      1  S   UNL     1      -1.018  -1.115   1.985  0.00  0.00    +0.000 S 
ENDROOT
BRANCH   1   5
ATOM      2  C   UNL     1      -0.083   1.970  -0.227  0.00  0.00    +0.000 C 
ATOM      3  C   UNL     1       0.949   0.941   0.219  0.00  0.00    +0.000 C 
ATOM      4  C   UNL     1       0.595  -0.460  -0.287  0.00  0.00    +0.000 C 
ATOM      5  C   UNL     1      -0.809  -0.935   0.143  0.00  0.00    +0.000 C 
ATOM      6  C   UNL     1      -1.838   0.145  -0.304  0.00  0.00    +0.000 C 
ATOM      7  C   UNL     1      -1.498   1.565   0.168  0.00  0.00    +0.000 C 
BRANCH   5   8
ATOM      8  S   UNL     1      -1.245  -2.458  -0.775  0.00  0.00    +0.000 S 
ATOM      9  H   UNL     1      -1.069  -2.251  -2.107  0.00  0.00    +0.000 HD
ENDBRANCH   5   8
ENDBRANCH   1   5
BRANCH   1  10
ATOM     10  C   UNL     1      -0.269  -2.721   2.555  0.00  0.00    +0.000 C 
ATOM     11  C   UNL     1      -0.166  -2.633   4.106  0.00  0.00    +0.000 C 
ATOM     12  C   UNL     1       0.963  -1.722   4.600  0.00  0.00    +0.000 C 
ATOM     13  C   UNL     1       2.304  -2.134   4.008  0.00  0.00    +0.000 C 
ATOM     14  C   UNL     1       2.244  -2.186   2.487  0.00  0.00    +0.000 C 
ATOM     15  C   UNL     1       1.113  -3.093   1.991  0.00  0.00    +0.000 C 
BRANCH  10  16
ATOM     16  S   UNL     1      -1.469  -4.086   2.250  0.00  0.00    +0.000 S 
ATOM     17  H   UNL     1      -2.685  -3.742   2.754  0.00  0.00    +0.000 HD
ENDBRANCH  10  16
ENDBRANCH   1  10
TORSDOF 4
