REMARK  Name = *****
REMARK  2 active torsions:
REMARK  status: ('A' for Active; 'I' for Inactive)
REMARK    1  A    between atoms: C_2  and  C_10
REMARK    2  A    between atoms: N_3  and  C_4
REMARK                            x       y       z     vdW  Elec       q    Type
REMARK                         _______ _______ _______ _____ _____    ______ ____
ROOT
ATOM      1  C   UNL     1      -0.252   0.549   0.259  0.00  0.00    +0.000 C 
ATOM      2  C   UNL     1       0.477  -0.786   0.306  0.00  0.00    +0.000 C 
ATOM      3  N   UNL     1      -0.917  -0.652   0.738  0.00  0.00    +0.000 N 
ENDROOT
BRANCH   2   4
ATOM      4  C   UNL     1       1.523  -1.027   1.363  0.00  0.00    +0.000 A 
ATOM      5  C   UNL     1       1.318  -1.941   2.411  0.00  0.00    +0.000 A 
ATOM      6  C   UNL     1       2.297  -2.172   3.382  0.00  0.00    +0.000 A 
ATOM      7  C   UNL     1       3.507  -1.490   3.316  0.00  0.00    +0.000 A 
ATOM      8  C   UNL     1       3.744  -0.582   2.288  0.00  0.00    +0.000 A 
ATOM      9  C   UNL     1       2.759  -0.357   1.321  0.00  0.00    +0.000 A 
ATOM     10 CL   UNL     1       4.716  -1.770   4.506  0.00  0.00    +0.000 Cl
ENDBRANCH   2   4
BRANCH   3  11
ATOM     11  C   UNL     1      -1.945  -1.233  -0.043  0.00  0.00    +0.000 A 
ATOM     12  C   UNL     1      -1.898  -2.586  -0.405  0.00  0.00    +0.000 A 
ATOM     13  C   UNL     1      -2.932  -3.166  -1.144  0.00  0.00    +0.000 A 
ATOM     14  C   UNL     1      -4.037  -2.401  -1.514  0.00  0.00    +0.000 A 
ATOM     15  C   UNL     1      -4.113  -1.062  -1.136  0.00  0.00    +0.000 A 
ATOM     16  C   UNL     1      -3.077  -0.486  -0.397  0.00  0.00    +0.000 A 
ENDBRANCH   3  11
TORSDOF 2
