REMARK  Name = *****
REMARK  3 active torsions:
REMARK  status: ('A' for Active; 'I' for Inactive)
REMARK    1  A    between atoms: C_3  and  N_9
REMARK    2  A    between atoms: N_9  and  C_10
REMARK    3  A    between atoms: C_10  and  C_11
REMARK                            x       y       z     vdW  Elec       q    Type
REMARK                         _______ _______ _______ _____ _____    ______ ____
ROOT
ATOM      1  C   UNL     1       0.277  -1.213   0.545  0.00  0.00    +0.000 C 
ATOM      2  C   UNL     1       1.342  -0.159   0.363  0.00  0.00    +0.000 C 
ATOM      3  C   UNL     1       1.153   0.905  -0.433  0.00  0.00    +0.000 C 
ATOM      4  C   UNL     1      -0.073   1.053  -1.191  0.00  0.00    +0.000 C 
ATOM      5  C   UNL     1      -1.157   0.305  -0.924  0.00  0.00    +0.000 C 
ATOM      6  C   UNL     1      -1.151  -0.743   0.160  0.00  0.00    +0.000 C 
ATOM      7 CL   UNL     1      -2.126  -2.150  -0.371  0.00  0.00    +0.000 Cl
ATOM      8 CL   UNL     1      -1.965  -0.018   1.595  0.00  0.00    +0.000 Cl
ENDROOT
BRANCH   3   9
ATOM      9  N   UNL     1       2.119   1.839  -0.661  0.00  0.00    +0.000 NA
BRANCH   9  10
ATOM     10  C   UNL     1       2.098   2.849   0.153  0.00  0.00    +0.000 C 
BRANCH  10  11
ATOM     11  C   UNL     1       3.073   3.953   0.053  0.00  0.00    +0.000 A 
ATOM     12  C   UNL     1       4.074   3.939  -0.922  0.00  0.00    +0.000 A 
ATOM     13  C   UNL     1       4.984   4.995  -0.996  0.00  0.00    +0.000 A 
ATOM     14  C   UNL     1       4.891   6.061  -0.099  0.00  0.00    +0.000 A 
ATOM     15  C   UNL     1       3.890   6.073   0.873  0.00  0.00    +0.000 A 
ATOM     16  C   UNL     1       2.978   5.019   0.952  0.00  0.00    +0.000 A 
ENDBRANCH  10  11
ENDBRANCH   9  10
ENDBRANCH   3   9
TORSDOF 3
