REMARK  Name = *****
REMARK  3 active torsions:
REMARK  status: ('A' for Active; 'I' for Inactive)
REMARK    1  A    between atoms: C_6  and  C_7
REMARK    2  A    between atoms: C_7  and  S_8
REMARK    3  A    between atoms: S_8  and  C_9
REMARK                            x       y       z     vdW  Elec       q    Type
REMARK                         _______ _______ _______ _____ _____    ______ ____
ROOT
ATOM      1  S   UNL     1      -4.110   1.631  -0.836  0.00  0.00    +0.000 S 
ENDROOT
BRANCH   1   2
ATOM      2  C   UNL     1      -5.839   1.613  -0.398  0.00  0.00    +0.000 A 
ATOM      3  C   UNL     1      -6.618   0.455  -0.470  0.00  0.00    +0.000 A 
ATOM      4  C   UNL     1      -7.969   0.505  -0.130  0.00  0.00    +0.000 A 
ATOM      5  C   UNL     1      -8.567   1.689   0.273  0.00  0.00    +0.000 A 
ATOM      6  C   UNL     1      -7.793   2.838   0.326  0.00  0.00    +0.000 A 
ATOM      7  C   UNL     1      -6.441   2.813  -0.008  0.00  0.00    +0.000 A 
ATOM      8  F   UNL     1      -8.355   3.993   0.706  0.00  0.00    +0.000 F 
ATOM      9  F   UNL     1      -8.703  -0.613  -0.199  0.00  0.00    +0.000 F 
ENDBRANCH   1   2
BRANCH   1  10
ATOM     10  C   UNL     1      -3.499   0.193   0.108  0.00  0.00    +0.000 C 
BRANCH  10  16
ATOM     11  C   UNL     1      -1.298  -0.473  -0.948  0.00  0.00    +0.000 A 
ATOM     12  C   UNL     1       0.097  -0.510  -0.951  0.00  0.00    +0.000 A 
ATOM     13  C   UNL     1       0.800   0.071   0.097  0.00  0.00    +0.000 A 
ATOM     14  C   UNL     1       0.136   0.691   1.148  0.00  0.00    +0.000 A 
ATOM     15  C   UNL     1      -1.259   0.730   1.154  0.00  0.00    +0.000 A 
ATOM     16  C   UNL     1      -1.991   0.141   0.109  0.00  0.00    +0.000 A 
ATOM     17  F   UNL     1       2.140   0.035   0.093  0.00  0.00    +0.000 F 
ENDBRANCH  10  16
ENDBRANCH   1  10
TORSDOF 3
