REMARK  Name = *****
REMARK  6 active torsions:
REMARK  status: ('A' for Active; 'I' for Inactive)
REMARK    1  A    between atoms: C_1  and  C_2
REMARK    2  A    between atoms: C_5  and  C_8
REMARK    3  A    between atoms: C_8  and  C_9
REMARK    4  A    between atoms: C_9  and  C_10
REMARK    5  A    between atoms: C_13  and  C_16
REMARK    6  A    between atoms: C_16  and  O_17
REMARK                            x       y       z     vdW  Elec       q    Type
REMARK                         _______ _______ _______ _____ _____    ______ ____
ROOT
ATOM      1  C   UNL     1      -3.220   1.344   0.525  0.00  0.00    +0.000 C 
ENDROOT
BRANCH   1   2
ATOM      2  C   UNL     1      -2.224   2.294  -0.094  0.00  0.00    +0.000 A 
ATOM      3  C   UNL     1      -2.487   2.889  -1.335  0.00  0.00    +0.000 A 
ATOM      4  C   UNL     1      -1.557   3.753  -1.917  0.00  0.00    +0.000 A 
ATOM      5  C   UNL     1      -0.343   4.027  -1.275  0.00  0.00    +0.000 A 
ATOM      6  C   UNL     1      -0.084   3.438  -0.031  0.00  0.00    +0.000 A 
ATOM      7  C   UNL     1      -1.014   2.574   0.551  0.00  0.00    +0.000 A 
BRANCH   5   8
ATOM      8  C   UNL     1       0.642   4.987  -1.885  0.00  0.00    +0.000 C 
BRANCH   8   9
ATOM      9  O   UNL     1       0.356   6.320  -1.485  0.00  0.00    +0.000 OA
ATOM     10  H   UNL     1      -0.534   6.564  -1.783  0.00  0.00    +0.000 HD
ENDBRANCH   8   9
ENDBRANCH   5   8
ENDBRANCH   1   2
BRANCH   1  11
ATOM     11  C   UNL     1      -3.012  -0.091   0.032  0.00  0.00    +0.000 C 
BRANCH  11  16
ATOM     12  C   UNL     1      -6.831  -3.737   2.492  0.00  0.00    +0.000 C 
ATOM     13  C   UNL     1      -5.857  -2.780   1.873  0.00  0.00    +0.000 A 
ATOM     14  C   UNL     1      -6.180  -2.106   0.690  0.00  0.00    +0.000 A 
ATOM     15  C   UNL     1      -5.261  -1.239   0.094  0.00  0.00    +0.000 A 
ATOM     16  C   UNL     1      -3.997  -1.043   0.663  0.00  0.00    +0.000 A 
ATOM     17  C   UNL     1      -3.671  -1.725   1.841  0.00  0.00    +0.000 A 
ATOM     18  C   UNL     1      -4.590  -2.592   2.437  0.00  0.00    +0.000 A 
ENDBRANCH  11  16
ENDBRANCH   1  11
TORSDOF 5
