REMARK  Name = *****
REMARK  4 active torsions:
REMARK  status: ('A' for Active; 'I' for Inactive)
REMARK    1  A    between atoms: C_4  and  C_7
REMARK    2  A    between atoms: C_7  and  C_8
REMARK    3  A    between atoms: C_8  and  O_9
REMARK    4  A    between atoms: O_9  and  C_10
REMARK                            x       y       z     vdW  Elec       q    Type
REMARK                         _______ _______ _______ _____ _____    ______ ____
ROOT
ATOM      1  C   UNL     1      -2.857   0.398  -0.208  0.00  0.00    +0.000 C 
ENDROOT
BRANCH   1   5
ATOM      2  C   UNL     1       1.388  -0.209   0.223  0.00  0.00    +0.000 A 
ATOM      3  C   UNL     1       0.826  -0.092  -1.047  0.00  0.00    +0.000 A 
ATOM      4  C   UNL     1      -0.548   0.112  -1.188  0.00  0.00    +0.000 A 
ATOM      5  C   UNL     1      -1.370   0.205  -0.057  0.00  0.00    +0.000 A 
ATOM      6  C   UNL     1      -0.796   0.082   1.215  0.00  0.00    +0.000 A 
ATOM      7  C   UNL     1       0.578  -0.122   1.353  0.00  0.00    +0.000 A 
ENDBRANCH   1   5
BRANCH   1   8
ATOM      8  C   UNL     1      -3.599  -0.934  -0.300  0.00  0.00    +0.000 C 
BRANCH   8   9
ATOM      9  O   UNL     1      -4.993  -0.659  -0.434  0.00  0.00    +0.000 OA
BRANCH   9  10
ATOM     10  C   UNL     1      -5.808  -1.719  -0.526  0.00  0.00    +0.000 A 
ATOM     11  C   UNL     1      -5.547  -3.078  -0.521  0.00  0.00    +0.000 A 
ATOM     12  C   UNL     1      -6.724  -3.874  -0.643  0.00  0.00    +0.000 A 
ATOM     13  C   UNL     1      -7.857  -3.100  -0.737  0.00  0.00    +0.000 A 
ATOM     14  S   UNL     1      -7.495  -1.433  -0.679  0.00  0.00    +0.000 S 
ENDBRANCH   9  10
ENDBRANCH   8   9
ENDBRANCH   1   8
TORSDOF 4
