REMARK  Name = *****
REMARK  3 active torsions:
REMARK  status: ('A' for Active; 'I' for Inactive)
REMARK    1  A    between atoms: C_4  and  C_7
REMARK    2  A    between atoms: C_7  and  C_15
REMARK    3  A    between atoms: C_8  and  C_9
REMARK                            x       y       z     vdW  Elec       q    Type
REMARK                         _______ _______ _______ _____ _____    ______ ____
ROOT
ATOM      1  C   UNL     1      -2.848   0.327  -0.506  0.00  0.00    +0.000 C 
ATOM      2  C   UNL     1      -3.437   1.478  -0.118  0.00  0.00    +0.000 C 
ENDROOT
BRANCH   1   6
ATOM      3  C   UNL     1       1.339  -0.197   0.247  0.00  0.00    +0.000 A 
ATOM      4  C   UNL     1       0.416  -1.092   0.782  0.00  0.00    +0.000 A 
ATOM      5  C   UNL     1      -0.949  -0.921   0.537  0.00  0.00    +0.000 A 
ATOM      6  C   UNL     1      -1.403   0.151  -0.245  0.00  0.00    +0.000 A 
ATOM      7  C   UNL     1      -0.462   1.044  -0.781  0.00  0.00    +0.000 A 
ATOM      8  C   UNL     1       0.902   0.870  -0.535  0.00  0.00    +0.000 A 
ENDBRANCH   1   6
BRANCH   2   9
ATOM      9  C   UNL     1      -4.854   1.833  -0.271  0.00  0.00    +0.000 A 
ATOM     10  C   UNL     1      -5.585   2.276   0.829  0.00  0.00    +0.000 A 
ATOM     11  N   UNL     1      -6.883   2.658   0.782  0.00  0.00    +0.000 NA
ATOM     12  C   UNL     1      -7.487   2.597  -0.423  0.00  0.00    +0.000 A 
ATOM     13  C   UNL     1      -6.849   2.186  -1.582  0.00  0.00    +0.000 A 
ATOM     14  C   UNL     1      -5.511   1.806  -1.503  0.00  0.00    +0.000 A 
ENDBRANCH   2   9
BRANCH   1  15
ATOM     15  C   UNL     1      -3.570  -0.748  -1.114  0.00  0.00    +0.000 C 
ATOM     16  N   UNL     1      -4.151  -1.620  -1.614  0.00  0.00    +0.000 NA
ENDBRANCH   1  15
TORSDOF 3
