REMARK  Name = *****
REMARK  3 active torsions:
REMARK  status: ('A' for Active; 'I' for Inactive)
REMARK    1  A    between atoms: C_4  and  C_7
REMARK    2  A    between atoms: C_7  and  C_9
REMARK    3  A    between atoms: C_9  and  C_10
REMARK                            x       y       z     vdW  Elec       q    Type
REMARK                         _______ _______ _______ _____ _____    ______ ____
ROOT
ATOM      1  C   UNL     1      -2.770   0.489   0.148  0.00  0.00    +0.000 C 
ATOM      2  O   UNL     1      -2.501   0.741   1.325  0.00  0.00    +0.000 OA
ENDROOT
BRANCH   1   6
ATOM      3  C   UNL     1      -0.927   2.925  -2.881  0.00  0.00    +0.000 A 
ATOM      4  C   UNL     1      -1.822   1.926  -3.261  0.00  0.00    +0.000 A 
ATOM      5  C   UNL     1      -2.433   1.122  -2.294  0.00  0.00    +0.000 A 
ATOM      6  C   UNL     1      -2.151   1.314  -0.936  0.00  0.00    +0.000 A 
ATOM      7  C   UNL     1      -1.249   2.323  -0.565  0.00  0.00    +0.000 A 
ATOM      8  C   UNL     1      -0.640   3.124  -1.533  0.00  0.00    +0.000 A 
ENDBRANCH   1   6
BRANCH   1   9
ATOM      9  C   UNL     1      -3.726  -0.637  -0.202  0.00  0.00    +0.000 C 
BRANCH   9  10
ATOM     10  C   UNL     1      -5.126  -0.173  -0.525  0.00  0.00    +0.000 A 
ATOM     11  C   UNL     1      -5.789  -0.661  -1.662  0.00  0.00    +0.000 A 
ATOM     12  C   UNL     1      -7.089  -0.243  -1.951  0.00  0.00    +0.000 A 
ATOM     13  C   UNL     1      -7.750   0.650  -1.111  0.00  0.00    +0.000 A 
ATOM     14  C   UNL     1      -7.108   1.124   0.031  0.00  0.00    +0.000 A 
ATOM     15  C   UNL     1      -5.807   0.711   0.326  0.00  0.00    +0.000 A 
ATOM     16 CL   UNL     1      -7.881  -0.839  -3.358  0.00  0.00    +0.000 Cl
ENDBRANCH   9  10
ENDBRANCH   1   9
TORSDOF 3
