REMARK  Name = *****
REMARK  2 active torsions:
REMARK  status: ('A' for Active; 'I' for Inactive)
REMARK    1  A    between atoms: C_4  and  C_6
REMARK    2  A    between atoms: N_7  and  C_8
REMARK                            x       y       z     vdW  Elec       q    Type
REMARK                         _______ _______ _______ _____ _____    ______ ____
ROOT
ATOM      1  C   UNL     1       0.424  -4.955   0.091  0.00  0.00    +0.000 A 
ATOM      2  C   UNL     1       1.044  -5.716  -0.903  0.00  0.00    +0.000 A 
ATOM      3  C   UNL     1       0.709  -7.060  -1.062  0.00  0.00    +0.000 A 
ATOM      4  C   UNL     1      -0.234  -7.660  -0.232  0.00  0.00    +0.000 A 
ATOM      5  C   UNL     1      -0.838  -6.902   0.768  0.00  0.00    +0.000 A 
ATOM      6  C   UNL     1      -0.510  -5.558   0.937  0.00  0.00    +0.000 A 
ATOM      7 CL   UNL     1      -1.999  -7.633   1.807  0.00  0.00    +0.000 Cl
ATOM      8 CL   UNL     1       1.470  -7.987  -2.296  0.00  0.00    +0.000 Cl
ENDROOT
BRANCH   1  10
ATOM      9  C   UNL     1       0.024  -2.740  -0.331  0.00  0.00    +0.000 C 
ATOM     10  N   UNL     1       0.776  -3.611   0.267  0.00  0.00    +0.000 NA
BRANCH   9  14
ATOM     11  C   UNL     1       1.249   0.721   0.348  0.00  0.00    +0.000 A 
ATOM     12  C   UNL     1       0.186   1.120  -0.431  0.00  0.00    +0.000 A 
ATOM     13  S   UNL     1      -0.723  -0.210  -1.005  0.00  0.00    +0.000 S 
ATOM     14  C   UNL     1       0.299  -1.330  -0.214  0.00  0.00    +0.000 A 
ATOM     15  C   UNL     1       1.314  -0.697   0.474  0.00  0.00    +0.000 A 
ENDBRANCH   9  14
ENDBRANCH   1  10
TORSDOF 2
