REMARK  Name = *****
REMARK  5 active torsions:
REMARK  status: ('A' for Active; 'I' for Inactive)
REMARK    1  A    between atoms: C_1  and  C_2
REMARK    2  A    between atoms: C_3  and  C_9
REMARK    3  A    between atoms: C_4  and  C_5
REMARK    4  A    between atoms: C_9  and  C_10
REMARK    5  A    between atoms: C_10  and  C_11
REMARK                            x       y       z     vdW  Elec       q    Type
REMARK                         _______ _______ _______ _____ _____    ______ ____
ROOT
ATOM      1  C   UNL     1       1.149  -2.229  -0.205  0.00  0.00    +0.000 C 
ATOM      2  C   UNL     1       2.238  -1.511   0.483  0.00  0.00    +0.000 C 
ATOM      3  C   UNL     1       2.246  -0.894   1.665  0.00  0.00    +0.000 C 
ATOM      4  C   UNL     1       2.550  -0.103   0.491  0.00  0.00    +0.000 C 
ENDROOT
BRANCH   4   5
ATOM      5  C   UNL     1       3.909   0.413   0.210  0.00  0.00    +0.000 C 
ATOM      6  F   UNL     1       4.893  -0.428   0.604  0.00  0.00    +0.000 F 
ATOM      7  F   UNL     1       4.061   0.632  -1.118  0.00  0.00    +0.000 F 
ATOM      8  F   UNL     1       4.102   1.597   0.839  0.00  0.00    +0.000 F 
ENDBRANCH   4   5
BRANCH   3   9
ATOM      9  C   UNL     1       1.139  -0.705   2.637  0.00  0.00    +0.000 C 
BRANCH   9  10
ATOM     10  C   UNL     1       1.277  -1.657   3.826  0.00  0.00    +0.000 C 
BRANCH  10  11
ATOM     11  C   UNL     1       0.121  -1.516   4.785  0.00  0.00    +0.000 A 
ATOM     12  C   UNL     1      -1.061  -2.241   4.580  0.00  0.00    +0.000 A 
ATOM     13  C   UNL     1      -2.142  -2.094   5.451  0.00  0.00    +0.000 A 
ATOM     14  C   UNL     1      -2.051  -1.219   6.533  0.00  0.00    +0.000 A 
ATOM     15  C   UNL     1      -0.882  -0.491   6.743  0.00  0.00    +0.000 A 
ATOM     16  C   UNL     1       0.199  -0.635   5.872  0.00  0.00    +0.000 A 
ENDBRANCH  10  11
ENDBRANCH   9  10
ENDBRANCH   3   9
TORSDOF 4
