REMARK  Name = *****
REMARK  2 active torsions:
REMARK  status: ('A' for Active; 'I' for Inactive)
REMARK    1  A    between atoms: C_4  and  C_6
REMARK    2  A    between atoms: C_8  and  C_9
REMARK                            x       y       z     vdW  Elec       q    Type
REMARK                         _______ _______ _______ _____ _____    ______ ____
ROOT
ATOM      1  C   UNL     1      -1.228   1.247   1.806  0.00  0.00    +0.000 C 
ATOM      2  C   UNL     1      -2.452   1.135   2.236  0.00  0.00    +0.000 C 
ATOM      3  C   UNL     1      -3.673   1.018   2.671  0.00  0.00    +0.000 C 
ENDROOT
BRANCH   3   4
ATOM      4  C   UNL     1      -4.447   2.104   3.290  0.00  0.00    +0.000 A 
ATOM      5  C   UNL     1      -3.953   3.411   3.411  0.00  0.00    +0.000 A 
ATOM      6  C   UNL     1      -4.722   4.414   4.008  0.00  0.00    +0.000 A 
ATOM      7  C   UNL     1      -5.996   4.123   4.491  0.00  0.00    +0.000 A 
ATOM      8  C   UNL     1      -6.501   2.831   4.377  0.00  0.00    +0.000 A 
ATOM      9  C   UNL     1      -5.732   1.828   3.780  0.00  0.00    +0.000 A 
ENDBRANCH   3   4
BRANCH   1  13
ATOM     10  C   UNL     1       1.182   1.803  -0.802  0.00  0.00    +0.000 C 
ATOM     11  C   UNL     1       1.125   0.288  -0.895  0.00  0.00    +0.000 C 
ATOM     12  C   UNL     1       0.320  -0.093   0.337  0.00  0.00    +0.000 C 
ATOM     13  C   UNL     1      -0.786   0.968   0.399  0.00  0.00    +0.000 C 
ATOM     14  C   UNL     1      -0.202   2.209  -0.302  0.00  0.00    +0.000 C 
ENDBRANCH   1  13
TORSDOF 2
