REMARK  Name = *****
REMARK  3 active torsions:
REMARK  status: ('A' for Active; 'I' for Inactive)
REMARK    1  A    between atoms: C_4  and  O_7
REMARK    2  A    between atoms: O_7  and  C_8
REMARK    3  A    between atoms: C_8  and  C_10
REMARK                            x       y       z     vdW  Elec       q    Type
REMARK                         _______ _______ _______ _____ _____    ______ ____
ROOT
ATOM      1  C   UNL     1       3.406  -1.766   0.225  0.00  0.00    +0.000 C 
ATOM      2  O   UNL     1       3.085  -2.367   1.237  0.00  0.00    +0.000 OA
ENDROOT
BRANCH   1   3
ATOM      3  C   UNL     1       4.677  -2.019  -0.509  0.00  0.00    +0.000 A 
ATOM      4  C   UNL     1       5.535  -3.017  -0.022  0.00  0.00    +0.000 A 
ATOM      5  C   UNL     1       6.739  -3.295  -0.676  0.00  0.00    +0.000 A 
ATOM      6  C   UNL     1       7.088  -2.576  -1.818  0.00  0.00    +0.000 A 
ATOM      7  C   UNL     1       6.244  -1.582  -2.312  0.00  0.00    +0.000 A 
ATOM      8  C   UNL     1       5.039  -1.302  -1.659  0.00  0.00    +0.000 A 
ATOM      9 CL   UNL     1       8.568  -2.918  -2.624  0.00  0.00    +0.000 Cl
ENDBRANCH   1   3
BRANCH   1  10
ATOM     10  O   UNL     1       2.686  -0.798  -0.394  0.00  0.00    +0.000 OA
BRANCH  10  14
ATOM     11  C   UNL     1      -1.385   0.376  -0.190  0.00  0.00    +0.000 C 
ATOM     12  C   UNL     1      -1.039  -1.049   0.231  0.00  0.00    +0.000 C 
ATOM     13  C   UNL     1       0.349  -1.456  -0.252  0.00  0.00    +0.000 C 
ATOM     14  C   UNL     1       1.422  -0.465   0.210  0.00  0.00    +0.000 C 
ATOM     15  C   UNL     1       1.068   0.959  -0.227  0.00  0.00    +0.000 C 
ATOM     16  C   UNL     1      -0.318   1.371   0.257  0.00  0.00    +0.000 C 
ENDBRANCH  10  14
ENDBRANCH   1  10
TORSDOF 3
