REMARK  Name = *****
REMARK  4 active torsions:
REMARK  status: ('A' for Active; 'I' for Inactive)
REMARK    1  A    between atoms: C_1  and  C_2
REMARK    2  A    between atoms: C_7  and  O_8
REMARK    3  A    between atoms: O_8  and  C_9
REMARK    4  A    between atoms: C_9  and  C_11
REMARK                            x       y       z     vdW  Elec       q    Type
REMARK                         _______ _______ _______ _____ _____    ______ ____
ROOT
ATOM      1  C   UNL     1       1.985  -2.659  -0.145  0.00  0.00    +0.000 C 
ATOM      2  O   UNL     1       2.272  -2.314   0.990  0.00  0.00    +0.000 OA
ENDROOT
BRANCH   1   3
ATOM      3  C   UNL     1       2.655  -3.775  -0.834  0.00  0.00    +0.000 A 
ATOM      4  C   UNL     1       4.057  -3.764  -0.851  0.00  0.00    +0.000 A 
ATOM      5  C   UNL     1       4.757  -4.788  -1.491  0.00  0.00    +0.000 A 
ATOM      6  C   UNL     1       4.060  -5.827  -2.105  0.00  0.00    +0.000 A 
ATOM      7  C   UNL     1       2.663  -5.851  -2.071  0.00  0.00    +0.000 A 
ATOM      8  C   UNL     1       1.955  -4.829  -1.430  0.00  0.00    +0.000 A 
ATOM      9 CL   UNL     1       0.234  -4.965  -1.370  0.00  0.00    +0.000 Cl
ENDBRANCH   1   3
BRANCH   1  10
ATOM     10  O   UNL     1       1.142  -2.047  -1.049  0.00  0.00    +0.000 OA
BRANCH  10  17
ATOM     11  C   UNL     1       2.358   0.573  -1.224  0.00  0.00    +0.000 C 
ATOM     12  C   UNL     1       1.011   0.337  -0.610  0.00  0.00    +0.000 A 
ATOM     13  C   UNL     1       0.280   1.407  -0.077  0.00  0.00    +0.000 A 
ATOM     14  C   UNL     1      -0.971   1.192   0.510  0.00  0.00    +0.000 A 
ATOM     15  C   UNL     1      -1.507  -0.094   0.574  0.00  0.00    +0.000 A 
ATOM     16  C   UNL     1      -0.789  -1.171   0.061  0.00  0.00    +0.000 A 
ATOM     17  C   UNL     1       0.468  -0.950  -0.504  0.00  0.00    +0.000 A 
ENDBRANCH  10  17
ENDBRANCH   1  10
TORSDOF 3
