REMARK  Name = *****
REMARK  3 active torsions:
REMARK  status: ('A' for Active; 'I' for Inactive)
REMARK    1  A    between atoms: C_1  and  C_2
REMARK    2  A    between atoms: N_7  and  C_8
REMARK    3  A    between atoms: C_8  and  C_9
REMARK                            x       y       z     vdW  Elec       q    Type
REMARK                         _______ _______ _______ _____ _____    ______ ____
ROOT
ATOM      1  C   UNL     1       0.969   0.205   0.225  0.00  0.00    +0.000 C 
ATOM      2  C   UNL     1       2.488   0.054   0.100  0.00  0.00    +0.000 C 
ATOM      3  C   UNL     1       3.079   1.044  -0.920  0.00  0.00    +0.000 C 
ATOM      4  C   UNL     1       2.742   0.686  -2.370  0.00  0.00    +0.000 C 
ATOM      5  C   UNL     1       3.152  -0.742  -2.713  0.00  0.00    +0.000 C 
ATOM      6  C   UNL     1       2.549  -1.690  -1.696  0.00  0.00    +0.000 C 
ATOM      7  N   UNL     1       1.810  -2.715  -1.944  0.00  0.00    +0.000 NA
ATOM      8  C   UNL     1       2.877  -1.387  -0.245  0.00  0.00    +0.000 C 
ENDROOT
BRANCH   7   9
ATOM      9  C   UNL     1       1.474  -3.047  -3.327  0.00  0.00    +0.000 C 
BRANCH   9  10
ATOM     10  C   UNL     1       0.584  -4.266  -3.420  0.00  0.00    +0.000 A 
ATOM     11  C   UNL     1      -0.497  -4.436  -2.543  0.00  0.00    +0.000 A 
ATOM     12  C   UNL     1      -1.342  -5.541  -2.659  0.00  0.00    +0.000 A 
ATOM     13  C   UNL     1      -1.122  -6.485  -3.660  0.00  0.00    +0.000 A 
ATOM     14  C   UNL     1      -0.059  -6.324  -4.546  0.00  0.00    +0.000 A 
ATOM     15  C   UNL     1       0.787  -5.218  -4.431  0.00  0.00    +0.000 A 
ENDBRANCH   9  10
ENDBRANCH   7   9
TORSDOF 2
