REMARK  Name = *****
REMARK  2 active torsions:
REMARK  status: ('A' for Active; 'I' for Inactive)
REMARK    1  A    between atoms: C_1  and  C_2
REMARK    2  A    between atoms: C_9  and  C_11
REMARK                            x       y       z     vdW  Elec       q    Type
REMARK                         _______ _______ _______ _____ _____    ______ ____
ROOT
ATOM      1  C   UNL     1       1.062   0.095  -0.030  0.00  0.00    +0.000 C 
ATOM      2  C   UNL     1       2.564   0.063  -0.006  0.00  0.00    +0.000 A 
ATOM      3  C   UNL     1       3.248  -1.168  -0.026  0.00  0.00    +0.000 A 
ATOM      4  C   UNL     1       4.650  -1.155  -0.006  0.00  0.00    +0.000 A 
ATOM      5  C   UNL     1       5.309   0.061   0.031  0.00  0.00    +0.000 A 
ATOM      6  C   UNL     1       4.683   1.300   0.051  0.00  0.00    +0.000 A 
ATOM      7  C   UNL     1       3.283   1.273   0.030  0.00  0.00    +0.000 A 
ATOM      8  O   UNL     1       6.649  -0.190   0.043  0.00  0.00    +0.000 OA
ATOM      9  C   UNL     1       6.730  -1.561   0.011  0.00  0.00    +0.000 A 
ATOM     10  N   UNL     1       5.562  -2.179  -0.018  0.00  0.00    +0.000 NA
ENDROOT
BRANCH   9  11
ATOM     11  C   UNL     1       8.073  -2.139   0.012  0.00  0.00    +0.000 A 
ATOM     12  C   UNL     1       9.227  -1.340   0.044  0.00  0.00    +0.000 A 
ATOM     13  C   UNL     1      10.500  -1.922   0.042  0.00  0.00    +0.000 A 
ATOM     14  C   UNL     1      10.628  -3.308   0.008  0.00  0.00    +0.000 A 
ATOM     15  C   UNL     1       9.496  -4.118  -0.024  0.00  0.00    +0.000 A 
ATOM     16  C   UNL     1       8.225  -3.534  -0.022  0.00  0.00    +0.000 A 
ATOM     17 CL   UNL     1      12.193  -4.022   0.005  0.00  0.00    +0.000 Cl
ENDBRANCH   9  11
TORSDOF 1
