REMARK  Name = *****
REMARK  3 active torsions:
REMARK  status: ('A' for Active; 'I' for Inactive)
REMARK    1  A    between atoms: C_4  and  C_7
REMARK    2  A    between atoms: C_7  and  O_8
REMARK    3  A    between atoms: O_8  and  C_9
REMARK                            x       y       z     vdW  Elec       q    Type
REMARK                         _______ _______ _______ _____ _____    ______ ____
ROOT
ATOM      1  O   UNL     1      -3.574  -0.768  -0.292  0.00  0.00    +0.000 OA
ENDROOT
BRANCH   1   2
ATOM      2  C   UNL     1      -4.927  -0.720  -0.496  0.00  0.00    +0.000 A 
ATOM      3  C   UNL     1      -5.693   0.434  -0.521  0.00  0.00    +0.000 A 
ATOM      4  N   UNL     1      -7.029   0.428  -0.722  0.00  0.00    +0.000 NA
ATOM      5  N   UNL     1      -7.671  -0.756  -0.910  0.00  0.00    +0.000 NA
ATOM      6  C   UNL     1      -6.962  -1.905  -0.891  0.00  0.00    +0.000 A 
ATOM      7  C   UNL     1      -5.592  -1.935  -0.687  0.00  0.00    +0.000 A 
ATOM      8 CL   UNL     1      -4.709  -3.426  -0.675  0.00  0.00    +0.000 Cl
ATOM      9 CL   UNL     1      -7.930  -3.304  -1.146  0.00  0.00    +0.000 Cl
ENDBRANCH   1   2
BRANCH   1  10
ATOM     10  C   UNL     1      -2.863   0.470  -0.216  0.00  0.00    +0.000 C 
BRANCH  10  14
ATOM     11  C   UNL     1       1.393  -0.194   0.113  0.00  0.00    +0.000 A 
ATOM     12  C   UNL     1       0.611  -1.073  -0.633  0.00  0.00    +0.000 A 
ATOM     13  C   UNL     1      -0.767  -0.870  -0.736  0.00  0.00    +0.000 A 
ATOM     14  C   UNL     1      -1.381   0.209  -0.082  0.00  0.00    +0.000 A 
ATOM     15  C   UNL     1      -0.578   1.095   0.654  0.00  0.00    +0.000 A 
ATOM     16  C   UNL     1       0.799   0.890   0.754  0.00  0.00    +0.000 A 
ENDBRANCH  10  14
ENDBRANCH   1  10
TORSDOF 3
