REMARK  Name = *****
REMARK  4 active torsions:
REMARK  status: ('A' for Active; 'I' for Inactive)
REMARK    1  A    between atoms: C_4  and  C_7
REMARK    2  A    between atoms: C_7  and  C_8
REMARK    3  A    between atoms: C_8  and  O_10
REMARK    4  A    between atoms: O_10  and  C_11
REMARK                            x       y       z     vdW  Elec       q    Type
REMARK                         _______ _______ _______ _____ _____    ______ ____
ROOT
ATOM      1  C   UNL     1      -3.770  -0.143  -0.347  0.00  0.00    +0.000 C 
ATOM      2  O   UNL     1      -3.573  -1.197  -0.936  0.00  0.00    +0.000 OA
ENDROOT
BRANCH   1   3
ATOM      3  C   UNL     1      -2.716   0.821   0.159  0.00  0.00    +0.000 C 
BRANCH   3   7
ATOM      4  C   UNL     1       1.301  -0.754   0.112  0.00  0.00    +0.000 A 
ATOM      5  C   UNL     1       0.707  -0.324  -1.072  0.00  0.00    +0.000 A 
ATOM      6  C   UNL     1      -0.592   0.186  -1.058  0.00  0.00    +0.000 A 
ATOM      7  C   UNL     1      -1.310   0.272   0.144  0.00  0.00    +0.000 A 
ATOM      8  C   UNL     1      -0.704  -0.170   1.329  0.00  0.00    +0.000 A 
ATOM      9  C   UNL     1       0.596  -0.678   1.312  0.00  0.00    +0.000 A 
ENDBRANCH   3   7
ENDBRANCH   1   3
BRANCH   1  10
ATOM     10  O   UNL     1      -5.022   0.409  -0.061  0.00  0.00    +0.000 OA
BRANCH  10  11
ATOM     11  C   UNL     1      -6.087  -0.384  -0.495  0.00  0.00    +0.000 A 
ATOM     12  C   UNL     1      -6.524  -1.448   0.291  0.00  0.00    +0.000 A 
ATOM     13  C   UNL     1      -7.615  -2.193  -0.144  0.00  0.00    +0.000 A 
ATOM     14  C   UNL     1      -8.274  -1.883  -1.328  0.00  0.00    +0.000 A 
ATOM     15  C   UNL     1      -7.828  -0.804  -2.083  0.00  0.00    +0.000 A 
ATOM     16  C   UNL     1      -6.740  -0.040  -1.676  0.00  0.00    +0.000 A 
ATOM     17  F   UNL     1      -8.463  -0.489  -3.219  0.00  0.00    +0.000 F 
ATOM     18  F   UNL     1      -8.045  -3.222   0.597  0.00  0.00    +0.000 F 
ENDBRANCH  10  11
ENDBRANCH   1  10
TORSDOF 4
