REMARK  Name = *****
REMARK  5 active torsions:
REMARK  status: ('A' for Active; 'I' for Inactive)
REMARK    1  A    between atoms: C_1  and  O_2
REMARK    2  A    between atoms: O_2  and  C_3
REMARK    3  A    between atoms: C_8  and  O_9
REMARK    4  A    between atoms: O_9  and  P_10
REMARK    5  A    between atoms: P_10  and  C_11
REMARK                            x       y       z     vdW  Elec       q    Type
REMARK                         _______ _______ _______ _____ _____    ______ ____
ROOT
ATOM      1  O   UNL     1       4.342   1.490   0.955  0.00  0.00    +0.000 OA
ENDROOT
BRANCH   1   7
ATOM      2  C   UNL     1       3.085  -0.649   0.742  0.00  0.00    +0.000 A 
ATOM      3  C   UNL     1       2.916  -1.937   1.273  0.00  0.00    +0.000 A 
ATOM      4  C   UNL     1       3.682  -2.375   2.358  0.00  0.00    +0.000 A 
ATOM      5  C   UNL     1       4.633  -1.536   2.924  0.00  0.00    +0.000 A 
ATOM      6  C   UNL     1       4.810  -0.253   2.411  0.00  0.00    +0.000 A 
ATOM      7  C   UNL     1       4.032   0.205   1.336  0.00  0.00    +0.000 A 
BRANCH   2   9
ATOM      8  C   UNL     1       1.429  -1.039  -0.940  0.00  0.00    +0.000 C 
ATOM      9  O   UNL     1       2.396  -0.184  -0.346  0.00  0.00    +0.000 OA
ENDBRANCH   2   9
ENDBRANCH   1   7
BRANCH   1  10
ATOM     10  P   UNL     1       3.377   2.567   0.237  0.00  0.00    +0.000 P 
ATOM     11 CL   UNL     1       4.775   4.115  -0.031  0.00  0.00    +0.000 Cl
BRANCH  10  12
ATOM     12  C   UNL     1       2.473   3.242   1.680  0.00  0.00    +0.000 A 
ATOM     13  C   UNL     1       3.010   3.257   2.977  0.00  0.00    +0.000 A 
ATOM     14  C   UNL     1       2.282   3.786   4.047  0.00  0.00    +0.000 A 
ATOM     15  C   UNL     1       1.011   4.315   3.834  0.00  0.00    +0.000 A 
ATOM     16  C   UNL     1       0.467   4.317   2.552  0.00  0.00    +0.000 A 
ATOM     17  C   UNL     1       1.192   3.783   1.483  0.00  0.00    +0.000 A 
ENDBRANCH  10  12
ENDBRANCH   1  10
TORSDOF 4
