REMARK  Name = *****
REMARK  2 active torsions:
REMARK  status: ('A' for Active; 'I' for Inactive)
REMARK    1  A    between atoms: C_5  and  C_8
REMARK    2  A    between atoms: C_9  and  C_10
REMARK                            x       y       z     vdW  Elec       q    Type
REMARK                         _______ _______ _______ _____ _____    ______ ____
ROOT
ATOM      1  C   UNL     1      -0.463  -0.020  -2.857  0.00  0.00    +0.000 C 
ATOM      2  C   UNL     1      -0.700  -0.027  -4.034  0.00  0.00    +0.000 C 
ENDROOT
BRANCH   1   7
ATOM      3  C   UNL     1       1.680   0.005   0.637  0.00  0.00    +0.000 C 
ATOM      4  C   UNL     1       0.824  -1.263   0.543  0.00  0.00    +0.000 C 
ATOM      5  C   UNL     1      -0.205  -1.142  -0.552  0.00  0.00    +0.000 C 
ATOM      6  C   UNL     1      -1.233  -0.011  -0.483  0.00  0.00    +0.000 C 
ATOM      7  C   UNL     1      -0.097  -0.012  -1.489  0.00  0.00    +0.000 C 
ATOM      8  C   UNL     1      -0.213   1.127  -0.563  0.00  0.00    +0.000 C 
ATOM      9  C   UNL     1       0.815   1.265   0.531  0.00  0.00    +0.000 C 
ENDBRANCH   1   7
BRANCH   2  10
ATOM     10  C   UNL     1      -0.914  -0.037  -5.448  0.00  0.00    +0.000 A 
ATOM     11  C   UNL     1      -1.006  -1.250  -6.133  0.00  0.00    +0.000 A 
ATOM     12  C   UNL     1      -1.170  -1.259  -7.520  0.00  0.00    +0.000 A 
ATOM     13  C   UNL     1      -1.243  -0.056  -8.221  0.00  0.00    +0.000 A 
ATOM     14  C   UNL     1      -1.159   1.157  -7.537  0.00  0.00    +0.000 A 
ATOM     15  C   UNL     1      -0.995   1.168  -6.151  0.00  0.00    +0.000 A 
ENDBRANCH   2  10
TORSDOF 2
