REMARK  Name = *****
REMARK  4 active torsions:
REMARK  status: ('A' for Active; 'I' for Inactive)
REMARK    1  A    between atoms: C_4  and  C_7
REMARK    2  A    between atoms: C_7  and  C_8
REMARK    3  A    between atoms: C_8  and  C_9
REMARK    4  A    between atoms: C_8  and  P_15
REMARK                            x       y       z     vdW  Elec       q    Type
REMARK                         _______ _______ _______ _____ _____    ______ ____
ROOT
ATOM      1  C   UNL     1      -3.552  -0.931  -0.233  0.00  0.00    +0.000 C 
ENDROOT
BRANCH   1   2
ATOM      2  C   UNL     1      -3.634  -1.572   1.146  0.00  0.00    +0.000 A 
ATOM      3  C   UNL     1      -3.872  -0.836   2.323  0.00  0.00    +0.000 A 
ATOM      4  C   UNL     1      -3.919  -1.468   3.568  0.00  0.00    +0.000 A 
ATOM      5  C   UNL     1      -3.726  -2.844   3.662  0.00  0.00    +0.000 A 
ATOM      6  C   UNL     1      -3.483  -3.590   2.513  0.00  0.00    +0.000 A 
ATOM      7  C   UNL     1      -3.435  -2.961   1.267  0.00  0.00    +0.000 A 
ENDBRANCH   1   2
BRANCH   1   8
ATOM      8  P   UNL     1      -5.378  -0.681  -0.664  0.00  0.00    +0.000 P 
ATOM      9  O   UNL     1      -5.159  -0.525  -2.223  0.00  0.00    +0.000 OA
ENDBRANCH   1   8
BRANCH   1  10
ATOM     10  C   UNL     1      -2.746   0.376  -0.325  0.00  0.00    +0.000 C 
BRANCH  10  14
ATOM     11  C   UNL     1       1.499  -0.328   0.031  0.00  0.00    +0.000 A 
ATOM     12  C   UNL     1       0.860  -0.511  -1.194  0.00  0.00    +0.000 A 
ATOM     13  C   UNL     1      -0.511  -0.276  -1.308  0.00  0.00    +0.000 A 
ATOM     14  C   UNL     1      -1.256   0.145  -0.197  0.00  0.00    +0.000 A 
ATOM     15  C   UNL     1      -0.603   0.325   1.029  0.00  0.00    +0.000 A 
ATOM     16  C   UNL     1       0.768   0.089   1.141  0.00  0.00    +0.000 A 
ENDBRANCH  10  14
ENDBRANCH   1  10
TORSDOF 4
