REMARK  Name = *****
REMARK  4 active torsions:
REMARK  status: ('A' for Active; 'I' for Inactive)
REMARK    1  A    between atoms: C_4  and  C_7
REMARK    2  A    between atoms: C_8  and  C_9
REMARK    3  A    between atoms: C_9  and  C_10
REMARK    4  A    between atoms: C_13  and  C_16
REMARK                            x       y       z     vdW  Elec       q    Type
REMARK                         _______ _______ _______ _____ _____    ______ ____
ROOT
ATOM      1  C   UNL     1      -5.139  -0.399  -0.654  0.00  0.00    +0.000 C 
ENDROOT
BRANCH   1   2
ATOM      2  C   UNL     1      -5.923  -1.689  -0.739  0.00  0.00    +0.000 A 
ATOM      3  C   UNL     1      -6.802  -2.058   0.290  0.00  0.00    +0.000 A 
ATOM      4  C   UNL     1      -7.514  -3.257   0.215  0.00  0.00    +0.000 A 
ATOM      5  C   UNL     1      -7.346  -4.096  -0.889  0.00  0.00    +0.000 A 
ATOM      6  C   UNL     1      -6.470  -3.745  -1.918  0.00  0.00    +0.000 A 
ATOM      7  C   UNL     1      -5.760  -2.545  -1.840  0.00  0.00    +0.000 A 
BRANCH   5   8
ATOM      8  C   UNL     1      -8.094  -5.367  -0.977  0.00  0.00    +0.000 C 
ATOM      9  O   UNL     1      -8.877  -5.726  -0.106  0.00  0.00    +0.000 OA
ENDBRANCH   5   8
ENDBRANCH   1   2
BRANCH   1  11
ATOM     10  C   UNL     1      -2.654  -0.285  -0.999  0.00  0.00    +0.000 C 
ATOM     11  C   UNL     1      -3.711  -0.630  -0.246  0.00  0.00    +0.000 C 
BRANCH  10  15
ATOM     12  C   UNL     1       1.450  -0.889   0.044  0.00  0.00    +0.000 A 
ATOM     13  C   UNL     1       0.503  -1.850   0.395  0.00  0.00    +0.000 A 
ATOM     14  C   UNL     1      -0.842  -1.661   0.068  0.00  0.00    +0.000 A 
ATOM     15  C   UNL     1      -1.256  -0.504  -0.606  0.00  0.00    +0.000 A 
ATOM     16  C   UNL     1      -0.292   0.446  -0.969  0.00  0.00    +0.000 A 
ATOM     17  C   UNL     1       1.053   0.258  -0.640  0.00  0.00    +0.000 A 
ENDBRANCH  10  15
ENDBRANCH   1  11
TORSDOF 4
