REMARK  Name = *****
REMARK  5 active torsions:
REMARK  status: ('A' for Active; 'I' for Inactive)
REMARK    1  A    between atoms: C_5  and  C_6
REMARK    2  A    between atoms: C_6  and  C_7
REMARK    3  A    between atoms: C_7  and  C_8
REMARK    4  A    between atoms: C_8  and  C_9
REMARK    5  A    between atoms: C_9  and  C_10
REMARK                            x       y       z     vdW  Elec       q    Type
REMARK                         _______ _______ _______ _____ _____    ______ ____
ROOT
ATOM      1  C   UNL     1       3.199  -0.106   1.771  0.00  0.00    +0.000 C 
ENDROOT
BRANCH   1   2
ATOM      2  C   UNL     1       1.797  -0.646   1.455  0.00  0.00    +0.000 C 
BRANCH   2   7
ATOM      3  C   UNL     1      -0.715  -0.620   1.887  0.00  0.00    +0.000 C 
ATOM      4  C   UNL     1      -1.145  -0.123   0.516  0.00  0.00    +0.000 C 
ATOM      5  S   UNL     1      -0.589   1.601   0.440  0.00  0.00    +0.000 S 
ATOM      6  C   UNL     1       0.456   1.511   1.923  0.00  0.00    +0.000 C 
ATOM      7  C   UNL     1       0.637   0.023   2.224  0.00  0.00    +0.000 C 
ENDBRANCH   2   7
ENDBRANCH   1   2
BRANCH   1   8
ATOM      8  C   UNL     1       3.595  -0.093   3.251  0.00  0.00    +0.000 C 
BRANCH   8   9
ATOM      9  C   UNL     1       3.566  -1.483   3.896  0.00  0.00    +0.000 C 
BRANCH   9  10
ATOM     10  C   UNL     1       4.084  -1.478   5.350  0.00  0.00    +0.000 C 
ATOM     11  C   UNL     1       4.255  -2.899   5.901  0.00  0.00    +0.000 C 
ATOM     12  C   UNL     1       2.874  -3.449   6.221  0.00  0.00    +0.000 C 
ATOM     13  S   UNL     1       1.938  -2.032   6.857  0.00  0.00    +0.000 S 
ATOM     14  C   UNL     1       3.149  -0.780   6.341  0.00  0.00    +0.000 C 
ENDBRANCH   9  10
ENDBRANCH   8   9
ENDBRANCH   1   8
TORSDOF 5
