REMARK  Name = *****
REMARK  5 active torsions:
REMARK  status: ('A' for Active; 'I' for Inactive)
REMARK    1  A    between atoms: C_1  and  C_2
REMARK    2  A    between atoms: C_2  and  C_3
REMARK    3  A    between atoms: C_6  and  S_8
REMARK    4  A    between atoms: S_8  and  C_9
REMARK    5  A    between atoms: C_9  and  C_10
REMARK                            x       y       z     vdW  Elec       q    Type
REMARK                         _______ _______ _______ _____ _____    ______ ____
ROOT
ATOM      1  S   UNL     1       5.141   3.310   3.793  0.00  0.00    +0.000 S 
ENDROOT
BRANCH   1   5
ATOM      2  C   UNL     1       2.761   1.191   1.071  0.00  0.00    +0.000 A 
ATOM      3  C   UNL     1       3.354   2.214   0.358  0.00  0.00    +0.000 A 
ATOM      4  C   UNL     1       4.202   3.020   1.174  0.00  0.00    +0.000 A 
ATOM      5  C   UNL     1       4.223   2.591   2.482  0.00  0.00    +0.000 A 
ATOM      6  S   UNL     1       3.239   1.217   2.716  0.00  0.00    +0.000 S 
BRANCH   2   8
ATOM      7  C   UNL     1       0.369   0.583   0.668  0.00  0.00    +0.000 C 
ATOM      8  C   UNL     1       1.820   0.136   0.571  0.00  0.00    +0.000 C 
ENDBRANCH   2   8
ENDBRANCH   1   5
BRANCH   1   9
ATOM      9  C   UNL     1       4.104   4.766   4.125  0.00  0.00    +0.000 C 
BRANCH   9  10
ATOM     10  C   UNL     1       4.631   5.571   5.286  0.00  0.00    +0.000 A 
ATOM     11  C   UNL     1       5.596   6.569   5.083  0.00  0.00    +0.000 A 
ATOM     12  C   UNL     1       6.090   7.306   6.161  0.00  0.00    +0.000 A 
ATOM     13  C   UNL     1       5.630   7.051   7.451  0.00  0.00    +0.000 A 
ATOM     14  C   UNL     1       4.679   6.055   7.666  0.00  0.00    +0.000 A 
ATOM     15  C   UNL     1       4.184   5.317   6.591  0.00  0.00    +0.000 A 
ENDBRANCH   9  10
ENDBRANCH   1   9
TORSDOF 4
