REMARK  Name = *****
REMARK  4 active torsions:
REMARK  status: ('A' for Active; 'I' for Inactive)
REMARK    1  A    between atoms: C_1  and  C_2
REMARK    2  A    between atoms: C_5  and  C_8
REMARK    3  A    between atoms: C_8  and  C_10
REMARK    4  A    between atoms: C_10  and  C_11
REMARK                            x       y       z     vdW  Elec       q    Type
REMARK                         _______ _______ _______ _____ _____    ______ ____
ROOT
ATOM      1  C   UNL     1      -3.330   0.015   0.343  0.00  0.00    +0.000 C 
ATOM      2  O   UNL     1      -4.002  -1.010   0.467  0.00  0.00    +0.000 OA
ENDROOT
BRANCH   1   7
ATOM      3  C   UNL     1       2.165  -0.134   2.239  0.00  0.00    +0.000 C 
ATOM      4  C   UNL     1       0.742  -0.075   1.766  0.00  0.00    +0.000 A 
ATOM      5  C   UNL     1      -0.085  -1.198   1.861  0.00  0.00    +0.000 A 
ATOM      6  C   UNL     1      -1.401  -1.148   1.394  0.00  0.00    +0.000 A 
ATOM      7  C   UNL     1      -1.909   0.022   0.813  0.00  0.00    +0.000 A 
ATOM      8  C   UNL     1      -1.075   1.139   0.699  0.00  0.00    +0.000 A 
ATOM      9  C   UNL     1       0.242   1.087   1.169  0.00  0.00    +0.000 A 
ENDBRANCH   1   7
BRANCH   1  10
ATOM     10  C   UNL     1      -3.941   1.270  -0.256  0.00  0.00    +0.000 C 
BRANCH  10  11
ATOM     11  C   UNL     1      -4.329   2.317   0.769  0.00  0.00    +0.000 A 
ATOM     12  C   UNL     1      -4.102   3.693   0.573  0.00  0.00    +0.000 A 
ATOM     13  C   UNL     1      -4.497   4.627   1.533  0.00  0.00    +0.000 A 
ATOM     14  C   UNL     1      -5.134   4.196   2.687  0.00  0.00    +0.000 A 
ATOM     15  C   UNL     1      -5.394   2.850   2.899  0.00  0.00    +0.000 A 
ATOM     16  C   UNL     1      -5.002   1.915   1.940  0.00  0.00    +0.000 A 
ATOM     17  F   UNL     1      -5.511   5.093   3.607  0.00  0.00    +0.000 F 
ATOM     18 CL   UNL     1      -3.337   4.305  -0.851  0.00  0.00    +0.000 Cl
ENDBRANCH  10  11
ENDBRANCH   1  10
TORSDOF 3
