REMARK  Name = *****
REMARK  4 active torsions:
REMARK  status: ('A' for Active; 'I' for Inactive)
REMARK    1  A    between atoms: C_1  and  C_2
REMARK    2  A    between atoms: C_2  and  C_4
REMARK    3  A    between atoms: C_7  and  C_10
REMARK    4  A    between atoms: C_11  and  C_12
REMARK                            x       y       z     vdW  Elec       q    Type
REMARK                         _______ _______ _______ _____ _____    ______ ____
ROOT
ATOM      1  C   UNL     1       3.229   1.388  -0.044  0.00  0.00    +0.000 A 
ATOM      2  C   UNL     1       2.907   2.499   0.746  0.00  0.00    +0.000 A 
ATOM      3  C   UNL     1       3.679   3.665   0.667  0.00  0.00    +0.000 A 
ATOM      4  C   UNL     1       4.773   3.728  -0.198  0.00  0.00    +0.000 A 
ATOM      5  C   UNL     1       5.097   2.625  -0.989  0.00  0.00    +0.000 A 
ATOM      6  C   UNL     1       4.328   1.460  -0.912  0.00  0.00    +0.000 A 
ENDROOT
BRANCH   1   8
ATOM      7  C   UNL     1       1.277   0.019   0.952  0.00  0.00    +0.000 C 
ATOM      8  C   UNL     1       2.441   0.120   0.003  0.00  0.00    +0.000 C 
ATOM      9  O   UNL     1       2.748  -0.819  -0.728  0.00  0.00    +0.000 OA
ENDBRANCH   1   8
BRANCH   4  10
ATOM     10  C   UNL     1       5.560   4.920  -0.273  0.00  0.00    +0.000 C 
ATOM     11  C   UNL     1       6.224   5.919  -0.336  0.00  0.00    +0.000 C 
BRANCH  11  12
ATOM     12  C   UNL     1       7.019   7.105  -0.413  0.00  0.00    +0.000 A 
ATOM     13  C   UNL     1       8.074   7.183  -1.326  0.00  0.00    +0.000 A 
ATOM     14  C   UNL     1       8.851   8.341  -1.399  0.00  0.00    +0.000 A 
ATOM     15  C   UNL     1       8.575   9.420  -0.561  0.00  0.00    +0.000 A 
ATOM     16  C   UNL     1       7.523   9.345   0.352  0.00  0.00    +0.000 A 
ATOM     17  C   UNL     1       6.744   8.188   0.426  0.00  0.00    +0.000 A 
ENDBRANCH  11  12
ENDBRANCH   4  10
TORSDOF 3
