REMARK  Name = *****
REMARK  4 active torsions:
REMARK  status: ('A' for Active; 'I' for Inactive)
REMARK    1  A    between atoms: C_1  and  C_2
REMARK    2  A    between atoms: C_5  and  C_8
REMARK    3  A    between atoms: C_10  and  C_11
REMARK    4  A    between atoms: C_14  and  C_17
REMARK                            x       y       z     vdW  Elec       q    Type
REMARK                         _______ _______ _______ _____ _____    ______ ____
ROOT
ATOM      1  C   UNL     1      -3.110   0.403   0.262  0.00  0.00    +0.000 C 
ATOM      2  C   UNL     1      -3.742   0.581  -1.093  0.00  0.00    +0.000 C 
ATOM      3  C   UNL     1      -3.479   1.795  -0.237  0.00  0.00    +0.000 C 
ENDROOT
BRANCH   1   8
ATOM      4  C   UNL     1       2.426  -1.361   1.025  0.00  0.00    +0.000 C 
ATOM      5  C   UNL     1       1.019  -0.889   0.809  0.00  0.00    +0.000 A 
ATOM      6  C   UNL     1       0.367  -0.129   1.781  0.00  0.00    +0.000 A 
ATOM      7  C   UNL     1      -0.956   0.283   1.586  0.00  0.00    +0.000 A 
ATOM      8  C   UNL     1      -1.671  -0.044   0.422  0.00  0.00    +0.000 A 
ATOM      9  C   UNL     1      -1.008  -0.838  -0.526  0.00  0.00    +0.000 A 
ATOM     10  C   UNL     1       0.315  -1.255  -0.340  0.00  0.00    +0.000 A 
ENDBRANCH   1   8
BRANCH   3  11
ATOM     11  C   UNL     1      -2.448   2.820  -0.662  0.00  0.00    +0.000 A 
ATOM     12  C   UNL     1      -2.289   3.207  -2.002  0.00  0.00    +0.000 A 
ATOM     13  C   UNL     1      -1.352   4.174  -2.383  0.00  0.00    +0.000 A 
ATOM     14  C   UNL     1      -0.541   4.788  -1.426  0.00  0.00    +0.000 A 
ATOM     15  C   UNL     1      -0.708   4.444  -0.084  0.00  0.00    +0.000 A 
ATOM     16  C   UNL     1      -1.649   3.477   0.287  0.00  0.00    +0.000 A 
ATOM     17  C   UNL     1       0.444   5.846  -1.825  0.00  0.00    +0.000 C 
ENDBRANCH   3  11
TORSDOF 2
