REMARK  Name = *****
REMARK  4 active torsions:
REMARK  status: ('A' for Active; 'I' for Inactive)
REMARK    1  A    between atoms: C_3  and  O_8
REMARK    2  A    between atoms: O_8  and  C_9
REMARK    3  A    between atoms: C_9  and  C_11
REMARK    4  A    between atoms: C_11  and  C_12
REMARK                            x       y       z     vdW  Elec       q    Type
REMARK                         _______ _______ _______ _____ _____    ______ ____
ROOT
ATOM      1  O   UNL     1       2.327   3.375  -1.339  0.00  0.00    +0.000 OA
ENDROOT
BRANCH   1   4
ATOM      2  C   UNL     1       1.413  -0.175  -1.095  0.00  0.00    +0.000 A 
ATOM      3  C   UNL     1       2.004   1.054  -0.809  0.00  0.00    +0.000 A 
ATOM      4  C   UNL     1       1.695   2.159  -1.602  0.00  0.00    +0.000 A 
ATOM      5  C   UNL     1       0.835   2.056  -2.693  0.00  0.00    +0.000 A 
ATOM      6  C   UNL     1       0.250   0.823  -2.967  0.00  0.00    +0.000 A 
ATOM      7  C   UNL     1       0.532  -0.291  -2.174  0.00  0.00    +0.000 A 
ATOM      8 CL   UNL     1      -0.825   0.667  -4.302  0.00  0.00    +0.000 Cl
ENDBRANCH   1   4
BRANCH   1   9
ATOM      9  C   UNL     1       1.590   4.197  -0.490  0.00  0.00    +0.000 C 
ATOM     10  O   UNL     1       0.481   3.960  -0.025  0.00  0.00    +0.000 OA
BRANCH   9  11
ATOM     11  C   UNL     1       2.381   5.449  -0.198  0.00  0.00    +0.000 C 
BRANCH  11  12
ATOM     12  C   UNL     1       3.221   5.240   1.021  0.00  0.00    +0.000 A 
ATOM     13  C   UNL     1       2.837   5.314   2.346  0.00  0.00    +0.000 A 
ATOM     14  C   UNL     1       3.916   5.050   3.238  0.00  0.00    +0.000 A 
ATOM     15  C   UNL     1       5.088   4.787   2.565  0.00  0.00    +0.000 A 
ATOM     16  S   UNL     1       4.884   4.857   0.870  0.00  0.00    +0.000 S 
ENDBRANCH  11  12
ENDBRANCH   9  11
ENDBRANCH   1   9
TORSDOF 4
