REMARK  Name = *****
REMARK  6 active torsions:
REMARK  status: ('A' for Active; 'I' for Inactive)
REMARK    1  A    between atoms: C_1  and  C_2
REMARK    2  A    between atoms: C_5  and  C_8
REMARK    3  A    between atoms: C_9  and  C_10
REMARK    4  A    between atoms: C_12  and  C_15
REMARK    5  A    between atoms: C_15  and  O_17
REMARK    6  A    between atoms: O_17  and  C_18
REMARK                            x       y       z     vdW  Elec       q    Type
REMARK                         _______ _______ _______ _____ _____    ______ ____
ROOT
ATOM      1  C   UNL     1      -3.347   0.104   0.052  0.00  0.00    +0.000 C 
ATOM      2  C   UNL     1      -4.095   1.207  -0.112  0.00  0.00    +0.000 C 
ENDROOT
BRANCH   1   7
ATOM      3  C   UNL     1       2.437  -0.102  -0.075  0.00  0.00    +0.000 C 
ATOM      4  C   UNL     1       0.940  -0.021  -0.066  0.00  0.00    +0.000 A 
ATOM      5  C   UNL     1       0.290   1.061   0.536  0.00  0.00    +0.000 A 
ATOM      6  C   UNL     1      -1.107   1.120   0.573  0.00  0.00    +0.000 A 
ATOM      7  C   UNL     1      -1.879   0.097   0.009  0.00  0.00    +0.000 A 
ATOM      8  C   UNL     1      -1.225  -1.000  -0.564  0.00  0.00    +0.000 A 
ATOM      9  C   UNL     1       0.171  -1.059  -0.602  0.00  0.00    +0.000 A 
ENDBRANCH   1   7
BRANCH   2  10
ATOM     10  C   UNL     1      -5.516   1.148  -0.073  0.00  0.00    +0.000 A 
ATOM     11  N   UNL     1      -6.269   0.072   0.120  0.00  0.00    +0.000 NA
ATOM     12  C   UNL     1      -7.580   0.516   0.075  0.00  0.00    +0.000 A 
ATOM     13  C   UNL     1      -7.577   1.869  -0.148  0.00  0.00    +0.000 A 
ATOM     14  O   UNL     1      -6.288   2.285  -0.244  0.00  0.00    +0.000 OA
BRANCH  12  15
ATOM     15  C   UNL     1      -8.761  -0.315   0.237  0.00  0.00    +0.000 C 
ATOM     16  O   UNL     1      -9.904   0.128   0.189  0.00  0.00    +0.000 OA
BRANCH  15  17
ATOM     17  O   UNL     1      -8.453  -1.629   0.447  0.00  0.00    +0.000 OA
ATOM     18  C   UNL     1      -9.588  -2.477   0.612  0.00  0.00    +0.000 C 
ENDBRANCH  15  17
ENDBRANCH  12  15
ENDBRANCH   2  10
TORSDOF 4
