REMARK  Name = *****
REMARK  2 active torsions:
REMARK  status: ('A' for Active; 'I' for Inactive)
REMARK    1  A    between atoms: C_4  and  N_7
REMARK    2  A    between atoms: C_8  and  C_9
REMARK                            x       y       z     vdW  Elec       q    Type
REMARK                         _______ _______ _______ _____ _____    ______ ____
ROOT
ATOM      1  N   UNL     1      -2.746   0.296  -0.798  0.00  0.00    +0.000 NA
ATOM      2  C   UNL     1      -3.621  -0.098   0.074  0.00  0.00    +0.000 C 
ENDROOT
BRANCH   1   6
ATOM      3  C   UNL     1       1.283  -0.268   0.247  0.00  0.00    +0.000 A 
ATOM      4  C   UNL     1       0.578  -1.292  -0.385  0.00  0.00    +0.000 A 
ATOM      5  C   UNL     1      -0.761  -1.104  -0.733  0.00  0.00    +0.000 A 
ATOM      6  C   UNL     1      -1.405   0.102  -0.442  0.00  0.00    +0.000 A 
ATOM      7  C   UNL     1      -0.687   1.129   0.176  0.00  0.00    +0.000 A 
ATOM      8  C   UNL     1       0.652   0.944   0.525  0.00  0.00    +0.000 A 
ENDBRANCH   1   6
BRANCH   2   9
ATOM      9  C   UNL     1      -5.032   0.050  -0.183  0.00  0.00    +0.000 A 
ATOM     10  C   UNL     1      -5.661   0.589  -1.287  0.00  0.00    +0.000 A 
ATOM     11  C   UNL     1      -7.081   0.557  -1.169  0.00  0.00    +0.000 A 
ATOM     12  C   UNL     1      -7.485  -0.007   0.020  0.00  0.00    +0.000 A 
ATOM     13  S   UNL     1      -6.157  -0.491   0.985  0.00  0.00    +0.000 S 
ENDBRANCH   2   9
TORSDOF 2
