REMARK  Name = *****
REMARK  4 active torsions:
REMARK  status: ('A' for Active; 'I' for Inactive)
REMARK    1  A    between atoms: C_2  and  C_3
REMARK    2  A    between atoms: C_3  and  C_4
REMARK    3  A    between atoms: C_3  and  S_10
REMARK    4  A    between atoms: S_10  and  C_11
REMARK                            x       y       z     vdW  Elec       q    Type
REMARK                         _______ _______ _______ _____ _____    ______ ____
ROOT
ATOM      1  C   UNL     1       3.334   1.085  -0.680  0.00  0.00    +0.000 C 
ENDROOT
BRANCH   1   2
ATOM      2  C   UNL     1       2.951   2.479  -0.196  0.00  0.00    +0.000 A 
ATOM      3  C   UNL     1       2.977   2.828   1.166  0.00  0.00    +0.000 A 
ATOM      4  C   UNL     1       2.617   4.112   1.583  0.00  0.00    +0.000 A 
ATOM      5  C   UNL     1       2.229   5.066   0.647  0.00  0.00    +0.000 A 
ATOM      6  C   UNL     1       2.200   4.740  -0.706  0.00  0.00    +0.000 A 
ATOM      7  C   UNL     1       2.558   3.457  -1.126  0.00  0.00    +0.000 A 
ENDBRANCH   1   2
BRANCH   1   9
ATOM      8  C   UNL     1       1.594  -0.748  -0.708  0.00  0.00    +0.000 C 
ATOM      9  C   UNL     1       2.484   0.007  -0.047  0.00  0.00    +0.000 C 
ENDBRANCH   1   9
BRANCH   1  10
ATOM     10  S   UNL     1       5.118   0.754  -0.346  0.00  0.00    +0.000 S 
BRANCH  10  11
ATOM     11  C   UNL     1       5.363  -0.782  -1.222  0.00  0.00    +0.000 A 
ATOM     12  C   UNL     1       5.120  -0.899  -2.594  0.00  0.00    +0.000 A 
ATOM     13  C   UNL     1       5.341  -2.113  -3.249  0.00  0.00    +0.000 A 
ATOM     14  C   UNL     1       5.820  -3.213  -2.539  0.00  0.00    +0.000 A 
ATOM     15  C   UNL     1       6.083  -3.098  -1.175  0.00  0.00    +0.000 A 
ATOM     16  C   UNL     1       5.860  -1.885  -0.520  0.00  0.00    +0.000 A 
ENDBRANCH  10  11
ENDBRANCH   1  10
TORSDOF 4
