REMARK  Name = *****
REMARK  4 active torsions:
REMARK  status: ('A' for Active; 'I' for Inactive)
REMARK    1  A    between atoms: C_1  and  C_2
REMARK    2  A    between atoms: C_7  and  O_8
REMARK    3  A    between atoms: O_8  and  C_9
REMARK    4  A    between atoms: C_9  and  C_11
REMARK                            x       y       z     vdW  Elec       q    Type
REMARK                         _______ _______ _______ _____ _____    ______ ____
ROOT
ATOM      1  O   UNL     1       1.258  -1.644   0.783  0.00  0.00    +0.000 OA
ENDROOT
BRANCH   1   8
ATOM      2  C   UNL     1       2.291   0.534  -1.079  0.00  0.00    +0.000 C 
ATOM      3  C   UNL     1       0.929   0.327  -0.481  0.00  0.00    +0.000 C 
ATOM      4  C   UNL     1       0.146   1.362  -0.125  0.00  0.00    +0.000 C 
ATOM      5  C   UNL     1      -1.204   1.204   0.512  0.00  0.00    +0.000 C 
ATOM      6  C   UNL     1      -1.473  -0.217   1.006  0.00  0.00    +0.000 C 
ATOM      7  C   UNL     1      -1.011  -1.251  -0.018  0.00  0.00    +0.000 C 
ATOM      8  C   UNL     1       0.493  -1.116  -0.315  0.00  0.00    +0.000 C 
ENDBRANCH   1   8
BRANCH   1   9
ATOM      9  C   UNL     1       1.458  -2.983   0.777  0.00  0.00    +0.000 C 
ATOM     10  O   UNL     1       1.043  -3.768  -0.061  0.00  0.00    +0.000 OA
BRANCH   9  11
ATOM     11  C   UNL     1       2.272  -3.391   1.955  0.00  0.00    +0.000 A 
ATOM     12  C   UNL     1       2.579  -4.750   2.108  0.00  0.00    +0.000 A 
ATOM     13  C   UNL     1       3.341  -5.182   3.195  0.00  0.00    +0.000 A 
ATOM     14  C   UNL     1       3.801  -4.260   4.134  0.00  0.00    +0.000 A 
ATOM     15  C   UNL     1       3.499  -2.906   3.990  0.00  0.00    +0.000 A 
ATOM     16  C   UNL     1       2.737  -2.470   2.904  0.00  0.00    +0.000 A 
ENDBRANCH   9  11
ENDBRANCH   1   9
TORSDOF 3
