REMARK  Name = *****
REMARK  5 active torsions:
REMARK  status: ('A' for Active; 'I' for Inactive)
REMARK    1  A    between atoms: C_1  and  C_2
REMARK    2  A    between atoms: C_7  and  C_8
REMARK    3  A    between atoms: C_8  and  C_10
REMARK    4  A    between atoms: C_10  and  C_11
REMARK    5  A    between atoms: C_11  and  C_15
REMARK                            x       y       z     vdW  Elec       q    Type
REMARK                         _______ _______ _______ _____ _____    ______ ____
ROOT
ATOM      1  C   UNL     1       2.725  -2.887   0.458  0.00  0.00    +0.000 C 
ENDROOT
BRANCH   1   2
ATOM      2  C   UNL     1       3.055  -4.353   0.300  0.00  0.00    +0.000 C 
ATOM      3  C   UNL     1       2.387  -5.369   0.871  0.00  0.00    +0.000 C 
ATOM      4  F   UNL     1       1.338  -5.134   1.687  0.00  0.00    +0.000 F 
ATOM      5  F   UNL     1       2.789  -6.647   0.694  0.00  0.00    +0.000 F 
BRANCH   2   6
ATOM      6  C   UNL     1       4.250  -4.646  -0.522  0.00  0.00    +0.000 A 
ATOM      7  C   UNL     1       4.162  -5.473  -1.652  0.00  0.00    +0.000 A 
ATOM      8  C   UNL     1       5.294  -5.744  -2.424  0.00  0.00    +0.000 A 
ATOM      9  C   UNL     1       6.525  -5.190  -2.077  0.00  0.00    +0.000 A 
ATOM     10  C   UNL     1       6.625  -4.363  -0.960  0.00  0.00    +0.000 A 
ATOM     11  C   UNL     1       5.494  -4.091  -0.188  0.00  0.00    +0.000 A 
ENDBRANCH   2   6
ENDBRANCH   1   2
BRANCH   1  12
ATOM     12  C   UNL     1       1.288  -2.573   0.866  0.00  0.00    +0.000 C 
ATOM     13  O   UNL     1       0.337  -2.832   0.131  0.00  0.00    +0.000 OA
BRANCH  12  20
ATOM     14  C   UNL     1      -0.721  -0.375   1.183  0.00  0.00    +0.000 C 
ATOM     15  C   UNL     1       0.121  -0.867   2.327  0.00  0.00    +0.000 A 
ATOM     16  C   UNL     1      -0.055  -0.286   3.595  0.00  0.00    +0.000 A 
ATOM     17  C   UNL     1       0.695  -0.714   4.691  0.00  0.00    +0.000 A 
ATOM     18  C   UNL     1       1.622  -1.740   4.543  0.00  0.00    +0.000 A 
ATOM     19  C   UNL     1       1.804  -2.337   3.296  0.00  0.00    +0.000 A 
ATOM     20  C   UNL     1       1.064  -1.905   2.183  0.00  0.00    +0.000 A 
ENDBRANCH  12  20
ENDBRANCH   1  12
TORSDOF 4
