REMARK  Name = *****
REMARK  4 active torsions:
REMARK  status: ('A' for Active; 'I' for Inactive)
REMARK    1  A    between atoms: C_1  and  C_2
REMARK    2  A    between atoms: C_9  and  C_10
REMARK    3  A    between atoms: C_10  and  S_11
REMARK    4  A    between atoms: S_11  and  C_12
REMARK                            x       y       z     vdW  Elec       q    Type
REMARK                         _______ _______ _______ _____ _____    ______ ____
ROOT
ATOM      1  C   UNL     1       2.677   0.247   1.532  0.00  0.00    +0.000 C 
ATOM      2  C   UNL     1       2.459  -0.026   0.038  0.00  0.00    +0.000 C 
ATOM      3  C   UNL     1       2.940   1.154  -0.842  0.00  0.00    +0.000 C 
ATOM      4  C   UNL     1       4.416   1.539  -0.710  0.00  0.00    +0.000 C 
ATOM      5  C   UNL     1       5.403   0.741  -1.567  0.00  0.00    +0.000 C 
ATOM      6  C   UNL     1       5.138  -0.748  -1.723  0.00  0.00    +0.000 C 
ATOM      7  C   UNL     1       4.535  -1.358  -0.480  0.00  0.00    +0.000 C 
ATOM      8  O   UNL     1       5.241  -1.708   0.465  0.00  0.00    +0.000 OA
ATOM      9  C   UNL     1       3.012  -1.393  -0.430  0.00  0.00    +0.000 C 
ENDROOT
BRANCH   9  10
ATOM     10  C   UNL     1       2.516  -2.567   0.427  0.00  0.00    +0.000 C 
BRANCH  10  11
ATOM     11  S   UNL     1       2.736  -4.156  -0.462  0.00  0.00    +0.000 S 
BRANCH  11  12
ATOM     12  C   UNL     1       2.011  -5.272   0.725  0.00  0.00    +0.000 A 
ATOM     13  C   UNL     1       0.930  -6.070   0.340  0.00  0.00    +0.000 A 
ATOM     14  C   UNL     1       0.349  -6.959   1.247  0.00  0.00    +0.000 A 
ATOM     15  C   UNL     1       0.853  -7.060   2.543  0.00  0.00    +0.000 A 
ATOM     16  C   UNL     1       1.940  -6.279   2.930  0.00  0.00    +0.000 A 
ATOM     17  C   UNL     1       2.521  -5.390   2.022  0.00  0.00    +0.000 A 
ENDBRANCH  11  12
ENDBRANCH  10  11
ENDBRANCH   9  10
TORSDOF 3
