REMARK  Name = *****
REMARK  3 active torsions:
REMARK  status: ('A' for Active; 'I' for Inactive)
REMARK    1  A    between atoms: C_4  and  C_7
REMARK    2  A    between atoms: C_7  and  C_16
REMARK    3  A    between atoms: N_8  and  C_10
REMARK                            x       y       z     vdW  Elec       q    Type
REMARK                         _______ _______ _______ _____ _____    ______ ____
ROOT
ATOM      1  C   UNL     1      -3.109   0.481  -0.632  0.00  0.00    +0.000 C 
ATOM      2  N   UNL     1      -4.357   0.304   0.154  0.00  0.00    +0.000 N 
ATOM      3  O   UNL     1      -3.950  -0.683  -0.725  0.00  0.00    +0.000 OA
ENDROOT
BRANCH   1   7
ATOM      4  C   UNL     1       0.797  -0.048   1.213  0.00  0.00    +0.000 A 
ATOM      5  C   UNL     1       0.333  -0.974   0.284  0.00  0.00    +0.000 A 
ATOM      6  C   UNL     1      -0.923  -0.805  -0.304  0.00  0.00    +0.000 A 
ATOM      7  C   UNL     1      -1.748   0.288   0.025  0.00  0.00    +0.000 A 
ATOM      8  C   UNL     1      -1.246   1.214   0.960  0.00  0.00    +0.000 A 
ATOM      9  C   UNL     1       0.008   1.047   1.552  0.00  0.00    +0.000 A 
ENDBRANCH   1   7
BRANCH   2  10
ATOM     10  C   UNL     1      -4.332  -0.000   1.538  0.00  0.00    +0.000 A 
ATOM     11  C   UNL     1      -4.917   0.922   2.418  0.00  0.00    +0.000 A 
ATOM     12  C   UNL     1      -4.937   0.689   3.795  0.00  0.00    +0.000 A 
ATOM     13  C   UNL     1      -4.381  -0.479   4.311  0.00  0.00    +0.000 A 
ATOM     14  C   UNL     1      -3.814  -1.415   3.450  0.00  0.00    +0.000 A 
ATOM     15  C   UNL     1      -3.797  -1.181   2.072  0.00  0.00    +0.000 A 
ENDBRANCH   2  10
BRANCH   1  16
ATOM     16  C   UNL     1      -3.252   1.333  -1.795  0.00  0.00    +0.000 C 
ATOM     17  N   UNL     1      -3.351   2.021  -2.727  0.00  0.00    +0.000 NA
ENDBRANCH   1  16
TORSDOF 3
