REMARK  Name = *****
REMARK  5 active torsions:
REMARK  status: ('A' for Active; 'I' for Inactive)
REMARK    1  A    between atoms: C_1  and  C_2
REMARK    2  A    between atoms: C_5  and  S_8
REMARK    3  A    between atoms: S_8  and  S_11
REMARK    4  A    between atoms: S_11  and  C_12
REMARK    5  A    between atoms: C_17  and  C_18
REMARK                            x       y       z     vdW  Elec       q    Type
REMARK                         _______ _______ _______ _____ _____    ______ ____
ROOT
ATOM      1  S   UNL     1      -3.690   0.139   0.093  0.00  0.00    +0.000 S 
ATOM      2  O   UNL     1      -4.165  -0.533  -1.102  0.00  0.00    +0.000 OA
ATOM      3  O   UNL     1      -4.076  -0.313   1.416  0.00  0.00    +0.000 OA
ENDROOT
BRANCH   1   8
ATOM      4  C   UNL     1       2.380   0.078  -0.102  0.00  0.00    +0.000 C 
ATOM      5  C   UNL     1       0.880   0.127  -0.060  0.00  0.00    +0.000 A 
ATOM      6  C   UNL     1       0.213   0.274   1.164  0.00  0.00    +0.000 A 
ATOM      7  C   UNL     1      -1.182   0.285   1.214  0.00  0.00    +0.000 A 
ATOM      8  C   UNL     1      -1.913   0.147   0.031  0.00  0.00    +0.000 A 
ATOM      9  C   UNL     1      -1.262  -0.030  -1.193  0.00  0.00    +0.000 A 
ATOM     10  C   UNL     1       0.133  -0.040  -1.234  0.00  0.00    +0.000 A 
ENDBRANCH   1   8
BRANCH   1  11
ATOM     11  S   UNL     1      -4.159   2.173  -0.065  0.00  0.00    +0.000 S 
BRANCH  11  12
ATOM     12  C   UNL     1      -5.944   2.109  -0.134  0.00  0.00    +0.000 A 
ATOM     13  C   UNL     1      -6.646   1.912   1.065  0.00  0.00    +0.000 A 
ATOM     14  C   UNL     1      -8.040   1.866   1.075  0.00  0.00    +0.000 A 
ATOM     15  C   UNL     1      -8.747   2.023  -0.112  0.00  0.00    +0.000 A 
ATOM     16  C   UNL     1      -8.060   2.228  -1.309  0.00  0.00    +0.000 A 
ATOM     17  C   UNL     1      -6.656   2.277  -1.337  0.00  0.00    +0.000 A 
ATOM     18  C   UNL     1      -5.965   2.497  -2.656  0.00  0.00    +0.000 C 
ENDBRANCH  11  12
ENDBRANCH   1  11
TORSDOF 3
