REMARK  Name = *****
REMARK  2 active torsions:
REMARK  status: ('A' for Active; 'I' for Inactive)
REMARK    1  A    between atoms: C_2  and  C_11
REMARK    2  A    between atoms: N_3  and  C_4
REMARK                            x       y       z     vdW  Elec       q    Type
REMARK                         _______ _______ _______ _____ _____    ______ ____
ROOT
ATOM      1  C   UNL     1      -0.212   0.552  -0.679  0.00  0.00    +0.000 C 
ATOM      2  C   UNL     1       0.474  -0.731  -0.232  0.00  0.00    +0.000 C 
ATOM      3  N   UNL     1      -0.741  -0.750  -1.051  0.00  0.00    +0.000 N 
ENDROOT
BRANCH   3   4
ATOM      4  C   UNL     1      -1.960  -1.192  -0.483  0.00  0.00    +0.000 A 
ATOM      5  C   UNL     1      -3.132  -0.438  -0.647  0.00  0.00    +0.000 A 
ATOM      6  C   UNL     1      -4.347  -0.886  -0.124  0.00  0.00    +0.000 A 
ATOM      7  C   UNL     1      -4.395  -2.100   0.549  0.00  0.00    +0.000 A 
ATOM      8  C   UNL     1      -3.255  -2.878   0.700  0.00  0.00    +0.000 A 
ATOM      9  C   UNL     1      -2.041  -2.429   0.176  0.00  0.00    +0.000 A 
ATOM     10  F   UNL     1      -5.560  -2.531   1.049  0.00  0.00    +0.000 F 
ENDBRANCH   3   4
BRANCH   2  11
ATOM     11  C   UNL     1       1.772  -1.141  -0.874  0.00  0.00    +0.000 A 
ATOM     12  C   UNL     1       2.962  -0.442  -0.606  0.00  0.00    +0.000 A 
ATOM     13  C   UNL     1       4.177  -0.822  -1.182  0.00  0.00    +0.000 A 
ATOM     14  C   UNL     1       4.229  -1.916  -2.040  0.00  0.00    +0.000 A 
ATOM     15  C   UNL     1       3.067  -2.629  -2.320  0.00  0.00    +0.000 A 
ATOM     16  C   UNL     1       1.855  -2.245  -1.740  0.00  0.00    +0.000 A 
ENDBRANCH   2  11
TORSDOF 2
