REMARK  Name = *****
REMARK  4 active torsions:
REMARK  status: ('A' for Active; 'I' for Inactive)
REMARK    1  A    between atoms: C_1  and  C_2
REMARK    2  A    between atoms: C_4  and  C_8
REMARK    3  A    between atoms: C_8  and  C_9
REMARK    4  A    between atoms: C_9  and  C_10
REMARK                            x       y       z     vdW  Elec       q    Type
REMARK                         _______ _______ _______ _____ _____    ______ ____
ROOT
ATOM      1  C   UNL     1      -1.992   2.054   0.874  0.00  0.00    +0.000 C 
ENDROOT
BRANCH   1   5
ATOM      2  C   UNL     1       2.480   0.460   0.184  0.00  0.00    +0.000 C 
ATOM      3  C   UNL     1       0.984   0.338   0.137  0.00  0.00    +0.000 C 
ATOM      4  C   UNL     1       0.194   1.377  -0.193  0.00  0.00    +0.000 C 
ATOM      5  C   UNL     1      -1.312   1.302  -0.290  0.00  0.00    +0.000 C 
ATOM      6  C   UNL     1      -1.794  -0.160  -0.359  0.00  0.00    +0.000 C 
ATOM      7  C   UNL     1      -1.090  -1.042   0.667  0.00  0.00    +0.000 C 
ATOM      8  C   UNL     1       0.427  -1.024   0.468  0.00  0.00    +0.000 C 
ENDBRANCH   1   5
BRANCH   1   9
ATOM      9  C   UNL     1      -1.749   3.568   0.839  0.00  0.00    +0.000 C 
BRANCH   9  10
ATOM     10  C   UNL     1      -2.501   4.276   1.940  0.00  0.00    +0.000 A 
ATOM     11  C   UNL     1      -3.803   4.747   1.724  0.00  0.00    +0.000 A 
ATOM     12  C   UNL     1      -4.503   5.385   2.749  0.00  0.00    +0.000 A 
ATOM     13  C   UNL     1      -3.911   5.553   4.000  0.00  0.00    +0.000 A 
ATOM     14  C   UNL     1      -2.620   5.081   4.227  0.00  0.00    +0.000 A 
ATOM     15  C   UNL     1      -1.918   4.443   3.203  0.00  0.00    +0.000 A 
ENDBRANCH   9  10
ENDBRANCH   1   9
TORSDOF 3
