REMARK  Name = *****
REMARK  3 active torsions:
REMARK  status: ('A' for Active; 'I' for Inactive)
REMARK    1  A    between atoms: C_4  and  C_7
REMARK    2  A    between atoms: C_7  and  S_8
REMARK    3  A    between atoms: S_8  and  C_9
REMARK                            x       y       z     vdW  Elec       q    Type
REMARK                         _______ _______ _______ _____ _____    ______ ____
ROOT
ATOM      1  C   UNL     1      -2.914   0.223  -0.468  0.00  0.00    +0.000 C 
ENDROOT
BRANCH   1   5
ATOM      2  C   UNL     1       1.332  -0.163   0.188  0.00  0.00    +0.000 A 
ATOM      3  C   UNL     1       0.690  -0.994  -0.728  0.00  0.00    +0.000 A 
ATOM      4  C   UNL     1      -0.684  -0.869  -0.942  0.00  0.00    +0.000 A 
ATOM      5  C   UNL     1      -1.428   0.094  -0.245  0.00  0.00    +0.000 A 
ATOM      6  C   UNL     1      -0.772   0.918   0.681  0.00  0.00    +0.000 A 
ATOM      7  C   UNL     1       0.602   0.791   0.894  0.00  0.00    +0.000 A 
ENDBRANCH   1   5
BRANCH   1   8
ATOM      8  S   UNL     1      -3.857  -0.816   0.688  0.00  0.00    +0.000 S 
BRANCH   8   9
ATOM      9  C   UNL     1      -5.486  -0.590   0.071  0.00  0.00    +0.000 A 
ATOM     10  C   UNL     1      -6.121   0.621  -0.080  0.00  0.00    +0.000 A 
ATOM     11  S   UNL     1      -7.705   0.437  -0.705  0.00  0.00    +0.000 S 
ATOM     12  C   UNL     1      -7.549  -1.267  -0.749  0.00  0.00    +0.000 A 
ATOM     13  C   UNL     1      -6.314  -1.685  -0.301  0.00  0.00    +0.000 A 
ENDBRANCH   8   9
ENDBRANCH   1   8
TORSDOF 3
