REMARK  Name = *****
REMARK  2 active torsions:
REMARK  status: ('A' for Active; 'I' for Inactive)
REMARK    1  A    between atoms: C_6  and  C_7
REMARK    2  A    between atoms: N_8  and  C_9
REMARK                            x       y       z     vdW  Elec       q    Type
REMARK                         _______ _______ _______ _____ _____    ______ ____
ROOT
ATOM      1  C   UNL     1      -3.222  -1.599   0.246  0.00  0.00    +0.000 C 
ATOM      2  N   UNL     1      -3.451  -2.614  -0.523  0.00  0.00    +0.000 NA
ENDROOT
BRANCH   1   8
ATOM      3  C   UNL     1      -1.790   0.278   0.997  0.00  0.00    +0.000 A 
ATOM      4  C   UNL     1      -0.614   1.029   0.917  0.00  0.00    +0.000 A 
ATOM      5  C   UNL     1       0.364   0.677  -0.009  0.00  0.00    +0.000 A 
ATOM      6  C   UNL     1       0.179  -0.414  -0.851  0.00  0.00    +0.000 A 
ATOM      7  C   UNL     1      -0.986  -1.170  -0.782  0.00  0.00    +0.000 A 
ATOM      8  C   UNL     1      -1.972  -0.820   0.145  0.00  0.00    +0.000 A 
ATOM      9  F   UNL     1       1.126  -0.746  -1.739  0.00  0.00    +0.000 F 
ATOM     10  F   UNL     1       1.489   1.402  -0.081  0.00  0.00    +0.000 F 
ENDBRANCH   1   8
BRANCH   2  11
ATOM     11  C   UNL     1      -4.663  -3.307  -0.343  0.00  0.00    +0.000 A 
ATOM     12  C   UNL     1      -5.080  -3.833   0.892  0.00  0.00    +0.000 A 
ATOM     13  C   UNL     1      -6.271  -4.540   1.017  0.00  0.00    +0.000 A 
ATOM     14  C   UNL     1      -7.054  -4.737  -0.111  0.00  0.00    +0.000 A 
ATOM     15  C   UNL     1      -6.665  -4.242  -1.352  0.00  0.00    +0.000 A 
ATOM     16  C   UNL     1      -5.466  -3.533  -1.466  0.00  0.00    +0.000 A 
ATOM     17  F   UNL     1      -8.203  -5.416  -0.006  0.00  0.00    +0.000 F 
ATOM     18  F   UNL     1      -4.329  -3.649   1.990  0.00  0.00    +0.000 F 
ENDBRANCH   2  11
TORSDOF 2
