REMARK  Name = *****
REMARK  5 active torsions:
REMARK  status: ('A' for Active; 'I' for Inactive)
REMARK    1  A    between atoms: C_1  and  O_2
REMARK    2  A    between atoms: O_2  and  C_3
REMARK    3  A    between atoms: C_3  and  C_5
REMARK    4  A    between atoms: C_8  and  C_11
REMARK    5  A    between atoms: C_12  and  C_13
REMARK                            x       y       z     vdW  Elec       q    Type
REMARK                         _______ _______ _______ _____ _____    ______ ____
ROOT
ATOM      1  C   UNL     1       4.422  -0.926   0.773  0.00  0.00    +0.000 C 
ATOM      2  C   UNL     1       5.217  -2.007   0.873  0.00  0.00    +0.000 C 
ATOM      3  C   UNL     1       6.649  -1.899   1.054  0.00  0.00    +0.000 C 
ATOM      4  C   UNL     1       7.371  -0.793   0.798  0.00  0.00    +0.000 C 
ATOM      5  S   UNL     1       6.629   0.644   0.153  0.00  0.00    +0.000 S 
ATOM      6  C   UNL     1       4.936   0.484   0.805  0.00  0.00    +0.000 C 
ENDROOT
BRANCH   1   7
ATOM      7  C   UNL     1       2.946  -1.048   0.651  0.00  0.00    +0.000 C 
ATOM      8  O   UNL     1       2.189  -0.093   0.748  0.00  0.00    +0.000 OA
BRANCH   7  10
ATOM      9  C   UNL     1       1.154  -2.501   0.274  0.00  0.00    +0.000 C 
ATOM     10  O   UNL     1       2.565  -2.329   0.415  0.00  0.00    +0.000 OA
ENDBRANCH   7  10
ENDBRANCH   1   7
BRANCH   4  11
ATOM     11  C   UNL     1       8.815  -0.757   0.947  0.00  0.00    +0.000 C 
ATOM     12  C   UNL     1       9.480  -1.194   2.031  0.00  0.00    +0.000 C 
BRANCH  12  13
ATOM     13  C   UNL     1      10.942  -1.153   2.178  0.00  0.00    +0.000 A 
ATOM     14  C   UNL     1      11.722  -0.109   1.662  0.00  0.00    +0.000 A 
ATOM     15  C   UNL     1      13.107  -0.095   1.851  0.00  0.00    +0.000 A 
ATOM     16  C   UNL     1      13.725  -1.117   2.568  0.00  0.00    +0.000 A 
ATOM     17  C   UNL     1      12.959  -2.151   3.101  0.00  0.00    +0.000 A 
ATOM     18  C   UNL     1      11.575  -2.165   2.912  0.00  0.00    +0.000 A 
ENDBRANCH  12  13
ENDBRANCH   4  11
TORSDOF 4
