REMARK  Name = *****
REMARK  5 active torsions:
REMARK  status: ('A' for Active; 'I' for Inactive)
REMARK    1  A    between atoms: C_1  and  C_2
REMARK    2  A    between atoms: C_2  and  O_3
REMARK    3  A    between atoms: O_3  and  C_4
REMARK    4  A    between atoms: C_9  and  C_10
REMARK    5  A    between atoms: C_11  and  C_12
REMARK                            x       y       z     vdW  Elec       q    Type
REMARK                         _______ _______ _______ _____ _____    ______ ____
ROOT
ATOM      1  C   UNL     1       4.377  -0.908   1.236  0.00  0.00    +0.000 A 
ATOM      2  C   UNL     1       5.268   0.155   1.428  0.00  0.00    +0.000 A 
ATOM      3  C   UNL     1       6.647  -0.070   1.468  0.00  0.00    +0.000 A 
ATOM      4  C   UNL     1       7.149  -1.359   1.322  0.00  0.00    +0.000 A 
ATOM      5  C   UNL     1       6.273  -2.426   1.133  0.00  0.00    +0.000 A 
ATOM      6  C   UNL     1       4.886  -2.215   1.078  0.00  0.00    +0.000 A 
ENDROOT
BRANCH   6   7
ATOM      7  C   UNL     1       4.035  -3.403   0.888  0.00  0.00    +0.000 C 
ATOM      8  C   UNL     1       3.135  -3.505  -0.103  0.00  0.00    +0.000 C 
BRANCH   8   9
ATOM      9  C   UNL     1       2.290  -4.684  -0.331  0.00  0.00    +0.000 A 
ATOM     10  C   UNL     1       1.748  -5.432   0.723  0.00  0.00    +0.000 A 
ATOM     11  C   UNL     1       0.923  -6.531   0.465  0.00  0.00    +0.000 A 
ATOM     12  C   UNL     1       0.622  -6.885  -0.848  0.00  0.00    +0.000 A 
ATOM     13  C   UNL     1       1.140  -6.138  -1.904  0.00  0.00    +0.000 A 
ATOM     14  C   UNL     1       1.964  -5.040  -1.646  0.00  0.00    +0.000 A 
ENDBRANCH   8   9
ENDBRANCH   6   7
BRANCH   1  15
ATOM     15  O   UNL     1       3.012  -0.774   1.212  0.00  0.00    +0.000 OA
BRANCH  15  17
ATOM     16  C   UNL     1       0.959   0.425   1.145  0.00  0.00    +0.000 C 
ATOM     17  C   UNL     1       2.467   0.541   1.273  0.00  0.00    +0.000 C 
ENDBRANCH  15  17
ENDBRANCH   1  15
TORSDOF 4
