REMARK  Name = *****
REMARK  3 active torsions:
REMARK  status: ('A' for Active; 'I' for Inactive)
REMARK    1  A    between atoms: C_5  and  C_7
REMARK    2  A    between atoms: C_8  and  C_9
REMARK    3  A    between atoms: C_11  and  C_15
REMARK                            x       y       z     vdW  Elec       q    Type
REMARK                         _______ _______ _______ _____ _____    ______ ____
ROOT
ATOM      1  C   UNL     1      -1.326  -4.967   0.006  0.00  0.00    +0.000 A 
ATOM      2  C   UNL     1      -2.516  -5.158  -0.710  0.00  0.00    +0.000 A 
ATOM      3  C   UNL     1      -3.182  -6.396  -0.692  0.00  0.00    +0.000 A 
ATOM      4  C   UNL     1      -2.623  -7.458   0.034  0.00  0.00    +0.000 A 
ATOM      5  C   UNL     1      -1.430  -7.282   0.734  0.00  0.00    +0.000 A 
ATOM      6  C   UNL     1      -0.784  -6.045   0.716  0.00  0.00    +0.000 A 
ENDROOT
BRANCH   3   7
ATOM      7  C   UNL     1      -4.452  -6.593  -1.479  0.00  0.00    +0.000 C 
ATOM      8  F   UNL     1      -5.161  -5.441  -1.652  0.00  0.00    +0.000 F 
ATOM      9  F   UNL     1      -4.219  -7.079  -2.729  0.00  0.00    +0.000 F 
ATOM     10  F   UNL     1      -5.313  -7.470  -0.892  0.00  0.00    +0.000 F 
ENDBRANCH   3   7
BRANCH   1  12
ATOM     11  C   UNL     1      -1.188  -2.486   0.031  0.00  0.00    +0.000 C 
ATOM     12  C   UNL     1      -0.597  -3.692  -0.012  0.00  0.00    +0.000 C 
BRANCH  11  17
ATOM     13  C   UNL     1      -0.423   1.186   0.076  0.00  0.00    +0.000 A 
ATOM     14  C   UNL     1       0.964   1.141   0.019  0.00  0.00    +0.000 A 
ATOM     15  C   UNL     1       1.574  -0.100  -0.031  0.00  0.00    +0.000 A 
ATOM     16  N   UNL     1       0.901  -1.271  -0.028  0.00  0.00    +0.000 NA
ATOM     17  C   UNL     1      -0.451  -1.213   0.028  0.00  0.00    +0.000 A 
ATOM     18  C   UNL     1      -1.144  -0.007   0.081  0.00  0.00    +0.000 A 
ENDBRANCH  11  17
ENDBRANCH   1  12
TORSDOF 3
