REMARK  Name = *****
REMARK  4 active torsions:
REMARK  status: ('A' for Active; 'I' for Inactive)
REMARK    1  A    between atoms: C_4  and  C_7
REMARK    2  A    between atoms: C_7  and  C_8
REMARK    3  A    between atoms: C_7  and  N_16
REMARK    4  A    between atoms: C_8  and  C_10
REMARK                            x       y       z     vdW  Elec       q    Type
REMARK                         _______ _______ _______ _____ _____    ______ ____
ROOT
ATOM      1  C   UNL     1      -2.952   0.414  -0.334  0.00  0.00    +0.000 C 
ENDROOT
BRANCH   1   5
ATOM      2  C   UNL     1       1.157  -0.597   0.589  0.00  0.00    +0.000 A 
ATOM      3  C   UNL     1       0.310  -0.115   1.584  0.00  0.00    +0.000 A 
ATOM      4  C   UNL     1      -1.014   0.206   1.280  0.00  0.00    +0.000 A 
ATOM      5  C   UNL     1      -1.507   0.058  -0.029  0.00  0.00    +0.000 A 
ATOM      6  C   UNL     1      -0.644  -0.448  -1.016  0.00  0.00    +0.000 A 
ATOM      7  C   UNL     1       0.680  -0.767  -0.709  0.00  0.00    +0.000 A 
ENDBRANCH   1   5
BRANCH   1   8
ATOM      8  C   UNL     1      -3.134   1.143  -1.668  0.00  0.00    +0.000 C 
ATOM      9  O   UNL     1      -3.325   0.567  -2.742  0.00  0.00    +0.000 OA
BRANCH   8  10
ATOM     10  C   UNL     1      -3.062   2.637  -1.683  0.00  0.00    +0.000 A 
ATOM     11  C   UNL     1      -2.425   3.376  -0.679  0.00  0.00    +0.000 A 
ATOM     12  C   UNL     1      -2.394   4.773  -0.748  0.00  0.00    +0.000 A 
ATOM     13  C   UNL     1      -2.993   5.436  -1.817  0.00  0.00    +0.000 A 
ATOM     14  C   UNL     1      -3.620   4.708  -2.825  0.00  0.00    +0.000 A 
ATOM     15  C   UNL     1      -3.652   3.314  -2.761  0.00  0.00    +0.000 A 
ENDBRANCH   8  10
ENDBRANCH   1   8
BRANCH   1  16
ATOM     16  N   UNL     1      -3.797  -0.833  -0.358  0.00  0.00    +0.000 NA
ATOM     17  O   UNL     1      -4.672  -0.824   0.516  0.00  0.00    +0.000 OA
ENDBRANCH   1  16
TORSDOF 4
