REMARK  Name = *****
REMARK  3 active torsions:
REMARK  status: ('A' for Active; 'I' for Inactive)
REMARK    1  A    between atoms: C_4  and  C_7
REMARK    2  A    between atoms: C_7  and  P_8
REMARK    3  A    between atoms: P_8  and  C_9
REMARK                            x       y       z     vdW  Elec       q    Type
REMARK                         _______ _______ _______ _____ _____    ______ ____
ROOT
ATOM      1  P   UNL     1      -3.645  -1.212  -0.733  0.00  0.00    +0.000 P 
ATOM      2  H   UNL     1      -3.380  -2.105   0.286  0.00  0.00    +0.000 HD
ENDROOT
BRANCH   1   3
ATOM      3  C   UNL     1      -5.398  -0.734  -0.774  0.00  0.00    +0.000 A 
ATOM      4  C   UNL     1      -5.938  -0.132  -1.918  0.00  0.00    +0.000 A 
ATOM      5  C   UNL     1      -7.284   0.241  -1.956  0.00  0.00    +0.000 A 
ATOM      6  C   UNL     1      -8.103   0.013  -0.852  0.00  0.00    +0.000 A 
ATOM      7  C   UNL     1      -7.578  -0.591   0.288  0.00  0.00    +0.000 A 
ATOM      8  C   UNL     1      -6.232  -0.965   0.327  0.00  0.00    +0.000 A 
ENDBRANCH   1   3
BRANCH   1   9
ATOM      9  C   UNL     1      -2.883   0.427  -0.420  0.00  0.00    +0.000 C 
BRANCH   9  13
ATOM     10  C   UNL     1       1.248  -0.473   0.453  0.00  0.00    +0.000 A 
ATOM     11  C   UNL     1       0.843  -0.272  -0.865  0.00  0.00    +0.000 A 
ATOM     12  C   UNL     1      -0.494   0.015  -1.149  0.00  0.00    +0.000 A 
ATOM     13  C   UNL     1      -1.444   0.100  -0.117  0.00  0.00    +0.000 A 
ATOM     14  C   UNL     1      -1.017  -0.099   1.206  0.00  0.00    +0.000 A 
ATOM     15  C   UNL     1       0.320  -0.386   1.488  0.00  0.00    +0.000 A 
ENDBRANCH   9  13
ENDBRANCH   1   9
TORSDOF 3
