REMARK  Name = *****
REMARK  2 active torsions:
REMARK  status: ('A' for Active; 'I' for Inactive)
REMARK    1  A    between atoms: C_3  and  C_6
REMARK    2  A    between atoms: C_7  and  C_8
REMARK                            x       y       z     vdW  Elec       q    Type
REMARK                         _______ _______ _______ _____ _____    ______ ____
ROOT
ATOM      1  C   UNL     1       0.718  -4.583  -1.756  0.00  0.00    +0.000 A 
ATOM      2  C   UNL     1       1.788  -5.421  -1.387  0.00  0.00    +0.000 A 
ATOM      3  C   UNL     1       2.290  -6.380  -2.276  0.00  0.00    +0.000 A 
ATOM      4  C   UNL     1       1.733  -6.519  -3.545  0.00  0.00    +0.000 A 
ATOM      5  C   UNL     1       0.674  -5.700  -3.927  0.00  0.00    +0.000 A 
ATOM      6  C   UNL     1       0.169  -4.739  -3.042  0.00  0.00    +0.000 A 
ATOM      7 CL   UNL     1      -1.155  -3.771  -3.599  0.00  0.00    +0.000 Cl
ATOM      8 CL   UNL     1       2.539  -5.318   0.171  0.00  0.00    +0.000 Cl
ENDROOT
BRANCH   1  10
ATOM      9  C   UNL     1       0.642  -2.304  -0.823  0.00  0.00    +0.000 C 
ATOM     10  C   UNL     1       0.199  -3.572  -0.821  0.00  0.00    +0.000 C 
BRANCH   9  13
ATOM     11  C   UNL     1       0.578  -0.207   2.197  0.00  0.00    +0.000 C 
ATOM     12  C   UNL     1       1.314  -0.668   0.964  0.00  0.00    +0.000 C 
ATOM     13  C   UNL     1       0.181  -1.218   0.106  0.00  0.00    +0.000 C 
ATOM     14  O   UNL     1      -0.830  -1.686   1.015  0.00  0.00    +0.000 OA
ATOM     15  C   UNL     1      -0.472  -1.284   2.343  0.00  0.00    +0.000 C 
ENDBRANCH   9  13
ENDBRANCH   1  10
TORSDOF 2
