REMARK  Name = *****
REMARK  4 active torsions:
REMARK  status: ('A' for Active; 'I' for Inactive)
REMARK    1  A    between atoms: C_1  and  C_2
REMARK    2  A    between atoms: C_5  and  C_7
REMARK    3  A    between atoms: C_7  and  S_8
REMARK    4  A    between atoms: S_8  and  C_9
REMARK                            x       y       z     vdW  Elec       q    Type
REMARK                         _______ _______ _______ _____ _____    ______ ____
ROOT
ATOM      1  C   UNL     1       2.493   1.714  -0.006  0.00  0.00    +0.000 C 
ENDROOT
BRANCH   1   6
ATOM      2  C   UNL     1      -1.263  -1.643   0.998  0.00  0.00    +0.000 C 
ATOM      3  C   UNL     1      -0.407  -0.583   0.418  0.00  0.00    +0.000 A 
ATOM      4  C   UNL     1      -0.666   0.189  -0.695  0.00  0.00    +0.000 A 
ATOM      5  O   UNL     1       0.345   1.063  -0.926  0.00  0.00    +0.000 OA
ATOM      6  C   UNL     1       1.284   0.853   0.041  0.00  0.00    +0.000 A 
ATOM      7  C   UNL     1       0.861  -0.146   0.894  0.00  0.00    +0.000 A 
ENDBRANCH   1   6
BRANCH   1   8
ATOM      8  S   UNL     1       3.898   0.809  -0.737  0.00  0.00    +0.000 S 
BRANCH   8   9
ATOM      9  C   UNL     1       5.265   1.909  -0.396  0.00  0.00    +0.000 A 
ATOM     10  C   UNL     1       5.156   3.304  -0.403  0.00  0.00    +0.000 A 
ATOM     11  C   UNL     1       6.272   4.105  -0.144  0.00  0.00    +0.000 A 
ATOM     12  C   UNL     1       7.510   3.519   0.112  0.00  0.00    +0.000 A 
ATOM     13  C   UNL     1       7.634   2.133   0.105  0.00  0.00    +0.000 A 
ATOM     14  C   UNL     1       6.518   1.333  -0.150  0.00  0.00    +0.000 A 
ENDBRANCH   8   9
ENDBRANCH   1   8
TORSDOF 3
