REMARK  Name = *****
REMARK  4 active torsions:
REMARK  status: ('A' for Active; 'I' for Inactive)
REMARK    1  A    between atoms: C_1  and  N_2
REMARK    2  A    between atoms: N_2  and  C_3
REMARK    3  A    between atoms: N_2  and  C_9
REMARK    4  A    between atoms: C_9  and  C_11
REMARK                            x       y       z     vdW  Elec       q    Type
REMARK                         _______ _______ _______ _____ _____    ______ ____
ROOT
ATOM      1  C   UNL     1       3.069  -1.257   0.870  0.00  0.00    +0.000 C 
ATOM      2  N   UNL     1       2.578  -0.226  -0.042  0.00  0.00    +0.000 N 
ENDROOT
BRANCH   2   3
ATOM      3  C   UNL     1       1.470   0.590   0.384  0.00  0.00    +0.000 A 
ATOM      4  C   UNL     1       1.167   1.796  -0.267  0.00  0.00    +0.000 A 
ATOM      5  C   UNL     1       0.111   2.610   0.160  0.00  0.00    +0.000 A 
ATOM      6  C   UNL     1      -0.658   2.239   1.257  0.00  0.00    +0.000 A 
ATOM      7  C   UNL     1      -0.363   1.060   1.932  0.00  0.00    +0.000 A 
ATOM      8  C   UNL     1       0.695   0.249   1.505  0.00  0.00    +0.000 A 
ENDBRANCH   2   3
BRANCH   2   9
ATOM      9  C   UNL     1       3.140  -0.149  -1.327  0.00  0.00    +0.000 C 
ATOM     10  S   UNL     1       2.235  -0.269  -2.751  0.00  0.00    +0.000 S 
BRANCH   9  11
ATOM     11  C   UNL     1       4.678  -0.002  -1.354  0.00  0.00    +0.000 C 
ATOM     12  C   UNL     1       5.114   1.331  -1.989  0.00  0.00    +0.000 C 
ATOM     13  C   UNL     1       6.633   1.493  -1.952  0.00  0.00    +0.000 C 
ATOM     14  C   UNL     1       7.344   0.308  -2.600  0.00  0.00    +0.000 C 
ATOM     15  C   UNL     1       6.907  -1.019  -1.985  0.00  0.00    +0.000 C 
ATOM     16  C   UNL     1       5.389  -1.186  -2.030  0.00  0.00    +0.000 C 
ENDBRANCH   9  11
ENDBRANCH   2   9
TORSDOF 3
