REMARK  Name = *****
REMARK  4 active torsions:
REMARK  status: ('A' for Active; 'I' for Inactive)
REMARK    1  A    between atoms: C_4  and  C_7
REMARK    2  A    between atoms: C_4  and  C_16
REMARK    3  A    between atoms: C_7  and  C_8
REMARK    4  A    between atoms: C_9  and  C_10
REMARK                            x       y       z     vdW  Elec       q    Type
REMARK                         _______ _______ _______ _____ _____    ______ ____
ROOT
ATOM      1  C   UNL     1       1.488  -0.337   1.840  0.00  0.00    +0.000 C 
ENDROOT
BRANCH   1   5
ATOM      2  C   UNL     1      -1.423   0.333  -0.497  0.00  0.00    +0.000 C 
ATOM      3  C   UNL     1      -1.051  -1.054   0.016  0.00  0.00    +0.000 C 
ATOM      4  C   UNL     1       0.411  -1.382  -0.275  0.00  0.00    +0.000 C 
ATOM      5  C   UNL     1       1.393  -0.332   0.291  0.00  0.00    +0.000 C 
ATOM      6  C   UNL     1       0.978   1.073  -0.213  0.00  0.00    +0.000 C 
ATOM      7  C   UNL     1      -0.490   1.407   0.049  0.00  0.00    +0.000 C 
BRANCH   5   8
ATOM      8  C   UNL     1       2.785  -0.658  -0.249  0.00  0.00    +0.000 C 
ATOM      9  O   UNL     1       3.615   0.184  -0.582  0.00  0.00    +0.000 OA
ENDBRANCH   5   8
ENDBRANCH   1   5
BRANCH   1  10
ATOM     10  C   UNL     1       1.831  -1.669   2.455  0.00  0.00    +0.000 C 
ATOM     11  C   UNL     1       3.047  -1.973   2.934  0.00  0.00    +0.000 C 
BRANCH  11  12
ATOM     12  C   UNL     1       3.350  -3.282   3.516  0.00  0.00    +0.000 A 
ATOM     13  C   UNL     1       4.311  -4.098   2.911  0.00  0.00    +0.000 A 
ATOM     14  C   UNL     1       4.615  -5.349   3.454  0.00  0.00    +0.000 A 
ATOM     15  C   UNL     1       3.968  -5.784   4.609  0.00  0.00    +0.000 A 
ATOM     16  C   UNL     1       3.016  -4.971   5.223  0.00  0.00    +0.000 A 
ATOM     17  C   UNL     1       2.707  -3.723   4.678  0.00  0.00    +0.000 A 
ENDBRANCH  11  12
ENDBRANCH   1  10
TORSDOF 4
