REMARK  Name = *****
REMARK  3 active torsions:
REMARK  status: ('A' for Active; 'I' for Inactive)
REMARK    1  A    between atoms: C_4  and  C_7
REMARK    2  A    between atoms: C_8  and  C_9
REMARK    3  A    between atoms: C_9  and  C_10
REMARK                            x       y       z     vdW  Elec       q    Type
REMARK                         _______ _______ _______ _____ _____    ______ ____
ROOT
ATOM      1  C   UNL     1      -2.742   0.425  -0.105  0.00  0.00    +0.000 C 
ATOM      2  C   UNL     1      -3.668  -0.497  -0.418  0.00  0.00    +0.000 C 
ENDROOT
BRANCH   1   6
ATOM      3  C   UNL     1       1.459  -0.290   0.257  0.00  0.00    +0.000 A 
ATOM      4  C   UNL     1       0.734  -0.947  -0.735  0.00  0.00    +0.000 A 
ATOM      5  C   UNL     1      -0.641  -0.728  -0.859  0.00  0.00    +0.000 A 
ATOM      6  C   UNL     1      -1.306   0.141   0.016  0.00  0.00    +0.000 A 
ATOM      7  C   UNL     1      -0.563   0.808   0.999  0.00  0.00    +0.000 A 
ATOM      8  C   UNL     1       0.812   0.589   1.123  0.00  0.00    +0.000 A 
ENDBRANCH   1   6
BRANCH   2   9
ATOM      9  C   UNL     1      -5.134  -0.198  -0.542  0.00  0.00    +0.000 C 
ATOM     10 BR   UNL     1      -6.088  -1.300   0.765  0.00  0.00    +0.000 Br
BRANCH   9  11
ATOM     11  C   UNL     1      -5.697  -0.437  -1.926  0.00  0.00    +0.000 A 
ATOM     12  C   UNL     1      -5.657  -1.698  -2.546  0.00  0.00    +0.000 A 
ATOM     13  C   UNL     1      -6.172  -1.881  -3.831  0.00  0.00    +0.000 A 
ATOM     14  C   UNL     1      -6.730  -0.807  -4.519  0.00  0.00    +0.000 A 
ATOM     15  C   UNL     1      -6.774   0.451  -3.924  0.00  0.00    +0.000 A 
ATOM     16  C   UNL     1      -6.261   0.636  -2.638  0.00  0.00    +0.000 A 
ENDBRANCH   9  11
ENDBRANCH   2   9
TORSDOF 3
