REMARK  Name = *****
REMARK  1 active torsions:
REMARK  status: ('A' for Active; 'I' for Inactive)
REMARK    1  A    between atoms: C_3  and  C_5
REMARK                            x       y       z     vdW  Elec       q    Type
REMARK                         _______ _______ _______ _____ _____    ______ ____
ROOT
ATOM      1  C   UNL     1      -0.420  -1.357  -1.747  0.00  0.00    +0.000 A 
ATOM      2  C   UNL     1      -0.885  -2.657  -2.047  0.00  0.00    +0.000 A 
ATOM      3  C   UNL     1      -0.959  -3.163  -3.358  0.00  0.00    +0.000 A 
ATOM      4  C   UNL     1      -1.428  -4.461  -3.623  0.00  0.00    +0.000 A 
ATOM      5  C   UNL     1      -1.494  -4.944  -4.931  0.00  0.00    +0.000 A 
ATOM      6  C   UNL     1      -1.091  -4.137  -5.991  0.00  0.00    +0.000 A 
ATOM      7  C   UNL     1      -0.622  -2.846  -5.744  0.00  0.00    +0.000 A 
ATOM      8  C   UNL     1      -0.551  -2.347  -4.433  0.00  0.00    +0.000 A 
ATOM      9  C   UNL     1      -0.084  -1.056  -4.162  0.00  0.00    +0.000 A 
ATOM     10  C   UNL     1      -0.022  -0.578  -2.848  0.00  0.00    +0.000 A 
ENDROOT
BRANCH   1  13
ATOM     11  C   UNL     1       1.241   0.506   0.258  0.00  0.00    +0.000 C 
ATOM     12  C   UNL     1      -0.280   0.668   0.088  0.00  0.00    +0.000 C 
ATOM     13  C   UNL     1      -0.359  -0.850  -0.233  0.00  0.00    +0.000 C 
ATOM     14  C   UNL     1       0.997  -0.992   0.514  0.00  0.00    +0.000 C 
ENDBRANCH   1  13
TORSDOF 1
