REMARK  Name = *****
REMARK  2 active torsions:
REMARK  status: ('A' for Active; 'I' for Inactive)
REMARK    1  A    between atoms: C_7  and  P_11
REMARK    2  A    between atoms: P_11  and  C_12
REMARK                            x       y       z     vdW  Elec       q    Type
REMARK                         _______ _______ _______ _____ _____    ______ ____
ROOT
ATOM      1  C   UNL     1      -2.500   0.009   0.012  0.00  0.00    +0.000 A 
ATOM      2  C   UNL     1      -1.911   1.210   0.028  0.00  0.00    +0.000 A 
ATOM      3  C   UNL     1      -0.506   1.538  -0.005  0.00  0.00    +0.000 A 
ATOM      4  C   UNL     1       0.539   0.702  -0.013  0.00  0.00    +0.000 A 
ATOM      5  C   UNL     1       1.914   1.162  -0.004  0.00  0.00    +0.000 A 
ATOM      6  C   UNL     1       2.686   0.066   0.022  0.00  0.00    +0.000 A 
ATOM      7  C   UNL     1       1.838  -1.120   0.016  0.00  0.00    +0.000 A 
ATOM      8  C   UNL     1       0.531  -0.765  -0.006  0.00  0.00    +0.000 A 
ATOM      9  C   UNL     1      -0.610  -1.649  -0.060  0.00  0.00    +0.000 A 
ATOM     10  C   UNL     1      -1.905  -1.302  -0.057  0.00  0.00    +0.000 A 
ENDROOT
BRANCH   7  11
ATOM     11  P   UNL     1       2.584  -2.743   0.061  0.00  0.00    +0.000 P 
ATOM     12  H   UNL     1       1.830  -3.632   0.800  0.00  0.00    +0.000 HD
BRANCH  11  13
ATOM     13  C   UNL     1       2.563  -3.155  -1.716  0.00  0.00    +0.000 A 
ATOM     14  C   UNL     1       3.370  -2.456  -2.625  0.00  0.00    +0.000 A 
ATOM     15  C   UNL     1       3.361  -2.781  -3.984  0.00  0.00    +0.000 A 
ATOM     16  C   UNL     1       2.551  -3.813  -4.449  0.00  0.00    +0.000 A 
ATOM     17  C   UNL     1       1.752  -4.524  -3.556  0.00  0.00    +0.000 A 
ATOM     18  C   UNL     1       1.760  -4.199  -2.197  0.00  0.00    +0.000 A 
ENDBRANCH  11  13
ENDBRANCH   7  11
TORSDOF 2
