REMARK  Name = *****
REMARK  4 active torsions:
REMARK  status: ('A' for Active; 'I' for Inactive)
REMARK    1  A    between atoms: C_1  and  C_2
REMARK    2  A    between atoms: C_4  and  C_17
REMARK    3  A    between atoms: C_5  and  N_8
REMARK    4  A    between atoms: C_9  and  C_10
REMARK                            x       y       z     vdW  Elec       q    Type
REMARK                         _______ _______ _______ _____ _____    ______ ____
ROOT
ATOM      1  N   UNL     1      -2.268  -1.758  -0.932  0.00  0.00    +0.000 NA
ATOM      2  C   UNL     1      -2.347  -3.003  -0.573  0.00  0.00    +0.000 C 
ATOM      3 CL   UNL     1      -3.886  -3.737  -0.918  0.00  0.00    +0.000 Cl
ENDROOT
BRANCH   1   8
ATOM      4  C   UNL     1       2.558   1.264  -0.379  0.00  0.00    +0.000 C 
ATOM      5  C   UNL     1       1.287   0.486  -0.546  0.00  0.00    +0.000 A 
ATOM      6  C   UNL     1       0.165   0.794   0.234  0.00  0.00    +0.000 A 
ATOM      7  C   UNL     1      -1.026   0.059   0.111  0.00  0.00    +0.000 A 
ATOM      8  C   UNL     1      -1.082  -1.022  -0.786  0.00  0.00    +0.000 A 
ATOM      9  C   UNL     1       0.035  -1.312  -1.578  0.00  0.00    +0.000 A 
ATOM     10  C   UNL     1       1.215  -0.577  -1.450  0.00  0.00    +0.000 A 
ATOM     11  C   UNL     1      -2.228   0.436   0.930  0.00  0.00    +0.000 C 
ENDBRANCH   1   8
BRANCH   2  12
ATOM     12  C   UNL     1      -1.291  -3.826   0.074  0.00  0.00    +0.000 A 
ATOM     13  C   UNL     1      -0.691  -3.409   1.267  0.00  0.00    +0.000 A 
ATOM     14  C   UNL     1       0.287  -4.205   1.866  0.00  0.00    +0.000 A 
ATOM     15  C   UNL     1       0.656  -5.417   1.281  0.00  0.00    +0.000 A 
ATOM     16  C   UNL     1       0.048  -5.840   0.099  0.00  0.00    +0.000 A 
ATOM     17  C   UNL     1      -0.929  -5.048  -0.505  0.00  0.00    +0.000 A 
ENDBRANCH   2  12
TORSDOF 2
