REMARK  Name = *****
REMARK  2 active torsions:
REMARK  status: ('A' for Active; 'I' for Inactive)
REMARK    1  A    between atoms: C_4  and  C_7
REMARK    2  A    between atoms: C_9  and  C_10
REMARK                            x       y       z     vdW  Elec       q    Type
REMARK                         _______ _______ _______ _____ _____    ______ ____
ROOT
ATOM      1  C   UNL     1      -2.672  -0.176  -0.823  0.00  0.00    +0.000 C 
ATOM      2  C   UNL     1      -3.265  -1.125  -1.541  0.00  0.00    +0.000 C 
ATOM      3  C   UNL     1      -3.925  -0.698  -0.333  0.00  0.00    +0.000 C 
ATOM      4 CL   UNL     1      -5.342   0.309  -0.579  0.00  0.00    +0.000 Cl
ENDROOT
BRANCH   1   8
ATOM      5  C   UNL     1       1.441   0.044   0.266  0.00  0.00    +0.000 A 
ATOM      6  C   UNL     1       1.084  -0.305  -1.034  0.00  0.00    +0.000 A 
ATOM      7  C   UNL     1      -0.264  -0.374  -1.394  0.00  0.00    +0.000 A 
ATOM      8  C   UNL     1      -1.271  -0.113  -0.454  0.00  0.00    +0.000 A 
ATOM      9  C   UNL     1      -0.896   0.264   0.841  0.00  0.00    +0.000 A 
ATOM     10  C   UNL     1       0.452   0.335   1.202  0.00  0.00    +0.000 A 
ENDBRANCH   1   8
BRANCH   3  11
ATOM     11  C   UNL     1      -3.939  -1.609   0.872  0.00  0.00    +0.000 A 
ATOM     12  C   UNL     1      -3.990  -1.076   2.177  0.00  0.00    +0.000 A 
ATOM     13  C   UNL     1      -3.996  -1.892   3.312  0.00  0.00    +0.000 A 
ATOM     14  C   UNL     1      -3.959  -3.275   3.173  0.00  0.00    +0.000 A 
ATOM     15  C   UNL     1      -3.929  -3.838   1.902  0.00  0.00    +0.000 A 
ATOM     16  C   UNL     1      -3.928  -3.015   0.770  0.00  0.00    +0.000 A 
ENDBRANCH   3  11
TORSDOF 2
