REMARK  Name = *****
REMARK  4 active torsions:
REMARK  status: ('A' for Active; 'I' for Inactive)
REMARK    1  A    between atoms: C_1  and  C_2
REMARK    2  A    between atoms: C_5  and  N_8
REMARK    3  A    between atoms: C_9  and  C_10
REMARK    4  A    between atoms: C_9  and  C_11
REMARK                            x       y       z     vdW  Elec       q    Type
REMARK                         _______ _______ _______ _____ _____    ______ ____
ROOT
ATOM      1  N   UNL     1      -3.229   0.122   0.319  0.00  0.00    +0.000 NA
ATOM      2  C   UNL     1      -3.914   1.124  -0.153  0.00  0.00    +0.000 C 
ATOM      3  C   UNL     1      -3.294   2.331  -0.834  0.00  0.00    +0.000 C 
ENDROOT
BRANCH   1   8
ATOM      4  C   UNL     1       2.474   0.012   0.005  0.00  0.00    +0.000 C 
ATOM      5  C   UNL     1       0.977   0.069   0.069  0.00  0.00    +0.000 A 
ATOM      6  C   UNL     1       0.338   0.734   1.123  0.00  0.00    +0.000 A 
ATOM      7  C   UNL     1      -1.057   0.756   1.202  0.00  0.00    +0.000 A 
ATOM      8  C   UNL     1      -1.832   0.120   0.230  0.00  0.00    +0.000 A 
ATOM      9  C   UNL     1      -1.196  -0.574  -0.800  0.00  0.00    +0.000 A 
ATOM     10  C   UNL     1       0.199  -0.600  -0.883  0.00  0.00    +0.000 A 
ENDBRANCH   1   8
BRANCH   2  11
ATOM     11  C   UNL     1      -5.401   1.090  -0.003  0.00  0.00    +0.000 A 
ATOM     12  C   UNL     1      -6.152   2.266   0.098  0.00  0.00    +0.000 A 
ATOM     13  C   UNL     1      -7.537   2.189   0.245  0.00  0.00    +0.000 A 
ATOM     14  C   UNL     1      -8.182   0.954   0.299  0.00  0.00    +0.000 A 
ATOM     15  C   UNL     1      -7.435  -0.220   0.212  0.00  0.00    +0.000 A 
ATOM     16  C   UNL     1      -6.048  -0.152   0.065  0.00  0.00    +0.000 A 
ATOM     17 CL   UNL     1      -8.461   3.637   0.369  0.00  0.00    +0.000 Cl
ENDBRANCH   2  11
TORSDOF 2
