REMARK  Name = *****
REMARK  3 active torsions:
REMARK  status: ('A' for Active; 'I' for Inactive)
REMARK    1  A    between atoms: C_2  and  C_3
REMARK    2  A    between atoms: C_4  and  C_12
REMARK    3  A    between atoms: C_5  and  C_6
REMARK                            x       y       z     vdW  Elec       q    Type
REMARK                         _______ _______ _______ _____ _____    ______ ____
ROOT
ATOM      1  C   UNL     1       3.042  -0.993  -0.921  0.00  0.00    +0.000 C 
ATOM      2  C   UNL     1       2.421  -1.777  -2.060  0.00  0.00    +0.000 C 
ATOM      3  C   UNL     1       2.913  -2.496  -0.813  0.00  0.00    +0.000 C 
ENDROOT
BRANCH   3   4
ATOM      4  C   UNL     1       1.940  -3.170   0.132  0.00  0.00    +0.000 A 
ATOM      5  C   UNL     1       0.809  -3.865  -0.329  0.00  0.00    +0.000 A 
ATOM      6  C   UNL     1      -0.066  -4.503   0.555  0.00  0.00    +0.000 A 
ATOM      7  C   UNL     1       0.178  -4.468   1.924  0.00  0.00    +0.000 A 
ATOM      8  C   UNL     1       1.299  -3.801   2.408  0.00  0.00    +0.000 A 
ATOM      9  C   UNL     1       2.171  -3.166   1.519  0.00  0.00    +0.000 A 
ENDBRANCH   3   4
BRANCH   2  10
ATOM     10  C   UNL     1       3.171  -1.942  -3.363  0.00  0.00    +0.000 A 
ATOM     11  C   UNL     1       3.406  -3.213  -3.913  0.00  0.00    +0.000 A 
ATOM     12  C   UNL     1       4.085  -3.369  -5.124  0.00  0.00    +0.000 A 
ATOM     13  C   UNL     1       4.537  -2.250  -5.817  0.00  0.00    +0.000 A 
ATOM     14  C   UNL     1       4.308  -0.979  -5.300  0.00  0.00    +0.000 A 
ATOM     15  C   UNL     1       3.628  -0.830  -4.088  0.00  0.00    +0.000 A 
ENDBRANCH   2  10
BRANCH   1  17
ATOM     16  C   UNL     1       1.645   1.060  -0.647  0.00  0.00    +0.000 C 
ATOM     17  C   UNL     1       2.177  -0.073  -0.171  0.00  0.00    +0.000 C 
ENDBRANCH   1  17
TORSDOF 3
