REMARK  Name = *****
REMARK  2 active torsions:
REMARK  status: ('A' for Active; 'I' for Inactive)
REMARK    1  A    between atoms: C_4  and  C_6
REMARK    2  A    between atoms: C_7  and  C_8
REMARK                            x       y       z     vdW  Elec       q    Type
REMARK                         _______ _______ _______ _____ _____    ______ ____
ROOT
ATOM      1  C   UNL     1       2.261   1.591  -0.015  0.00  0.00    +0.000 C 
ATOM      2  C   UNL     1       3.224   2.308  -0.044  0.00  0.00    +0.000 C 
ENDROOT
BRANCH   2   3
ATOM      3  C   UNL     1       4.376   3.154  -0.082  0.00  0.00    +0.000 A 
ATOM      4  C   UNL     1       4.229   4.542  -0.009  0.00  0.00    +0.000 A 
ATOM      5  C   UNL     1       5.355   5.368  -0.047  0.00  0.00    +0.000 A 
ATOM      6  C   UNL     1       6.624   4.802  -0.159  0.00  0.00    +0.000 A 
ATOM      7  C   UNL     1       6.778   3.418  -0.231  0.00  0.00    +0.000 A 
ATOM      8  C   UNL     1       5.651   2.593  -0.193  0.00  0.00    +0.000 A 
ATOM      9 BR   UNL     1       8.148   5.919  -0.212  0.00  0.00    +0.000 Br
ENDBRANCH   2   3
BRANCH   1  13
ATOM     10  C   UNL     1      -1.113   0.078   0.058  0.00  0.00    +0.000 A 
ATOM     11  C   UNL     1      -0.472  -1.141   0.071  0.00  0.00    +0.000 A 
ATOM     12  S   UNL     1       1.231  -0.970   0.045  0.00  0.00    +0.000 S 
ATOM     13  C   UNL     1       1.121   0.735   0.017  0.00  0.00    +0.000 A 
ATOM     14  C   UNL     1      -0.189   1.165   0.027  0.00  0.00    +0.000 A 
ENDBRANCH   1  13
TORSDOF 2
