REMARK  Name = *****
REMARK  5 active torsions:
REMARK  status: ('A' for Active; 'I' for Inactive)
REMARK    1  A    between atoms: C_1  and  C_2
REMARK    2  A    between atoms: C_5  and  C_8
REMARK    3  A    between atoms: C_9  and  C_10
REMARK    4  A    between atoms: C_12  and  O_16
REMARK    5  A    between atoms: O_16  and  C_17
REMARK                            x       y       z     vdW  Elec       q    Type
REMARK                         _______ _______ _______ _____ _____    ______ ____
ROOT
ATOM      1  C   UNL     1      -3.238   0.043  -0.130  0.00  0.00    +0.000 C 
ATOM      2  C   UNL     1      -4.023   1.130  -0.051  0.00  0.00    +0.000 C 
ENDROOT
BRANCH   1   7
ATOM      3  C   UNL     1       2.552   0.042  -0.035  0.00  0.00    +0.000 C 
ATOM      4  C   UNL     1       1.054   0.074  -0.077  0.00  0.00    +0.000 A 
ATOM      5  C   UNL     1       0.339   0.969   0.725  0.00  0.00    +0.000 A 
ATOM      6  C   UNL     1      -1.060   0.977   0.709  0.00  0.00    +0.000 A 
ATOM      7  C   UNL     1      -1.769   0.090  -0.109  0.00  0.00    +0.000 A 
ATOM      8  C   UNL     1      -1.051  -0.827  -0.887  0.00  0.00    +0.000 A 
ATOM      9  C   UNL     1       0.347  -0.835  -0.872  0.00  0.00    +0.000 A 
ENDBRANCH   1   7
BRANCH   2  10
ATOM     10  C   UNL     1      -5.492   1.079  -0.091  0.00  0.00    +0.000 A 
ATOM     11  C   UNL     1      -6.223   0.090   0.587  0.00  0.00    +0.000 A 
ATOM     12  C   UNL     1      -7.621   0.087   0.552  0.00  0.00    +0.000 A 
ATOM     13  C   UNL     1      -8.289   1.089  -0.155  0.00  0.00    +0.000 A 
ATOM     14  C   UNL     1      -7.576   2.087  -0.817  0.00  0.00    +0.000 A 
ATOM     15  C   UNL     1      -6.182   2.084  -0.781  0.00  0.00    +0.000 A 
BRANCH  12  16
ATOM     16  O   UNL     1      -8.440  -0.822   1.163  0.00  0.00    +0.000 OA
ATOM     17  C   UNL     1      -7.810  -1.879   1.876  0.00  0.00    +0.000 C 
ENDBRANCH  12  16
ENDBRANCH   2  10
TORSDOF 3
