REMARK  Name = *****
REMARK  4 active torsions:
REMARK  status: ('A' for Active; 'I' for Inactive)
REMARK    1  A    between atoms: C_4  and  C_7
REMARK    2  A    between atoms: C_7  and  O_8
REMARK    3  A    between atoms: O_8  and  C_9
REMARK    4  A    between atoms: C_9  and  C_11
REMARK                            x       y       z     vdW  Elec       q    Type
REMARK                         _______ _______ _______ _____ _____    ______ ____
ROOT
ATOM      1  O   UNL     1       3.304  -1.998  -0.039  0.00  0.00    +0.000 OA
ENDROOT
BRANCH   1   2
ATOM      2  C   UNL     1       3.406  -2.922  -1.035  0.00  0.00    +0.000 C 
ATOM      3  O   UNL     1       3.176  -2.712  -2.217  0.00  0.00    +0.000 OA
BRANCH   2   4
ATOM      4  C   UNL     1       3.924  -4.234  -0.480  0.00  0.00    +0.000 C 
ATOM      5  C   UNL     1       3.665  -5.415  -1.421  0.00  0.00    +0.000 C 
ATOM      6  C   UNL     1       3.505  -6.646  -0.528  0.00  0.00    +0.000 C 
ATOM      7  C   UNL     1       3.560  -6.141   0.908  0.00  0.00    +0.000 C 
ATOM      8  C   UNL     1       3.229  -4.662   0.809  0.00  0.00    +0.000 C 
ENDBRANCH   2   4
ENDBRANCH   1   2
BRANCH   1   9
ATOM      9  C   UNL     1       2.859  -0.684  -0.413  0.00  0.00    +0.000 C 
BRANCH   9  13
ATOM     10  C   UNL     1      -1.380   0.377  -0.147  0.00  0.00    +0.000 C 
ATOM     11  C   UNL     1      -0.991  -1.077   0.095  0.00  0.00    +0.000 C 
ATOM     12  C   UNL     1       0.413  -1.382  -0.424  0.00  0.00    +0.000 C 
ATOM     13  C   UNL     1       1.460  -0.420   0.163  0.00  0.00    +0.000 C 
ATOM     14  C   UNL     1       1.054   1.040  -0.079  0.00  0.00    +0.000 C 
ATOM     15  C   UNL     1      -0.350   1.335   0.442  0.00  0.00    +0.000 C 
ENDBRANCH   9  13
ENDBRANCH   1   9
TORSDOF 4
