REMARK  Name = *****
REMARK  5 active torsions:
REMARK  status: ('A' for Active; 'I' for Inactive)
REMARK    1  A    between atoms: C_1  and  C_2
REMARK    2  A    between atoms: C_4  and  O_9
REMARK    3  A    between atoms: C_5  and  C_8
REMARK    4  A    between atoms: O_9  and  C_10
REMARK    5  A    between atoms: C_10  and  C_12
REMARK                            x       y       z     vdW  Elec       q    Type
REMARK                         _______ _______ _______ _____ _____    ______ ____
ROOT
ATOM      1  O   UNL     1      -1.147   2.570   0.299  0.00  0.00    +0.000 OA
ENDROOT
BRANCH   1   5
ATOM      2  C   UNL     1       2.984  -0.125   0.156  0.00  0.00    +0.000 C 
ATOM      3  C   UNL     1       1.493  -0.006   0.057  0.00  0.00    +0.000 A 
ATOM      4  C   UNL     1       0.868   1.238   0.194  0.00  0.00    +0.000 A 
ATOM      5  C   UNL     1      -0.524   1.329   0.111  0.00  0.00    +0.000 A 
ATOM      6  C   UNL     1      -1.325   0.194  -0.060  0.00  0.00    +0.000 A 
ATOM      7  C   UNL     1      -0.694  -1.049  -0.177  0.00  0.00    +0.000 A 
ATOM      8  C   UNL     1       0.701  -1.148  -0.118  0.00  0.00    +0.000 A 
ATOM      9  C   UNL     1      -2.821   0.299  -0.100  0.00  0.00    +0.000 C 
ENDBRANCH   1   5
BRANCH   1  10
ATOM     10  C   UNL     1      -0.997   3.451  -0.752  0.00  0.00    +0.000 C 
ATOM     11  O   UNL     1      -0.330   3.303  -1.766  0.00  0.00    +0.000 OA
BRANCH  10  12
ATOM     12  C   UNL     1      -1.713   4.709  -0.452  0.00  0.00    +0.000 A 
ATOM     13  C   UNL     1      -1.222   5.900  -1.007  0.00  0.00    +0.000 A 
ATOM     14  C   UNL     1      -1.869   7.112  -0.755  0.00  0.00    +0.000 A 
ATOM     15  C   UNL     1      -3.014   7.140   0.042  0.00  0.00    +0.000 A 
ATOM     16  C   UNL     1      -3.514   5.955   0.582  0.00  0.00    +0.000 A 
ATOM     17  C   UNL     1      -2.867   4.747   0.330  0.00  0.00    +0.000 A 
ATOM     18  F   UNL     1      -3.404   3.628   0.837  0.00  0.00    +0.000 F 
ENDBRANCH  10  12
ENDBRANCH   1  10
TORSDOF 3
