REMARK  Name = *****
REMARK  3 active torsions:
REMARK  status: ('A' for Active; 'I' for Inactive)
REMARK    1  A    between atoms: C_4  and  N_7
REMARK    2  A    between atoms: N_7  and  C_8
REMARK    3  A    between atoms: C_8  and  C_10
REMARK                            x       y       z     vdW  Elec       q    Type
REMARK                         _______ _______ _______ _____ _____    ______ ____
ROOT
ATOM      1  C   UNL     1       3.889  -0.645   0.239  0.00  0.00    +0.000 C 
ATOM      2  S   UNL     1       3.936  -1.458   1.705  0.00  0.00    +0.000 S 
ENDROOT
BRANCH   1   3
ATOM      3  C   UNL     1       5.092  -0.566  -0.625  0.00  0.00    +0.000 A 
ATOM      4  C   UNL     1       6.128   0.298  -0.243  0.00  0.00    +0.000 A 
ATOM      5  C   UNL     1       7.268   0.415  -1.039  0.00  0.00    +0.000 A 
ATOM      6  C   UNL     1       7.374  -0.324  -2.217  0.00  0.00    +0.000 A 
ATOM      7  C   UNL     1       6.341  -1.182  -2.603  0.00  0.00    +0.000 A 
ATOM      8  C   UNL     1       5.196  -1.305  -1.811  0.00  0.00    +0.000 A 
ATOM      9 CL   UNL     1       3.951  -2.374  -2.348  0.00  0.00    +0.000 Cl
ENDBRANCH   1   3
BRANCH   1  10
ATOM     10  N   UNL     1       2.799   0.038  -0.279  0.00  0.00    +0.000 N 
ATOM     11  H   UNL     1       2.962   0.586  -1.080  0.00  0.00    +0.000 HD
BRANCH  10  15
ATOM     12  C   UNL     1      -1.496   0.144  -0.193  0.00  0.00    +0.000 C 
ATOM     13  C   UNL     1      -0.801  -1.170   0.153  0.00  0.00    +0.000 C 
ATOM     14  C   UNL     1       0.654  -1.177  -0.308  0.00  0.00    +0.000 C 
ATOM     15  C   UNL     1       1.429   0.027   0.244  0.00  0.00    +0.000 C 
ATOM     16  C   UNL     1       0.724   1.341  -0.117  0.00  0.00    +0.000 C 
ATOM     17  C   UNL     1      -0.730   1.346   0.349  0.00  0.00    +0.000 C 
ENDBRANCH  10  15
ENDBRANCH   1  10
TORSDOF 3
