REMARK  Name = *****
REMARK  6 active torsions:
REMARK  status: ('A' for Active; 'I' for Inactive)
REMARK    1  A    between atoms: C_1  and  C_2
REMARK    2  A    between atoms: C_4  and  C_8
REMARK    3  A    between atoms: C_8  and  N_9
REMARK    4  A    between atoms: N_9  and  C_10
REMARK    5  A    between atoms: C_10  and  C_12
REMARK    6  A    between atoms: C_16  and  C_18
REMARK                            x       y       z     vdW  Elec       q    Type
REMARK                         _______ _______ _______ _____ _____    ______ ____
ROOT
ATOM      1  N   UNL     1      -1.218   3.734  -0.185  0.00  0.00    +0.000 N 
ATOM      2  H   UNL     1      -0.349   3.640  -0.639  0.00  0.00    +0.000 HD
ENDROOT
BRANCH   1   3
ATOM      3  C   UNL     1      -1.632   5.021   0.116  0.00  0.00    +0.000 C 
ATOM      4  S   UNL     1      -3.047   5.391   0.943  0.00  0.00    +0.000 S 
BRANCH   3   5
ATOM      5  C   UNL     1      -0.691   6.080  -0.358  0.00  0.00    +0.000 A 
ATOM      6  C   UNL     1      -1.159   7.199  -1.056  0.00  0.00    +0.000 A 
ATOM      7  C   UNL     1      -0.261   8.173  -1.496  0.00  0.00    +0.000 A 
ATOM      8  C   UNL     1       1.105   8.032  -1.246  0.00  0.00    +0.000 A 
ATOM      9  C   UNL     1       1.589   6.917  -0.552  0.00  0.00    +0.000 A 
ATOM     10  C   UNL     1       0.683   5.944  -0.107  0.00  0.00    +0.000 A 
ATOM     11  C   UNL     1       3.054   6.762  -0.268  0.00  0.00    +0.000 C 
ENDBRANCH   3   5
ENDBRANCH   1   3
BRANCH   1  12
ATOM     12  C   UNL     1      -1.945   2.508   0.106  0.00  0.00    +0.000 C 
BRANCH  12  16
ATOM     13  C   UNL     1      -0.352  -1.440  -2.614  0.00  0.00    +0.000 C 
ATOM     14  C   UNL     1      -0.256  -0.576  -1.391  0.00  0.00    +0.000 A 
ATOM     15  C   UNL     1      -1.107   0.525  -1.225  0.00  0.00    +0.000 A 
ATOM     16  C   UNL     1      -1.049   1.309  -0.063  0.00  0.00    +0.000 A 
ATOM     17  C   UNL     1      -0.118   0.983   0.933  0.00  0.00    +0.000 A 
ATOM     18  C   UNL     1       0.723  -0.118   0.780  0.00  0.00    +0.000 A 
ATOM     19  C   UNL     1       0.650  -0.898  -0.373  0.00  0.00    +0.000 A 
ENDBRANCH  12  16
ENDBRANCH   1  12
TORSDOF 4
