REMARK  Name = *****
REMARK  3 active torsions:
REMARK  status: ('A' for Active; 'I' for Inactive)
REMARK    1  A    between atoms: C_3  and  O_8
REMARK    2  A    between atoms: O_8  and  C_9
REMARK    3  A    between atoms: C_9  and  C_11
REMARK                            x       y       z     vdW  Elec       q    Type
REMARK                         _______ _______ _______ _____ _____    ______ ____
ROOT
ATOM      1  C   UNL     1      -1.861   3.740   0.941  0.00  0.00    +0.000 C 
ATOM      2  O   UNL     1      -0.642   3.676   0.978  0.00  0.00    +0.000 OA
ENDROOT
BRANCH   1   3
ATOM      3  C   UNL     1      -2.593   4.967   0.518  0.00  0.00    +0.000 A 
ATOM      4  C   UNL     1      -3.991   5.021   0.433  0.00  0.00    +0.000 A 
ATOM      5  C   UNL     1      -4.608   6.202   0.028  0.00  0.00    +0.000 A 
ATOM      6  C   UNL     1      -3.855   7.326  -0.291  0.00  0.00    +0.000 A 
ATOM      7  C   UNL     1      -2.468   7.287  -0.212  0.00  0.00    +0.000 A 
ATOM      8  C   UNL     1      -1.836   6.107   0.192  0.00  0.00    +0.000 A 
ATOM      9  F   UNL     1      -4.460   8.456  -0.680  0.00  0.00    +0.000 F 
ATOM     10  F   UNL     1      -5.945   6.244  -0.051  0.00  0.00    +0.000 F 
ENDBRANCH   1   3
BRANCH   1  11
ATOM     11  O   UNL     1      -2.763   2.746   1.265  0.00  0.00    +0.000 OA
BRANCH  11  14
ATOM     12  C   UNL     1      -1.803  -0.799   1.306  0.00  0.00    +0.000 A 
ATOM     13  C   UNL     1      -2.327   0.424   0.883  0.00  0.00    +0.000 A 
ATOM     14  C   UNL     1      -2.178   1.550   1.694  0.00  0.00    +0.000 A 
ATOM     15  C   UNL     1      -1.547   1.472   2.933  0.00  0.00    +0.000 A 
ATOM     16  C   UNL     1      -1.030   0.248   3.337  0.00  0.00    +0.000 A 
ATOM     17  C   UNL     1      -1.150  -0.886   2.536  0.00  0.00    +0.000 A 
ATOM     18  F   UNL     1      -0.413   0.152   4.523  0.00  0.00    +0.000 F 
ENDBRANCH  11  14
ENDBRANCH   1  11
TORSDOF 3
