REMARK  Name = *****
REMARK  6 active torsions:
REMARK  status: ('A' for Active; 'I' for Inactive)
REMARK    1  A    between atoms: C_1  and  C_2
REMARK    2  A    between atoms: C_5  and  C_8
REMARK    3  A    between atoms: C_8  and  C_9
REMARK    4  A    between atoms: C_8  and  O_16
REMARK    5  A    between atoms: C_9  and  C_10
REMARK    6  A    between atoms: O_16  and  C_17
REMARK                            x       y       z     vdW  Elec       q    Type
REMARK                         _______ _______ _______ _____ _____    ______ ____
ROOT
ATOM      1  C   UNL     1      -3.312  -0.077  -0.002  0.00  0.00    +0.000 C 
ENDROOT
BRANCH   1   6
ATOM      2  C   UNL     1       2.514   0.329  -0.082  0.00  0.00    +0.000 C 
ATOM      3  C   UNL     1       1.019   0.226  -0.036  0.00  0.00    +0.000 A 
ATOM      4  C   UNL     1       0.389  -1.018  -0.154  0.00  0.00    +0.000 A 
ATOM      5  C   UNL     1      -1.005  -1.112  -0.145  0.00  0.00    +0.000 A 
ATOM      6  C   UNL     1      -1.797   0.040  -0.031  0.00  0.00    +0.000 A 
ATOM      7  C   UNL     1      -1.162   1.285   0.076  0.00  0.00    +0.000 A 
ATOM      8  C   UNL     1       0.232   1.378   0.066  0.00  0.00    +0.000 A 
ENDBRANCH   1   6
BRANCH   1   9
ATOM      9  O   UNL     1      -3.896   0.940  -0.837  0.00  0.00    +0.000 OA
ATOM     10  C   UNL     1      -3.915   0.574  -2.211  0.00  0.00    +0.000 C 
ENDBRANCH   1   9
BRANCH   1  11
ATOM     11  C   UNL     1      -3.827   0.113   1.440  0.00  0.00    +0.000 C 
BRANCH  11  12
ATOM     12  C   UNL     1      -5.227  -0.433   1.627  0.00  0.00    +0.000 A 
ATOM     13  C   UNL     1      -6.339   0.292   1.179  0.00  0.00    +0.000 A 
ATOM     14  C   UNL     1      -7.628  -0.218   1.337  0.00  0.00    +0.000 A 
ATOM     15  C   UNL     1      -7.818  -1.458   1.945  0.00  0.00    +0.000 A 
ATOM     16  C   UNL     1      -6.719  -2.189   2.393  0.00  0.00    +0.000 A 
ATOM     17  C   UNL     1      -5.429  -1.681   2.234  0.00  0.00    +0.000 A 
ENDBRANCH  11  12
ENDBRANCH   1  11
TORSDOF 4
