REMARK  Name = *****
REMARK  1 active torsions:
REMARK  status: ('A' for Active; 'I' for Inactive)
REMARK    1  A    between atoms: C_4  and  C_13
REMARK                            x       y       z     vdW  Elec       q    Type
REMARK                         _______ _______ _______ _____ _____    ______ ____
ROOT
ATOM      1  C   UNL     1       5.487   1.212  -3.303  0.00  0.00    +0.000 C 
ATOM      2  C   UNL     1       5.052   1.285  -4.570  0.00  0.00    +0.000 C 
ATOM      3  C   UNL     1       5.024   0.190  -5.530  0.00  0.00    +0.000 C 
ATOM      4  C   UNL     1       4.701  -1.123  -5.471  0.00  0.00    +0.000 C 
ATOM      5  N   UNL     1       4.181  -1.953  -4.507  0.00  0.00    +0.000 NA
ATOM      6  C   UNL     1       4.134  -1.809  -3.223  0.00  0.00    +0.000 A 
ATOM      7  C   UNL     1       3.310  -2.818  -2.480  0.00  0.00    +0.000 A 
ATOM      8  C   UNL     1       2.722  -2.476  -1.323  0.00  0.00    +0.000 A 
ATOM      9  C   UNL     1       2.870  -1.152  -0.757  0.00  0.00    +0.000 A 
ATOM     10  C   UNL     1       3.799  -0.306  -1.229  0.00  0.00    +0.000 A 
ATOM     11  C   UNL     1       4.660  -0.736  -2.317  0.00  0.00    +0.000 A 
ATOM     12  C   UNL     1       5.762  -0.090  -2.728  0.00  0.00    +0.000 C 
ENDROOT
BRANCH   4  13
ATOM     13  C   UNL     1       4.846  -1.814  -6.781  0.00  0.00    +0.000 A 
ATOM     14  C   UNL     1       6.084  -2.345  -7.173  0.00  0.00    +0.000 A 
ATOM     15  C   UNL     1       6.212  -2.987  -8.406  0.00  0.00    +0.000 A 
ATOM     16  C   UNL     1       5.105  -3.097  -9.240  0.00  0.00    +0.000 A 
ATOM     17  C   UNL     1       3.868  -2.583  -8.865  0.00  0.00    +0.000 A 
ATOM     18  C   UNL     1       3.737  -1.943  -7.632  0.00  0.00    +0.000 A 
ATOM     19  F   UNL     1       5.230  -3.713 -10.423  0.00  0.00    +0.000 F 
ENDBRANCH   4  13
TORSDOF 1
