REMARK  Name = *****
REMARK  7 active torsions:
REMARK  status: ('A' for Active; 'I' for Inactive)
REMARK    1  A    between atoms: C_1  and  C_2
REMARK    2  A    between atoms: C_4  and  C_17
REMARK    3  A    between atoms: C_6  and  O_8
REMARK    4  A    between atoms: O_8  and  C_9
REMARK    5  A    between atoms: C_9  and  O_11
REMARK    6  A    between atoms: O_11  and  C_12
REMARK    7  A    between atoms: C_12  and  C_13
REMARK                            x       y       z     vdW  Elec       q    Type
REMARK                         _______ _______ _______ _____ _____    ______ ____
ROOT
ATOM      1  O   UNL     1       0.572  -3.051   0.661  0.00  0.00    +0.000 OA
ENDROOT
BRANCH   1   7
ATOM      2  C   UNL     1       2.559   1.435   0.189  0.00  0.00    +0.000 C 
ATOM      3  C   UNL     1       1.373   0.516   0.182  0.00  0.00    +0.000 A 
ATOM      4  C   UNL     1       0.098   1.007  -0.140  0.00  0.00    +0.000 A 
ATOM      5  C   UNL     1      -1.019   0.158  -0.171  0.00  0.00    +0.000 A 
ATOM      6  C   UNL     1      -0.846  -1.206   0.081  0.00  0.00    +0.000 A 
ATOM      7  C   UNL     1       0.428  -1.695   0.366  0.00  0.00    +0.000 A 
ATOM      8  C   UNL     1       1.534  -0.849   0.436  0.00  0.00    +0.000 A 
ATOM      9  C   UNL     1      -2.371   0.697  -0.535  0.00  0.00    +0.000 C 
ENDBRANCH   1   7
BRANCH   1  10
ATOM     10  C   UNL     1       1.038  -3.792  -0.408  0.00  0.00    +0.000 C 
ATOM     11  O   UNL     1       1.331  -3.387  -1.523  0.00  0.00    +0.000 OA
BRANCH  10  12
ATOM     12  O   UNL     1       1.121  -5.090  -0.008  0.00  0.00    +0.000 OA
BRANCH  12  13
ATOM     13  C   UNL     1       1.563  -6.037  -1.005  0.00  0.00    +0.000 C 
BRANCH  13  14
ATOM     14  C   UNL     1       0.405  -6.850  -1.613  0.00  0.00    +0.000 C 
ATOM     15 CL   UNL     1      -0.467  -7.752  -0.331  0.00  0.00    +0.000 Cl
ATOM     16 CL   UNL     1      -0.767  -5.808  -2.471  0.00  0.00    +0.000 Cl
ATOM     17 CL   UNL     1       1.068  -8.041  -2.781  0.00  0.00    +0.000 Cl
ENDBRANCH  13  14
ENDBRANCH  12  13
ENDBRANCH  10  12
ENDBRANCH   1  10
TORSDOF 5
