REMARK  Name = *****
REMARK  4 active torsions:
REMARK  status: ('A' for Active; 'I' for Inactive)
REMARK    1  A    between atoms: C_1  and  C_2
REMARK    2  A    between atoms: C_7  and  O_8
REMARK    3  A    between atoms: O_8  and  C_9
REMARK    4  A    between atoms: C_9  and  C_11
REMARK                            x       y       z     vdW  Elec       q    Type
REMARK                         _______ _______ _______ _____ _____    ______ ____
ROOT
ATOM      1  C   UNL     1       1.516  -4.621   0.724  0.00  0.00    +0.000 A 
ATOM      2  C   UNL     1       2.439  -5.455   0.100  0.00  0.00    +0.000 A 
ATOM      3  C   UNL     1       3.096  -6.437   0.835  0.00  0.00    +0.000 A 
ATOM      4  C   UNL     1       2.827  -6.592   2.189  0.00  0.00    +0.000 A 
ATOM      5  C   UNL     1       1.900  -5.765   2.811  0.00  0.00    +0.000 A 
ATOM      6  C   UNL     1       1.242  -4.781   2.080  0.00  0.00    +0.000 A 
ATOM      7  F   UNL     1       0.330  -4.011   2.692  0.00  0.00    +0.000 F 
ATOM      8  F   UNL     1       1.634  -5.918   4.115  0.00  0.00    +0.000 F 
ATOM      9  F   UNL     1       3.461  -7.538   2.895  0.00  0.00    +0.000 F 
ATOM     10  F   UNL     1       3.993  -7.232   0.237  0.00  0.00    +0.000 F 
ATOM     11  F   UNL     1       2.729  -5.308  -1.200  0.00  0.00    +0.000 F 
ENDROOT
BRANCH   1  12
ATOM     12  C   UNL     1       0.820  -3.606  -0.064  0.00  0.00    +0.000 C 
ATOM     13  O   UNL     1       0.243  -3.841  -1.109  0.00  0.00    +0.000 OA
BRANCH  12  14
ATOM     14  O   UNL     1       0.975  -2.409   0.546  0.00  0.00    +0.000 OA
BRANCH  14  21
ATOM     15  C   UNL     1       2.566  -0.042  -0.149  0.00  0.00    +0.000 C 
ATOM     16  C   UNL     1       1.108  -0.006   0.320  0.00  0.00    +0.000 C 
ATOM     17  C   UNL     1       0.408   1.250  -0.216  0.00  0.00    +0.000 C 
ATOM     18  C   UNL     1      -1.059   1.302   0.201  0.00  0.00    +0.000 C 
ATOM     19  C   UNL     1      -1.805   0.038  -0.213  0.00  0.00    +0.000 C 
ATOM     20  C   UNL     1      -1.119  -1.214   0.319  0.00  0.00    +0.000 C 
ATOM     21  C   UNL     1       0.353  -1.282  -0.104  0.00  0.00    +0.000 C 
ENDBRANCH  14  21
ENDBRANCH  12  14
ENDBRANCH   1  12
TORSDOF 3
