REMARK  Name = *****
REMARK  2 active torsions:
REMARK  status: ('A' for Active; 'I' for Inactive)
REMARK    1  A    between atoms: C_4  and  C_7
REMARK    2  A    between atoms: C_8  and  C_9
REMARK                            x       y       z     vdW  Elec       q    Type
REMARK                         _______ _______ _______ _____ _____    ______ ____
ROOT
ATOM      1  C   UNL     1      -2.792   0.486  -0.241  0.00  0.00    +0.000 C 
ATOM      2  C   UNL     1      -3.732  -0.473  -0.270  0.00  0.00    +0.000 C 
ENDROOT
BRANCH   2   3
ATOM      3  C   UNL     1      -5.175  -0.224  -0.421  0.00  0.00    +0.000 A 
ATOM      4  C   UNL     1      -5.971  -1.171  -1.079  0.00  0.00    +0.000 A 
ATOM      5  C   UNL     1      -7.342  -0.978  -1.214  0.00  0.00    +0.000 A 
ATOM      6  C   UNL     1      -7.955   0.153  -0.687  0.00  0.00    +0.000 A 
ATOM      7  C   UNL     1      -7.183   1.098  -0.013  0.00  0.00    +0.000 A 
ATOM      8  C   UNL     1      -5.803   0.907   0.125  0.00  0.00    +0.000 A 
ATOM      9  F   UNL     1      -8.090  -1.888  -1.853  0.00  0.00    +0.000 F 
ATOM     10  F   UNL     1      -5.414  -2.280  -1.594  0.00  0.00    +0.000 F 
ENDBRANCH   2   3
BRANCH   1  14
ATOM     11  C   UNL     1       1.414  -0.187   0.169  0.00  0.00    +0.000 A 
ATOM     12  C   UNL     1       0.648  -1.075  -0.584  0.00  0.00    +0.000 A 
ATOM     13  C   UNL     1      -0.728  -0.871  -0.720  0.00  0.00    +0.000 A 
ATOM     14  C   UNL     1      -1.353   0.217  -0.097  0.00  0.00    +0.000 A 
ATOM     15  C   UNL     1      -0.569   1.112   0.642  0.00  0.00    +0.000 A 
ATOM     16  C   UNL     1       0.807   0.908   0.779  0.00  0.00    +0.000 A 
ENDBRANCH   1  14
TORSDOF 2
