REMARK  Name = *****
REMARK  5 active torsions:
REMARK  status: ('A' for Active; 'I' for Inactive)
REMARK    1  A    between atoms: C_1  and  C_2
REMARK    2  A    between atoms: C_4  and  C_8
REMARK    3  A    between atoms: C_8  and  C_9
REMARK    4  A    between atoms: C_9  and  C_10
REMARK    5  A    between atoms: C_12  and  C_16
REMARK                            x       y       z     vdW  Elec       q    Type
REMARK                         _______ _______ _______ _____ _____    ______ ____
ROOT
ATOM      1  C   UNL     1      -0.776   3.541   0.241  0.00  0.00    +0.000 C 
ENDROOT
BRANCH   1   2
ATOM      2  C   UNL     1      -1.601   4.759   0.581  0.00  0.00    +0.000 A 
ATOM      3  C   UNL     1      -1.904   5.711  -0.404  0.00  0.00    +0.000 A 
ATOM      4  C   UNL     1      -2.685   6.831  -0.092  0.00  0.00    +0.000 A 
ATOM      5  C   UNL     1      -3.170   7.000   1.208  0.00  0.00    +0.000 A 
ATOM      6  C   UNL     1      -2.877   6.054   2.191  0.00  0.00    +0.000 A 
ATOM      7  C   UNL     1      -2.099   4.939   1.879  0.00  0.00    +0.000 A 
BRANCH   4   8
ATOM      8  C   UNL     1      -2.987   7.799  -1.104  0.00  0.00    +0.000 C 
ATOM      9  N   UNL     1      -3.232   8.583  -1.925  0.00  0.00    +0.000 NA
ENDBRANCH   4   8
ENDBRANCH   1   2
BRANCH   1  10
ATOM     10  C   UNL     1      -1.655   2.372  -0.211  0.00  0.00    +0.000 C 
BRANCH  10  14
ATOM     11  C   UNL     1       0.972  -0.319  -3.573  0.00  0.00    +0.000 C 
ATOM     12  C   UNL     1       0.433  -0.146  -2.184  0.00  0.00    +0.000 A 
ATOM     13  C   UNL     1      -0.345   0.973  -1.858  0.00  0.00    +0.000 A 
ATOM     14  C   UNL     1      -0.829   1.157  -0.554  0.00  0.00    +0.000 A 
ATOM     15  C   UNL     1      -0.507   0.216   0.431  0.00  0.00    +0.000 A 
ATOM     16  C   UNL     1       0.280  -0.892   0.118  0.00  0.00    +0.000 A 
ATOM     17  C   UNL     1       0.752  -1.070  -1.182  0.00  0.00    +0.000 A 
ENDBRANCH  10  14
ENDBRANCH   1  10
TORSDOF 4
