REMARK  Name = *****
REMARK  2 active torsions:
REMARK  status: ('A' for Active; 'I' for Inactive)
REMARK    1  A    between atoms: C_1  and  C_2
REMARK    2  A    between atoms: C_5  and  C_8
REMARK                            x       y       z     vdW  Elec       q    Type
REMARK                         _______ _______ _______ _____ _____    ______ ____
ROOT
ATOM      1  C   UNL     1      -3.406   1.410  -0.076  0.00  0.00    +0.000 C 
ATOM      2  C   UNL     1      -3.798   2.690  -0.213  0.00  0.00    +0.000 C 
ATOM      3  C   UNL     1      -5.224   3.040  -0.261  0.00  0.00    +0.000 A 
ATOM      4  C   UNL     1      -5.628   4.314  -0.674  0.00  0.00    +0.000 A 
ATOM      5  C   UNL     1      -6.983   4.648  -0.705  0.00  0.00    +0.000 A 
ATOM      6  C   UNL     1      -7.942   3.715  -0.313  0.00  0.00    +0.000 A 
ATOM      7  C   UNL     1      -7.549   2.445   0.110  0.00  0.00    +0.000 A 
ATOM      8  C   UNL     1      -6.192   2.097   0.128  0.00  0.00    +0.000 A 
ATOM      9  C   UNL     1      -5.750   0.750   0.641  0.00  0.00    +0.000 C 
ATOM     10  C   UNL     1      -4.421   0.294   0.023  0.00  0.00    +0.000 C 
ENDROOT
BRANCH   1  15
ATOM     11  C   UNL     1       2.209  -0.058   0.025  0.00  0.00    +0.000 C 
ATOM     12  C   UNL     1       0.764   0.341  -0.026  0.00  0.00    +0.000 A 
ATOM     13  C   UNL     1       0.298   1.412   0.741  0.00  0.00    +0.000 A 
ATOM     14  C   UNL     1      -1.056   1.764   0.719  0.00  0.00    +0.000 A 
ATOM     15  C   UNL     1      -1.973   1.049  -0.064  0.00  0.00    +0.000 A 
ATOM     16  C   UNL     1      -1.502  -0.037  -0.813  0.00  0.00    +0.000 A 
ATOM     17  C   UNL     1      -0.148  -0.390  -0.793  0.00  0.00    +0.000 A 
ENDBRANCH   1  15
TORSDOF 1
