REMARK  Name = *****
REMARK  4 active torsions:
REMARK  status: ('A' for Active; 'I' for Inactive)
REMARK    1  A    between atoms: C_4  and  C_7
REMARK    2  A    between atoms: C_7  and  O_9
REMARK    3  A    between atoms: O_9  and  C_10
REMARK    4  A    between atoms: C_10  and  C_11
REMARK                            x       y       z     vdW  Elec       q    Type
REMARK                         _______ _______ _______ _____ _____    ______ ____
ROOT
ATOM      1  C   UNL     1       6.439   0.046  -0.480  0.00  0.00    +0.000 C 
ATOM      2  O   UNL     1       7.117   1.061  -0.526  0.00  0.00    +0.000 OA
ENDROOT
BRANCH   1   6
ATOM      3  C   UNL     1       2.305   0.131   0.659  0.00  0.00    +0.000 A 
ATOM      4  C   UNL     1       3.025   1.315   0.503  0.00  0.00    +0.000 A 
ATOM      5  C   UNL     1       4.370   1.270   0.132  0.00  0.00    +0.000 A 
ATOM      6  C   UNL     1       5.003   0.039  -0.087  0.00  0.00    +0.000 A 
ATOM      7  C   UNL     1       4.274  -1.147   0.075  0.00  0.00    +0.000 A 
ATOM      8  C   UNL     1       2.928  -1.098   0.447  0.00  0.00    +0.000 A 
ENDBRANCH   1   6
BRANCH   1   9
ATOM      9  O   UNL     1       6.852  -1.207  -0.783  0.00  0.00    +0.000 OA
BRANCH   9  10
ATOM     10  C   UNL     1       8.232  -1.340  -1.141  0.00  0.00    +0.000 C 
BRANCH  10  11
ATOM     11  C   UNL     1       9.006  -1.844   0.049  0.00  0.00    +0.000 A 
ATOM     12  C   UNL     1       9.058  -3.215   0.337  0.00  0.00    +0.000 A 
ATOM     13  C   UNL     1       9.758  -3.676   1.453  0.00  0.00    +0.000 A 
ATOM     14  C   UNL     1      10.404  -2.772   2.295  0.00  0.00    +0.000 A 
ATOM     15  C   UNL     1      10.346  -1.406   2.026  0.00  0.00    +0.000 A 
ATOM     16  C   UNL     1       9.647  -0.943   0.910  0.00  0.00    +0.000 A 
ENDBRANCH  10  11
ENDBRANCH   9  10
ENDBRANCH   1   9
TORSDOF 4
