REMARK  Name = *****
REMARK  4 active torsions:
REMARK  status: ('A' for Active; 'I' for Inactive)
REMARK    1  A    between atoms: C_1  and  S_2
REMARK    2  A    between atoms: P_5  and  C_8
REMARK    3  A    between atoms: C_8  and  C_9
REMARK    4  A    between atoms: C_9  and  C_10
REMARK                            x       y       z     vdW  Elec       q    Type
REMARK                         _______ _______ _______ _____ _____    ______ ____
ROOT
ATOM      1  C   UNL     1       0.998   0.072   0.370  0.00  0.00    +0.000 C 
ATOM      2  S   UNL     1       2.761  -0.025   0.258  0.00  0.00    +0.000 S 
ATOM      3  C   UNL     1       3.322   1.128  -0.964  0.00  0.00    +0.000 C 
ATOM      4  C   UNL     1       2.861   0.794  -2.372  0.00  0.00    +0.000 C 
ATOM      5  P   UNL     1       3.353  -0.853  -3.029  0.00  0.00    +0.000 P 
ATOM      6  C   UNL     1       2.752  -1.967  -1.697  0.00  0.00    +0.000 C 
ATOM      7  C   UNL     1       3.213  -1.650  -0.285  0.00  0.00    +0.000 C 
ATOM      8  I   UNL     1       3.725   0.439   2.317  0.00  0.00    +0.000 I 
ENDROOT
BRANCH   5   9
ATOM      9  C   UNL     1       5.181  -0.850  -2.813  0.00  0.00    +0.000 C 
BRANCH   9  10
ATOM     10  C   UNL     1       5.824  -2.164  -3.266  0.00  0.00    +0.000 C 
BRANCH  10  11
ATOM     11  C   UNL     1       7.325  -2.128  -3.102  0.00  0.00    +0.000 A 
ATOM     12  C   UNL     1       7.917  -2.520  -1.894  0.00  0.00    +0.000 A 
ATOM     13  C   UNL     1       9.303  -2.465  -1.737  0.00  0.00    +0.000 A 
ATOM     14  C   UNL     1      10.107  -2.014  -2.782  0.00  0.00    +0.000 A 
ATOM     15  C   UNL     1       9.527  -1.615  -3.984  0.00  0.00    +0.000 A 
ATOM     16  C   UNL     1       8.141  -1.669  -4.144  0.00  0.00    +0.000 A 
ENDBRANCH  10  11
ENDBRANCH   9  10
ENDBRANCH   5   9
TORSDOF 3
