REMARK  Name = *****
REMARK  1 active torsions:
REMARK  status: ('A' for Active; 'I' for Inactive)
REMARK    1  A    between atoms: C_5  and  C_13
REMARK                            x       y       z     vdW  Elec       q    Type
REMARK                         _______ _______ _______ _____ _____    ______ ____
ROOT
ATOM      1  C   UNL     1       3.515   1.093  -1.772  0.00  0.00    +0.000 C 
ATOM      2  C   UNL     1       4.743   1.891  -2.224  0.00  0.00    +0.000 C 
ATOM      3  O   UNL     1       5.302   2.672  -1.161  0.00  0.00    +0.000 OA
ATOM      4  C   UNL     1       4.597   3.814  -0.927  0.00  0.00    +0.000 C 
ATOM      5  C   UNL     1       3.538   3.980  -0.118  0.00  0.00    +0.000 C 
ATOM      6  S   UNL     1       2.647   2.837   0.824  0.00  0.00    +0.000 S 
ATOM      7  C   UNL     1       3.509   1.274   0.773  0.00  0.00    +0.000 A 
ATOM      8  C   UNL     1       3.839   0.714   2.018  0.00  0.00    +0.000 A 
ATOM      9  C   UNL     1       4.412  -0.556   2.111  0.00  0.00    +0.000 A 
ATOM     10  C   UNL     1       4.652  -1.294   0.958  0.00  0.00    +0.000 A 
ATOM     11  C   UNL     1       4.325  -0.759  -0.287  0.00  0.00    +0.000 A 
ATOM     12  C   UNL     1       3.746   0.519  -0.394  0.00  0.00    +0.000 A 
ENDROOT
BRANCH   5  13
ATOM     13  C   UNL     1       3.002   5.353  -0.026  0.00  0.00    +0.000 A 
ATOM     14  C   UNL     1       2.017   5.795  -0.922  0.00  0.00    +0.000 A 
ATOM     15  C   UNL     1       1.530   7.101  -0.845  0.00  0.00    +0.000 A 
ATOM     16  C   UNL     1       2.024   7.975   0.123  0.00  0.00    +0.000 A 
ATOM     17  C   UNL     1       3.006   7.546   1.016  0.00  0.00    +0.000 A 
ATOM     18  C   UNL     1       3.495   6.240   0.941  0.00  0.00    +0.000 A 
ENDBRANCH   5  13
TORSDOF 1
