REMARK  Name = *****
REMARK  5 active torsions:
REMARK  status: ('A' for Active; 'I' for Inactive)
REMARK    1  A    between atoms: C_1  and  C_2
REMARK    2  A    between atoms: C_4  and  C_8
REMARK    3  A    between atoms: C_8  and  C_9
REMARK    4  A    between atoms: C_8  and  C_15
REMARK    5  A    between atoms: C_9  and  C_10
REMARK                            x       y       z     vdW  Elec       q    Type
REMARK                         _______ _______ _______ _____ _____    ______ ____
ROOT
ATOM      1  C   UNL     1      -1.888   2.590  -0.161  0.00  0.00    +0.000 C 
ENDROOT
BRANCH   1   5
ATOM      2  C   UNL     1       2.491   0.018   0.145  0.00  0.00    +0.000 C 
ATOM      3  C   UNL     1       1.031   0.067  -0.199  0.00  0.00    +0.000 A 
ATOM      4  C   UNL     1       0.303   1.254  -0.027  0.00  0.00    +0.000 A 
ATOM      5  C   UNL     1      -1.066   1.317  -0.341  0.00  0.00    +0.000 A 
ATOM      6  C   UNL     1      -1.703   0.149  -0.793  0.00  0.00    +0.000 A 
ATOM      7  C   UNL     1      -0.991  -1.041  -0.939  0.00  0.00    +0.000 A 
ATOM      8  C   UNL     1       0.370  -1.082  -0.643  0.00  0.00    +0.000 A 
ENDBRANCH   1   5
BRANCH   1   9
ATOM      9  C   UNL     1      -1.128   3.823  -0.465  0.00  0.00    +0.000 C 
ATOM     10  N   UNL     1      -0.542   4.800  -0.691  0.00  0.00    +0.000 NA
ENDBRANCH   1   9
BRANCH   1  11
ATOM     11  C   UNL     1      -2.479   2.632   1.264  0.00  0.00    +0.000 C 
BRANCH  11  12
ATOM     12  C   UNL     1      -3.481   3.771   1.507  0.00  0.00    +0.000 C 
ATOM     13  C   UNL     1      -4.111   3.707   2.904  0.00  0.00    +0.000 C 
ATOM     14  C   UNL     1      -5.483   4.371   2.776  0.00  0.00    +0.000 C 
ATOM     15  C   UNL     1      -5.674   4.678   1.295  0.00  0.00    +0.000 C 
ATOM     16  C   UNL     1      -4.695   3.760   0.581  0.00  0.00    +0.000 C 
ENDBRANCH  11  12
ENDBRANCH   1  11
TORSDOF 4
