REMARK  Name = *****
REMARK  6 active torsions:
REMARK  status: ('A' for Active; 'I' for Inactive)
REMARK    1  A    between atoms: C_1  and  C_2
REMARK    2  A    between atoms: C_4  and  C_9
REMARK    3  A    between atoms: C_5  and  C_8
REMARK    4  A    between atoms: C_9  and  C_10
REMARK    5  A    between atoms: C_10  and  C_11
REMARK    6  A    between atoms: C_11  and  C_13
REMARK                            x       y       z     vdW  Elec       q    Type
REMARK                         _______ _______ _______ _____ _____    ______ ____
ROOT
ATOM      1  C   UNL     1      -1.305   2.531  -0.002  0.00  0.00    +0.000 C 
ENDROOT
BRANCH   1   5
ATOM      2  C   UNL     1       2.927  -0.291  -0.109  0.00  0.00    +0.000 C 
ATOM      3  C   UNL     1       1.431  -0.184  -0.082  0.00  0.00    +0.000 A 
ATOM      4  C   UNL     1       0.796   1.066  -0.055  0.00  0.00    +0.000 A 
ATOM      5  C   UNL     1      -0.607   1.181  -0.034  0.00  0.00    +0.000 A 
ATOM      6  C   UNL     1      -1.379  -0.004  -0.034  0.00  0.00    +0.000 A 
ATOM      7  C   UNL     1      -0.738  -1.252  -0.068  0.00  0.00    +0.000 A 
ATOM      8  C   UNL     1       0.653  -1.341  -0.091  0.00  0.00    +0.000 A 
ATOM      9  C   UNL     1      -2.885   0.032  -0.021  0.00  0.00    +0.000 C 
ENDBRANCH   1   5
BRANCH   1  10
ATOM     10  C   UNL     1      -0.420   3.777  -0.078  0.00  0.00    +0.000 C 
BRANCH  10  11
ATOM     11  C   UNL     1      -1.239   5.059  -0.039  0.00  0.00    +0.000 C 
ATOM     12  O   UNL     1      -2.469   5.049  -0.030  0.00  0.00    +0.000 OA
BRANCH  11  13
ATOM     13  C   UNL     1      -0.445   6.365  -0.049  0.00  0.00    +0.000 C 
ATOM     14  C   UNL     1      -1.215   7.486   0.660  0.00  0.00    +0.000 C 
ATOM     15  C   UNL     1      -0.455   8.808   0.604  0.00  0.00    +0.000 C 
ATOM     16  C   UNL     1      -0.115   9.197  -0.831  0.00  0.00    +0.000 C 
ATOM     17  C   UNL     1       0.645   8.086  -1.550  0.00  0.00    +0.000 C 
ATOM     18  C   UNL     1      -0.104   6.756  -1.490  0.00  0.00    +0.000 C 
ENDBRANCH  11  13
ENDBRANCH  10  11
ENDBRANCH   1  10
TORSDOF 4
