REMARK  Name = *****
REMARK  5 active torsions:
REMARK  status: ('A' for Active; 'I' for Inactive)
REMARK    1  A    between atoms: C_1  and  C_2
REMARK    2  A    between atoms: C_5  and  C_8
REMARK    3  A    between atoms: C_8  and  C_9
REMARK    4  A    between atoms: C_8  and  C_10
REMARK    5  A    between atoms: C_10  and  C_12
REMARK                            x       y       z     vdW  Elec       q    Type
REMARK                         _______ _______ _______ _____ _____    ______ ____
ROOT
ATOM      1  C   UNL     1      -3.390  -0.023  -0.101  0.00  0.00    +0.000 C 
ATOM      2  C   UNL     1      -3.831  -0.739  -1.384  0.00  0.00    +0.000 C 
ATOM      3  F   UNL     1      -3.908   1.248  -0.213  0.00  0.00    +0.000 F 
ENDROOT
BRANCH   1   8
ATOM      4  C   UNL     1       2.459   0.103   0.087  0.00  0.00    +0.000 C 
ATOM      5  C   UNL     1       0.959   0.075   0.069  0.00  0.00    +0.000 A 
ATOM      6  C   UNL     1       0.229   1.225  -0.246  0.00  0.00    +0.000 A 
ATOM      7  C   UNL     1      -1.166   1.187  -0.295  0.00  0.00    +0.000 A 
ATOM      8  C   UNL     1      -1.863  -0.003  -0.034  0.00  0.00    +0.000 A 
ATOM      9  C   UNL     1      -1.123  -1.160   0.258  0.00  0.00    +0.000 A 
ATOM     10  C   UNL     1       0.273  -1.120   0.306  0.00  0.00    +0.000 A 
ENDBRANCH   1   8
BRANCH   1  11
ATOM     11  C   UNL     1      -3.999  -0.737   1.123  0.00  0.00    +0.000 C 
ATOM     12  O   UNL     1      -4.284  -1.939   1.104  0.00  0.00    +0.000 OA
BRANCH  11  13
ATOM     13  C   UNL     1      -4.217   0.018   2.399  0.00  0.00    +0.000 A 
ATOM     14  C   UNL     1      -3.726   1.310   2.620  0.00  0.00    +0.000 A 
ATOM     15  C   UNL     1      -3.962   1.957   3.838  0.00  0.00    +0.000 A 
ATOM     16  C   UNL     1      -4.684   1.319   4.844  0.00  0.00    +0.000 A 
ATOM     17  C   UNL     1      -5.172   0.031   4.638  0.00  0.00    +0.000 A 
ATOM     18  C   UNL     1      -4.938  -0.616   3.423  0.00  0.00    +0.000 A 
ENDBRANCH  11  13
ENDBRANCH   1  11
TORSDOF 3
