REMARK  Name = *****
REMARK  3 active torsions:
REMARK  status: ('A' for Active; 'I' for Inactive)
REMARK    1  A    between atoms: C_4  and  N_7
REMARK    2  A    between atoms: N_7  and  C_8
REMARK    3  A    between atoms: C_8  and  C_10
REMARK                            x       y       z     vdW  Elec       q    Type
REMARK                         _______ _______ _______ _____ _____    ______ ____
ROOT
ATOM      1  C   UNL     1      -3.799  -1.001  -0.172  0.00  0.00    +0.000 C 
ATOM      2  S   UNL     1      -3.647  -2.601  -0.650  0.00  0.00    +0.000 S 
ENDROOT
BRANCH   1   3
ATOM      3  C   UNL     1      -5.162  -0.450   0.108  0.00  0.00    +0.000 A 
ATOM      4  C   UNL     1      -5.429   0.088   1.373  0.00  0.00    +0.000 A 
ATOM      5  C   UNL     1      -6.690   0.615   1.634  0.00  0.00    +0.000 A 
ATOM      6  C   UNL     1      -7.677   0.611   0.654  0.00  0.00    +0.000 A 
ATOM      7  C   UNL     1      -7.418   0.080  -0.606  0.00  0.00    +0.000 A 
ATOM      8  C   UNL     1      -6.156  -0.452  -0.884  0.00  0.00    +0.000 A 
ATOM      9  F   UNL     1      -8.887   1.125   0.914  0.00  0.00    +0.000 F 
ATOM     10  F   UNL     1      -6.944   1.134   2.843  0.00  0.00    +0.000 F 
ENDBRANCH   1   3
BRANCH   1  11
ATOM     11  N   UNL     1      -2.816  -0.032  -0.010  0.00  0.00    +0.000 N 
ATOM     12  H   UNL     1      -3.174   0.870   0.154  0.00  0.00    +0.000 HD
BRANCH  11  16
ATOM     13  C   UNL     1       1.415   0.066  -0.033  0.00  0.00    +0.000 A 
ATOM     14  C   UNL     1       0.773  -1.168  -0.056  0.00  0.00    +0.000 A 
ATOM     15  C   UNL     1      -0.626  -1.241  -0.052  0.00  0.00    +0.000 A 
ATOM     16  C   UNL     1      -1.400  -0.083  -0.034  0.00  0.00    +0.000 A 
ATOM     17  C   UNL     1      -0.738   1.155   0.002  0.00  0.00    +0.000 A 
ATOM     18  C   UNL     1       0.658   1.231  -0.001  0.00  0.00    +0.000 A 
ENDBRANCH  11  16
ENDBRANCH   1  11
TORSDOF 3
