REMARK  Name = *****
REMARK  3 active torsions:
REMARK  status: ('A' for Active; 'I' for Inactive)
REMARK    1  A    between atoms: C_1  and  C_2
REMARK    2  A    between atoms: C_2  and  C_10
REMARK    3  A    between atoms: N_3  and  C_4
REMARK                            x       y       z     vdW  Elec       q    Type
REMARK                         _______ _______ _______ _____ _____    ______ ____
ROOT
ATOM      1  C   UNL     1       0.957   0.251   0.110  0.00  0.00    +0.000 C 
ATOM      2  C   UNL     1       2.455   0.053  -0.011  0.00  0.00    +0.000 C 
ATOM      3  N   UNL     1       3.066  -1.050   0.259  0.00  0.00    +0.000 NA
ENDROOT
BRANCH   2   4
ATOM      4  C   UNL     1       3.279   1.211  -0.505  0.00  0.00    +0.000 A 
ATOM      5  C   UNL     1       2.700   2.339  -1.102  0.00  0.00    +0.000 A 
ATOM      6  C   UNL     1       3.505   3.392  -1.551  0.00  0.00    +0.000 A 
ATOM      7  C   UNL     1       4.890   3.318  -1.416  0.00  0.00    +0.000 A 
ATOM      8  C   UNL     1       5.480   2.198  -0.838  0.00  0.00    +0.000 A 
ATOM      9  C   UNL     1       4.677   1.148  -0.384  0.00  0.00    +0.000 A 
ATOM     10 CL   UNL     1       5.874   4.614  -1.973  0.00  0.00    +0.000 Cl
ENDBRANCH   2   4
BRANCH   3  11
ATOM     11  C   UNL     1       2.364  -2.249   0.707  0.00  0.00    +0.000 C 
ATOM     12  C   UNL     1       2.281  -2.249   2.238  0.00  0.00    +0.000 C 
ATOM     13  C   UNL     1       1.690  -3.553   2.767  0.00  0.00    +0.000 C 
ATOM     14  C   UNL     1       2.472  -4.765   2.269  0.00  0.00    +0.000 C 
ATOM     15  C   UNL     1       2.589  -4.774   0.748  0.00  0.00    +0.000 C 
ATOM     16  C   UNL     1       3.168  -3.463   0.220  0.00  0.00    +0.000 C 
ENDBRANCH   3  11
TORSDOF 2
