REMARK  Name = *****
REMARK  4 active torsions:
REMARK  status: ('A' for Active; 'I' for Inactive)
REMARK    1  A    between atoms: C_1  and  C_2
REMARK    2  A    between atoms: C_5  and  S_8
REMARK    3  A    between atoms: S_8  and  S_9
REMARK    4  A    between atoms: S_9  and  C_12
REMARK                            x       y       z     vdW  Elec       q    Type
REMARK                         _______ _______ _______ _____ _____    ______ ____
ROOT
ATOM      1  S   UNL     1      -4.212   1.987   0.046  0.00  0.00    +0.000 S 
ATOM      2  O   UNL     1      -3.775   2.689   1.238  0.00  0.00    +0.000 OA
ATOM      3  O   UNL     1      -3.837   2.440  -1.279  0.00  0.00    +0.000 OA
ENDROOT
BRANCH   1   4
ATOM      4  C   UNL     1      -5.992   1.917   0.097  0.00  0.00    +0.000 A 
ATOM      5  C   UNL     1      -6.652   2.020   1.328  0.00  0.00    +0.000 A 
ATOM      6  C   UNL     1      -8.046   1.985   1.362  0.00  0.00    +0.000 A 
ATOM      7  C   UNL     1      -8.761   1.859   0.173  0.00  0.00    +0.000 A 
ATOM      8  C   UNL     1      -8.108   1.771  -1.054  0.00  0.00    +0.000 A 
ATOM      9  C   UNL     1      -6.714   1.805  -1.098  0.00  0.00    +0.000 A 
ATOM     10  F   UNL     1     -10.099   1.827   0.210  0.00  0.00    +0.000 F 
ENDBRANCH   1   4
BRANCH   1  11
ATOM     11  S   UNL     1      -3.674  -0.026   0.234  0.00  0.00    +0.000 S 
BRANCH  11  16
ATOM     12  C   UNL     1       2.387   0.205  -0.333  0.00  0.00    +0.000 C 
ATOM     13  C   UNL     1       0.893   0.177  -0.200  0.00  0.00    +0.000 A 
ATOM     14  C   UNL     1       0.274   0.654   0.960  0.00  0.00    +0.000 A 
ATOM     15  C   UNL     1      -1.117   0.601   1.094  0.00  0.00    +0.000 A 
ATOM     16  C   UNL     1      -1.905   0.067   0.071  0.00  0.00    +0.000 A 
ATOM     17  C   UNL     1      -1.286  -0.433  -1.079  0.00  0.00    +0.000 A 
ATOM     18  C   UNL     1       0.104  -0.380  -1.212  0.00  0.00    +0.000 A 
ENDBRANCH  11  16
ENDBRANCH   1  11
TORSDOF 3
