REMARK  Name = *****
REMARK  2 active torsions:
REMARK  status: ('A' for Active; 'I' for Inactive)
REMARK    1  A    between atoms: C_5  and  C_7
REMARK    2  A    between atoms: N_8  and  C_9
REMARK                            x       y       z     vdW  Elec       q    Type
REMARK                         _______ _______ _______ _____ _____    ______ ____
ROOT
ATOM      1  C   UNL     1       1.018  -2.416   0.074  0.00  0.00    +0.000 C 
ATOM      2  N   UNL     1       2.303  -2.461  -0.088  0.00  0.00    +0.000 NA
ENDROOT
BRANCH   1   7
ATOM      3  C   UNL     1       0.211   1.263  -0.210  0.00  0.00    +0.000 A 
ATOM      4  C   UNL     1      -1.171   1.244  -0.011  0.00  0.00    +0.000 A 
ATOM      5  C   UNL     1      -1.827   0.033   0.215  0.00  0.00    +0.000 A 
ATOM      6  C   UNL     1      -1.098  -1.153   0.240  0.00  0.00    +0.000 A 
ATOM      7  C   UNL     1       0.281  -1.141   0.042  0.00  0.00    +0.000 A 
ATOM      8  C   UNL     1       0.940   0.071  -0.185  0.00  0.00    +0.000 A 
ATOM      9  F   UNL     1      -1.748  -2.305   0.461  0.00  0.00    +0.000 F 
ENDBRANCH   1   7
BRANCH   2  10
ATOM     10  C   UNL     1       2.912  -3.731  -0.055  0.00  0.00    +0.000 A 
ATOM     11  C   UNL     1       3.989  -3.926   0.815  0.00  0.00    +0.000 A 
ATOM     12  C   UNL     1       4.651  -5.156   0.872  0.00  0.00    +0.000 A 
ATOM     13  C   UNL     1       4.248  -6.207   0.047  0.00  0.00    +0.000 A 
ATOM     14  C   UNL     1       3.186  -6.025  -0.837  0.00  0.00    +0.000 A 
ATOM     15  C   UNL     1       2.532  -4.795  -0.887  0.00  0.00    +0.000 A 
ATOM     16  F   UNL     1       1.516  -4.647  -1.751  0.00  0.00    +0.000 F 
ENDBRANCH   2  10
TORSDOF 2
