REMARK  Name = *****
REMARK  3 active torsions:
REMARK  status: ('A' for Active; 'I' for Inactive)
REMARK    1  A    between atoms: C_6  and  O_7
REMARK    2  A    between atoms: O_7  and  C_8
REMARK    3  A    between atoms: C_8  and  C_10
REMARK                            x       y       z     vdW  Elec       q    Type
REMARK                         _______ _______ _______ _____ _____    ______ ____
ROOT
ATOM      1  C   UNL     1      -3.821   2.714  -0.492  0.00  0.00    +0.000 C 
ATOM      2  O   UNL     1      -2.940   3.236  -1.159  0.00  0.00    +0.000 OA
ENDROOT
BRANCH   1   3
ATOM      3  C   UNL     1      -5.138   3.348  -0.282  0.00  0.00    +0.000 A 
ATOM      4  C   UNL     1      -6.295   2.605  -0.032  0.00  0.00    +0.000 A 
ATOM      5  C   UNL     1      -7.523   3.241   0.155  0.00  0.00    +0.000 A 
ATOM      6  C   UNL     1      -7.600   4.631   0.084  0.00  0.00    +0.000 A 
ATOM      7  C   UNL     1      -6.449   5.368  -0.180  0.00  0.00    +0.000 A 
ATOM      8  C   UNL     1      -5.221   4.744  -0.368  0.00  0.00    +0.000 A 
ATOM      9  F   UNL     1      -6.527   6.703  -0.254  0.00  0.00    +0.000 F 
ATOM     10  F   UNL     1      -6.268   1.266   0.007  0.00  0.00    +0.000 F 
ENDBRANCH   1   3
BRANCH   1  11
ATOM     11  O   UNL     1      -3.744   1.538   0.227  0.00  0.00    +0.000 OA
BRANCH  11  17
ATOM     12  C   UNL     1      -2.545  -0.396  -0.498  0.00  0.00    +0.000 A 
ATOM     13  C   UNL     1      -1.360  -1.126  -0.590  0.00  0.00    +0.000 A 
ATOM     14  C   UNL     1      -0.172  -0.606  -0.063  0.00  0.00    +0.000 A 
ATOM     15  C   UNL     1      -0.172   0.648   0.564  0.00  0.00    +0.000 A 
ATOM     16  C   UNL     1      -1.357   1.381   0.658  0.00  0.00    +0.000 A 
ATOM     17  C   UNL     1      -2.527   0.858   0.108  0.00  0.00    +0.000 A 
ATOM     18 CL   UNL     1       1.256   1.339   1.249  0.00  0.00    +0.000 Cl
ATOM     19 CL   UNL     1       1.257  -1.568  -0.210  0.00  0.00    +0.000 Cl
ENDBRANCH  11  17
ENDBRANCH   1  11
TORSDOF 3
