REMARK  Name = *****
REMARK  5 active torsions:
REMARK  status: ('A' for Active; 'I' for Inactive)
REMARK    1  A    between atoms: C_1  and  C_2
REMARK    2  A    between atoms: C_2  and  C_3
REMARK    3  A    between atoms: C_2  and  C_4
REMARK    4  A    between atoms: C_2  and  S_10
REMARK    5  A    between atoms: S_10  and  C_12
REMARK                            x       y       z     vdW  Elec       q    Type
REMARK                         _______ _______ _______ _____ _____    ______ ____
ROOT
ATOM      1  C   UNL     1       1.062   0.136   0.324  0.00  0.00    +0.000 C 
ATOM      2  C   UNL     1       2.583  -0.000   0.078  0.00  0.00    +0.000 C 
ATOM      3  C   UNL     1       3.269   0.518   1.368  0.00  0.00    +0.000 C 
ENDROOT
BRANCH   2   4
ATOM      4  C   UNL     1       3.052  -1.433  -0.224  0.00  0.00    +0.000 A 
ATOM      5  C   UNL     1       4.427  -1.735  -0.298  0.00  0.00    +0.000 A 
ATOM      6  C   UNL     1       4.879  -3.029  -0.570  0.00  0.00    +0.000 A 
ATOM      7  C   UNL     1       3.966  -4.057  -0.776  0.00  0.00    +0.000 A 
ATOM      8  C   UNL     1       2.604  -3.788  -0.712  0.00  0.00    +0.000 A 
ATOM      9  C   UNL     1       2.152  -2.492  -0.440  0.00  0.00    +0.000 A 
ENDBRANCH   2   4
BRANCH   2  10
ATOM     10  S   UNL     1       3.034   1.219  -1.289  0.00  0.00    +0.000 S 
ATOM     11  O   UNL     1       4.530   1.243  -1.429  0.00  0.00    +0.000 OA
BRANCH  10  12
ATOM     12  C   UNL     1       2.404   0.345  -2.738  0.00  0.00    +0.000 A 
ATOM     13  C   UNL     1       1.085   0.560  -3.156  0.00  0.00    +0.000 A 
ATOM     14  C   UNL     1       0.589  -0.093  -4.287  0.00  0.00    +0.000 A 
ATOM     15  C   UNL     1       1.411  -0.953  -5.013  0.00  0.00    +0.000 A 
ATOM     16  C   UNL     1       2.732  -1.153  -4.616  0.00  0.00    +0.000 A 
ATOM     17  C   UNL     1       3.229  -0.499  -3.488  0.00  0.00    +0.000 A 
ENDBRANCH  10  12
ENDBRANCH   2  10
TORSDOF 3
