REMARK  Name = *****
REMARK  2 active torsions:
REMARK  status: ('A' for Active; 'I' for Inactive)
REMARK    1  A    between atoms: C_9  and  S_10
REMARK    2  A    between atoms: S_10  and  C_11
REMARK                            x       y       z     vdW  Elec       q    Type
REMARK                         _______ _______ _______ _____ _____    ______ ____
ROOT
ATOM      1  C   UNL     1       2.525   0.018  -0.198  0.00  0.00    +0.000 C 
ATOM      2  C   UNL     1       1.668   1.260   0.094  0.00  0.00    +0.000 C 
ATOM      3  C   UNL     1       0.290   0.685   0.003  0.00  0.00    +0.000 A 
ATOM      4  C   UNL     1      -0.908   1.365  -0.135  0.00  0.00    +0.000 A 
ATOM      5  C   UNL     1      -2.091   0.624  -0.160  0.00  0.00    +0.000 A 
ATOM      6  C   UNL     1      -2.063  -0.774  -0.037  0.00  0.00    +0.000 A 
ATOM      7  C   UNL     1      -0.851  -1.451   0.116  0.00  0.00    +0.000 A 
ATOM      8  C   UNL     1       0.321  -0.710   0.135  0.00  0.00    +0.000 A 
ATOM      9  C   UNL     1       1.733  -1.207   0.306  0.00  0.00    +0.000 C 
ENDROOT
BRANCH   9  10
ATOM     10  S   UNL     1       2.079  -1.596   2.062  0.00  0.00    +0.000 S 
BRANCH  10  11
ATOM     11  C   UNL     1       3.730  -2.253   1.925  0.00  0.00    +0.000 A 
ATOM     12  C   UNL     1       4.773  -1.624   2.612  0.00  0.00    +0.000 A 
ATOM     13  C   UNL     1       6.075  -2.122   2.529  0.00  0.00    +0.000 A 
ATOM     14  C   UNL     1       6.339  -3.258   1.767  0.00  0.00    +0.000 A 
ATOM     15  C   UNL     1       5.302  -3.900   1.092  0.00  0.00    +0.000 A 
ATOM     16  C   UNL     1       4.000  -3.402   1.175  0.00  0.00    +0.000 A 
ENDBRANCH  10  11
ENDBRANCH   9  10
TORSDOF 2
