REMARK  Name = *****
REMARK  2 active torsions:
REMARK  status: ('A' for Active; 'I' for Inactive)
REMARK    1  A    between atoms: C_4  and  C_7
REMARK    2  A    between atoms: C_8  and  C_9
REMARK                            x       y       z     vdW  Elec       q    Type
REMARK                         _______ _______ _______ _____ _____    ______ ____
ROOT
ATOM      1  C   UNL     1      -0.896  -1.193   1.789  0.00  0.00    +0.000 C 
ATOM      2  C   UNL     1      -0.900  -1.241   2.989  0.00  0.00    +0.000 C 
ENDROOT
BRANCH   1   6
ATOM      3  C   UNL     1       0.924   1.416  -0.231  0.00  0.00    +0.000 C 
ATOM      4  C   UNL     1       1.587   0.131   0.247  0.00  0.00    +0.000 C 
ATOM      5  S   UNL     1       0.772  -1.364  -0.381  0.00  0.00    +0.000 S 
ATOM      6  C   UNL     1      -0.889  -1.131   0.322  0.00  0.00    +0.000 C 
ATOM      7  S   UNL     1      -1.665   0.383  -0.318  0.00  0.00    +0.000 S 
ATOM      8  C   UNL     1      -0.489   1.620   0.299  0.00  0.00    +0.000 C 
ENDBRANCH   1   6
BRANCH   2   9
ATOM      9  C   UNL     1      -0.900  -1.288   4.418  0.00  0.00    +0.000 A 
ATOM     10  C   UNL     1      -0.361  -2.393   5.081  0.00  0.00    +0.000 A 
ATOM     11  C   UNL     1      -0.359  -2.438   6.477  0.00  0.00    +0.000 A 
ATOM     12  C   UNL     1      -0.894  -1.378   7.209  0.00  0.00    +0.000 A 
ATOM     13  C   UNL     1      -1.433  -0.274   6.549  0.00  0.00    +0.000 A 
ATOM     14  C   UNL     1      -1.436  -0.228   5.153  0.00  0.00    +0.000 A 
ENDBRANCH   2   9
TORSDOF 2
