REMARK  Name = *****
REMARK  4 active torsions:
REMARK  status: ('A' for Active; 'I' for Inactive)
REMARK    1  A    between atoms: C_1  and  C_2
REMARK    2  A    between atoms: C_5  and  C_8
REMARK    3  A    between atoms: C_8  and  O_10
REMARK    4  A    between atoms: O_10  and  C_11
REMARK                            x       y       z     vdW  Elec       q    Type
REMARK                         _______ _______ _______ _____ _____    ______ ____
ROOT
ATOM      1  C   UNL     1      -2.945  -0.465   0.982  0.00  0.00    +0.000 C 
ATOM      2  O   UNL     1      -3.547  -1.506   0.763  0.00  0.00    +0.000 OA
ENDROOT
BRANCH   1   7
ATOM      3  C   UNL     1       2.491   0.332  -0.893  0.00  0.00    +0.000 C 
ATOM      4  C   UNL     1       1.076   0.150  -0.428  0.00  0.00    +0.000 A 
ATOM      5  C   UNL     1       0.432   1.164   0.292  0.00  0.00    +0.000 A 
ATOM      6  C   UNL     1      -0.875   0.987   0.757  0.00  0.00    +0.000 A 
ATOM      7  C   UNL     1      -1.553  -0.215   0.514  0.00  0.00    +0.000 A 
ATOM      8  C   UNL     1      -0.903  -1.235  -0.194  0.00  0.00    +0.000 A 
ATOM      9  C   UNL     1       0.403  -1.055  -0.656  0.00  0.00    +0.000 A 
ENDBRANCH   1   7
BRANCH   1  10
ATOM     10  O   UNL     1      -3.410   0.638   1.675  0.00  0.00    +0.000 OA
BRANCH  10  11
ATOM     11  C   UNL     1      -4.708   0.519   2.186  0.00  0.00    +0.000 A 
ATOM     12  C   UNL     1      -5.003  -0.403   3.190  0.00  0.00    +0.000 A 
ATOM     13  C   UNL     1      -6.296  -0.451   3.714  0.00  0.00    +0.000 A 
ATOM     14  C   UNL     1      -7.268   0.432   3.241  0.00  0.00    +0.000 A 
ATOM     15  C   UNL     1      -6.960   1.367   2.251  0.00  0.00    +0.000 A 
ATOM     16  C   UNL     1      -5.669   1.417   1.723  0.00  0.00    +0.000 A 
ATOM     17 CL   UNL     1      -8.861   0.375   3.892  0.00  0.00    +0.000 Cl
ENDBRANCH  10  11
ENDBRANCH   1  10
TORSDOF 3
