REMARK  Name = *****
REMARK  4 active torsions:
REMARK  status: ('A' for Active; 'I' for Inactive)
REMARK    1  A    between atoms: C_1  and  C_11
REMARK    2  A    between atoms: C_2  and  C_3
REMARK    3  A    between atoms: C_6  and  O_9
REMARK    4  A    between atoms: O_9  and  C_10
REMARK                            x       y       z     vdW  Elec       q    Type
REMARK                         _______ _______ _______ _____ _____    ______ ____
ROOT
ATOM      1  C   UNL     1       2.183   0.026  -0.010  0.00  0.00    +0.000 C 
ATOM      2  C   UNL     1       2.736  -1.110   0.447  0.00  0.00    +0.000 C 
ENDROOT
BRANCH   2   3
ATOM      3  C   UNL     1       1.987  -2.157   1.156  0.00  0.00    +0.000 A 
ATOM      4  C   UNL     1       0.684  -2.522   0.797  0.00  0.00    +0.000 A 
ATOM      5  C   UNL     1       0.011  -3.547   1.475  0.00  0.00    +0.000 A 
ATOM      6  C   UNL     1       0.639  -4.228   2.517  0.00  0.00    +0.000 A 
ATOM      7  C   UNL     1       1.944  -3.880   2.867  0.00  0.00    +0.000 A 
ATOM      8  C   UNL     1       2.617  -2.858   2.190  0.00  0.00    +0.000 A 
BRANCH   6   9
ATOM      9  O   UNL     1       0.099  -5.243   3.258  0.00  0.00    +0.000 OA
ATOM     10  C   UNL     1      -1.240  -5.616   2.956  0.00  0.00    +0.000 C 
ENDBRANCH   6   9
ENDBRANCH   2   3
BRANCH   1  11
ATOM     11  C   UNL     1       2.935   1.083  -0.702  0.00  0.00    +0.000 A 
ATOM     12  C   UNL     1       3.958   0.798  -1.617  0.00  0.00    +0.000 A 
ATOM     13  C   UNL     1       4.628   1.830  -2.279  0.00  0.00    +0.000 A 
ATOM     14  C   UNL     1       4.275   3.157  -2.041  0.00  0.00    +0.000 A 
ATOM     15  C   UNL     1       3.249   3.452  -1.147  0.00  0.00    +0.000 A 
ATOM     16  C   UNL     1       2.579   2.420  -0.485  0.00  0.00    +0.000 A 
ENDBRANCH   1  11
TORSDOF 3
