REMARK  Name = *****
REMARK  5 active torsions:
REMARK  status: ('A' for Active; 'I' for Inactive)
REMARK    1  A    between atoms: C_1  and  O_2
REMARK    2  A    between atoms: O_2  and  C_3
REMARK    3  A    between atoms: C_8  and  S_9
REMARK    4  A    between atoms: S_9  and  C_10
REMARK    5  A    between atoms: C_10  and  C_12
REMARK                            x       y       z     vdW  Elec       q    Type
REMARK                         _______ _______ _______ _____ _____    ______ ____
ROOT
ATOM      1  S   UNL     1       4.906   0.179   1.625  0.00  0.00    +0.000 S 
ENDROOT
BRANCH   1   7
ATOM      2  C   UNL     1       3.431  -1.059  -0.432  0.00  0.00    +0.000 A 
ATOM      3  C   UNL     1       3.029  -2.190  -1.153  0.00  0.00    +0.000 A 
ATOM      4  C   UNL     1       3.467  -3.461  -0.776  0.00  0.00    +0.000 A 
ATOM      5  C   UNL     1       4.320  -3.611   0.314  0.00  0.00    +0.000 A 
ATOM      6  C   UNL     1       4.740  -2.488   1.028  0.00  0.00    +0.000 A 
ATOM      7  C   UNL     1       4.302  -1.207   0.665  0.00  0.00    +0.000 A 
BRANCH   2   9
ATOM      8  C   UNL     1       1.739   0.339  -1.303  0.00  0.00    +0.000 C 
ATOM      9  O   UNL     1       3.061   0.216  -0.787  0.00  0.00    +0.000 OA
ENDBRANCH   2   9
ENDBRANCH   1   7
BRANCH   1  10
ATOM     10  C   UNL     1       3.382   0.926   2.093  0.00  0.00    +0.000 C 
ATOM     11  O   UNL     1       2.516   0.280   2.674  0.00  0.00    +0.000 OA
BRANCH  10  12
ATOM     12  C   UNL     1       3.184   2.382   1.815  0.00  0.00    +0.000 A 
ATOM     13  C   UNL     1       4.039   3.143   1.003  0.00  0.00    +0.000 A 
ATOM     14  C   UNL     1       3.782   4.501   0.780  0.00  0.00    +0.000 A 
ATOM     15  C   UNL     1       2.669   5.105   1.361  0.00  0.00    +0.000 A 
ATOM     16  C   UNL     1       1.807   4.363   2.163  0.00  0.00    +0.000 A 
ATOM     17  C   UNL     1       2.062   3.006   2.387  0.00  0.00    +0.000 A 
ATOM     18 CL   UNL     1       2.357   6.772   1.082  0.00  0.00    +0.000 Cl
ENDBRANCH  10  12
ENDBRANCH   1  10
TORSDOF 4
