REMARK  Name = *****
REMARK  5 active torsions:
REMARK  status: ('A' for Active; 'I' for Inactive)
REMARK    1  A    between atoms: C_1  and  C_2
REMARK    2  A    between atoms: C_3  and  C_9
REMARK    3  A    between atoms: C_4  and  C_8
REMARK    4  A    between atoms: C_9  and  C_10
REMARK    5  A    between atoms: C_10  and  C_12
REMARK                            x       y       z     vdW  Elec       q    Type
REMARK                         _______ _______ _______ _____ _____    ______ ____
ROOT
ATOM      1  C   UNL     1       0.227   2.655   0.444  0.00  0.00    +0.000 C 
ENDROOT
BRANCH   1   4
ATOM      2  C   UNL     1       2.671   0.879   0.441  0.00  0.00    +0.000 C 
ATOM      3  C   UNL     1       1.319   0.384  -0.002  0.00  0.00    +0.000 A 
ATOM      4  C   UNL     1       0.156   1.195   0.018  0.00  0.00    +0.000 A 
ATOM      5  C   UNL     1      -1.088   0.615  -0.348  0.00  0.00    +0.000 A 
ATOM      6  C   UNL     1      -1.132  -0.713  -0.803  0.00  0.00    +0.000 A 
ATOM      7  C   UNL     1       0.021  -1.485  -0.863  0.00  0.00    +0.000 A 
ATOM      8  C   UNL     1       1.234  -0.943  -0.458  0.00  0.00    +0.000 A 
ATOM      9  C   UNL     1      -2.390   1.375  -0.305  0.00  0.00    +0.000 C 
ENDBRANCH   1   4
BRANCH   1  10
ATOM     10  C   UNL     1      -0.213   3.633  -0.632  0.00  0.00    +0.000 C 
ATOM     11  O   UNL     1      -1.190   4.369  -0.494  0.00  0.00    +0.000 OA
BRANCH  10  12
ATOM     12  C   UNL     1       0.524   3.678  -1.911  0.00  0.00    +0.000 A 
ATOM     13  C   UNL     1      -0.201   3.648  -3.108  0.00  0.00    +0.000 A 
ATOM     14  C   UNL     1       0.474   3.689  -4.330  0.00  0.00    +0.000 A 
ATOM     15  C   UNL     1       1.867   3.776  -4.357  0.00  0.00    +0.000 A 
ATOM     16  C   UNL     1       2.586   3.832  -3.163  0.00  0.00    +0.000 A 
ATOM     17  C   UNL     1       1.910   3.789  -1.946  0.00  0.00    +0.000 A 
ATOM     18  F   UNL     1       2.622   3.896  -0.815  0.00  0.00    +0.000 F 
ENDBRANCH  10  12
ENDBRANCH   1  10
TORSDOF 3
