REMARK  Name = *****
REMARK  3 active torsions:
REMARK  status: ('A' for Active; 'I' for Inactive)
REMARK    1  A    between atoms: C_1  and  C_2
REMARK    2  A    between atoms: C_4  and  N_8
REMARK    3  A    between atoms: C_9  and  C_11
REMARK                            x       y       z     vdW  Elec       q    Type
REMARK                         _______ _______ _______ _____ _____    ______ ____
ROOT
ATOM      1  N   UNL     1      -1.617   2.594   0.192  0.00  0.00    +0.000 N 
ATOM      2  C   UNL     1      -1.055   3.827  -0.085  0.00  0.00    +0.000 C 
ATOM      3  O   UNL     1       0.117   4.063  -0.350  0.00  0.00    +0.000 OA
ATOM      4  H   UNL     1      -2.567   2.595   0.450  0.00  0.00    +0.000 HD
ENDROOT
BRANCH   2   5
ATOM      5  C   UNL     1      -1.995   4.981  -0.004  0.00  0.00    +0.000 A 
ATOM      6  C   UNL     1      -3.334   4.870  -0.400  0.00  0.00    +0.000 A 
ATOM      7  C   UNL     1      -4.164   5.984  -0.313  0.00  0.00    +0.000 A 
ATOM      8  C   UNL     1      -3.676   7.201   0.152  0.00  0.00    +0.000 A 
ATOM      9  C   UNL     1      -2.344   7.326   0.530  0.00  0.00    +0.000 A 
ATOM     10  C   UNL     1      -1.500   6.216   0.447  0.00  0.00    +0.000 A 
ATOM     11  F   UNL     1      -4.486   8.265   0.233  0.00  0.00    +0.000 F 
ATOM     12  F   UNL     1      -5.446   5.872  -0.688  0.00  0.00    +0.000 F 
ENDBRANCH   2   5
BRANCH   1  16
ATOM     13  C   UNL     1       2.317  -0.358  -0.745  0.00  0.00    +0.000 C 
ATOM     14  C   UNL     1       0.898  -0.150  -0.302  0.00  0.00    +0.000 A 
ATOM     15  C   UNL     1       0.336   1.136  -0.275  0.00  0.00    +0.000 A 
ATOM     16  C   UNL     1      -0.982   1.334   0.147  0.00  0.00    +0.000 A 
ATOM     17  C   UNL     1      -1.739   0.224   0.542  0.00  0.00    +0.000 A 
ATOM     18  C   UNL     1      -1.187  -1.059   0.523  0.00  0.00    +0.000 A 
ATOM     19  C   UNL     1       0.128  -1.245   0.104  0.00  0.00    +0.000 A 
ENDBRANCH   1  16
TORSDOF 2
