REMARK  Name = *****
REMARK  2 active torsions:
REMARK  status: ('A' for Active; 'I' for Inactive)
REMARK    1  A    between atoms: C_1  and  C_2
REMARK    2  A    between atoms: C_10  and  C_11
REMARK                            x       y       z     vdW  Elec       q    Type
REMARK                         _______ _______ _______ _____ _____    ______ ____
ROOT
ATOM      1  C   UNL     1       0.908   0.048  -0.049  0.00  0.00    +0.000 C 
ATOM      2  C   UNL     1       2.435   0.055  -0.056  0.00  0.00    +0.000 C 
ATOM      3  C   UNL     1       2.994  -1.126  -0.810  0.00  0.00    +0.000 A 
ATOM      4  C   UNL     1       2.833  -2.481  -0.568  0.00  0.00    +0.000 A 
ATOM      5  C   UNL     1       3.470  -3.385  -1.422  0.00  0.00    +0.000 A 
ATOM      6  C   UNL     1       4.255  -2.927  -2.493  0.00  0.00    +0.000 A 
ATOM      7  C   UNL     1       4.417  -1.558  -2.725  0.00  0.00    +0.000 A 
ATOM      8  C   UNL     1       3.780  -0.671  -1.874  0.00  0.00    +0.000 A 
ATOM      9  C   UNL     1       3.788   0.780  -1.881  0.00  0.00    +0.000 C 
ATOM     10  C   UNL     1       3.028   1.214  -0.856  0.00  0.00    +0.000 C 
ENDROOT
BRANCH  10  11
ATOM     11  C   UNL     1       2.835   2.626  -0.489  0.00  0.00    +0.000 A 
ATOM     12  C   UNL     1       2.812   3.628  -1.471  0.00  0.00    +0.000 A 
ATOM     13  C   UNL     1       2.615   4.969  -1.129  0.00  0.00    +0.000 A 
ATOM     14  C   UNL     1       2.434   5.329   0.204  0.00  0.00    +0.000 A 
ATOM     15  C   UNL     1       2.450   4.349   1.192  0.00  0.00    +0.000 A 
ATOM     16  C   UNL     1       2.647   3.008   0.847  0.00  0.00    +0.000 A 
ENDBRANCH  10  11
TORSDOF 1
