REMARK  Name = *****
REMARK  4 active torsions:
REMARK  status: ('A' for Active; 'I' for Inactive)
REMARK    1  A    between atoms: C_1  and  C_2
REMARK    2  A    between atoms: C_2  and  C_13
REMARK    3  A    between atoms: C_4  and  C_5
REMARK    4  A    between atoms: C_8  and  C_11
REMARK                            x       y       z     vdW  Elec       q    Type
REMARK                         _______ _______ _______ _____ _____    ______ ____
ROOT
ATOM      1  C   UNL     1       0.731   0.209  -0.078  0.00  0.00    +0.000 C 
ATOM      2  C   UNL     1       2.238   0.079  -0.030  0.00  0.00    +0.000 C 
ATOM      3  C   UNL     1       3.020   0.851  -1.072  0.00  0.00    +0.000 C 
ATOM      4  C   UNL     1       2.995  -0.653  -1.149  0.00  0.00    +0.000 C 
ENDROOT
BRANCH   4   5
ATOM      5  C   UNL     1       2.264  -1.368  -2.263  0.00  0.00    +0.000 A 
ATOM      6  C   UNL     1       2.377  -0.961  -3.603  0.00  0.00    +0.000 A 
ATOM      7  C   UNL     1       1.714  -1.638  -4.632  0.00  0.00    +0.000 A 
ATOM      8  C   UNL     1       0.925  -2.752  -4.340  0.00  0.00    +0.000 A 
ATOM      9  C   UNL     1       0.809  -3.185  -3.018  0.00  0.00    +0.000 A 
ATOM     10  C   UNL     1       1.476  -2.501  -1.997  0.00  0.00    +0.000 A 
BRANCH   8  11
ATOM     11  C   UNL     1       0.243  -3.450  -5.391  0.00  0.00    +0.000 C 
ATOM     12  N   UNL     1      -0.309  -4.014  -6.241  0.00  0.00    +0.000 NA
ENDBRANCH   8  11
ENDBRANCH   4   5
BRANCH   2  13
ATOM     13  C   UNL     1       2.806  -0.027   1.381  0.00  0.00    +0.000 A 
ATOM     14  C   UNL     1       2.979  -1.274   2.006  0.00  0.00    +0.000 A 
ATOM     15  C   UNL     1       3.488  -1.376   3.304  0.00  0.00    +0.000 A 
ATOM     16  C   UNL     1       3.830  -0.226   4.009  0.00  0.00    +0.000 A 
ATOM     17  C   UNL     1       3.661   1.023   3.418  0.00  0.00    +0.000 A 
ATOM     18  C   UNL     1       3.152   1.118   2.120  0.00  0.00    +0.000 A 
ENDBRANCH   2  13
TORSDOF 3
