REMARK  Name = *****
REMARK  4 active torsions:
REMARK  status: ('A' for Active; 'I' for Inactive)
REMARK    1  A    between atoms: C_1  and  C_2
REMARK    2  A    between atoms: C_6  and  C_9
REMARK    3  A    between atoms: C_9  and  C_10
REMARK    4  A    between atoms: C_11  and  C_12
REMARK                            x       y       z     vdW  Elec       q    Type
REMARK                         _______ _______ _______ _____ _____    ______ ____
ROOT
ATOM      1  C   UNL     1       3.050  -3.133  -2.016  0.00  0.00    +0.000 C 
ENDROOT
BRANCH   1   7
ATOM      2  C   UNL     1       0.966   0.355   0.153  0.00  0.00    +0.000 C 
ATOM      3  C   UNL     1       2.473   0.129   0.094  0.00  0.00    +0.000 C 
ATOM      4  C   UNL     1       3.188   1.095  -0.852  0.00  0.00    +0.000 C 
ATOM      5  C   UNL     1       2.959   0.768  -2.325  0.00  0.00    +0.000 C 
ATOM      6  C   UNL     1       3.363  -0.672  -2.637  0.00  0.00    +0.000 C 
ATOM      7  C   UNL     1       2.599  -1.682  -1.770  0.00  0.00    +0.000 C 
ATOM      8  C   UNL     1       2.771  -1.312  -0.297  0.00  0.00    +0.000 C 
ATOM      9  O   UNL     1       3.049  -2.145   0.567  0.00  0.00    +0.000 OA
ENDBRANCH   1   7
BRANCH   1  10
ATOM     10  C   UNL     1       2.816  -3.600  -3.428  0.00  0.00    +0.000 C 
ATOM     11  C   UNL     1       1.818  -4.427  -3.778  0.00  0.00    +0.000 C 
BRANCH  11  12
ATOM     12  C   UNL     1       1.590  -4.879  -5.156  0.00  0.00    +0.000 A 
ATOM     13  C   UNL     1       2.635  -5.346  -5.963  0.00  0.00    +0.000 A 
ATOM     14  C   UNL     1       2.381  -5.795  -7.262  0.00  0.00    +0.000 A 
ATOM     15  C   UNL     1       1.080  -5.789  -7.761  0.00  0.00    +0.000 A 
ATOM     16  C   UNL     1       0.031  -5.339  -6.961  0.00  0.00    +0.000 A 
ATOM     17  C   UNL     1       0.284  -4.892  -5.662  0.00  0.00    +0.000 A 
ENDBRANCH  11  12
ENDBRANCH   1  10
TORSDOF 3
