REMARK  Name = *****
REMARK  5 active torsions:
REMARK  status: ('A' for Active; 'I' for Inactive)
REMARK    1  A    between atoms: C_1  and  C_2
REMARK    2  A    between atoms: C_5  and  C_7
REMARK    3  A    between atoms: C_7  and  O_9
REMARK    4  A    between atoms: O_9  and  C_10
REMARK    5  A    between atoms: C_10  and  C_11
REMARK                            x       y       z     vdW  Elec       q    Type
REMARK                         _______ _______ _______ _____ _____    ______ ____
ROOT
ATOM      1  C   UNL     1      -3.100   0.799  -0.087  0.00  0.00    +0.000 C 
ATOM      2  O   UNL     1      -3.294   1.975  -0.374  0.00  0.00    +0.000 OA
ENDROOT
BRANCH   1   7
ATOM      3  C   UNL     1       2.091  -0.225  -0.304  0.00  0.00    +0.000 C 
ATOM      4  C   UNL     1       0.615  -0.352  -0.146  0.00  0.00    +0.000 A 
ATOM      5  C   UNL     1      -0.122  -1.472   0.175  0.00  0.00    +0.000 A 
ATOM      6  C   UNL     1      -1.519  -1.197   0.234  0.00  0.00    +0.000 A 
ATOM      7  C   UNL     1      -1.814   0.126  -0.044  0.00  0.00    +0.000 A 
ATOM      8  S   UNL     1      -0.386   1.015  -0.375  0.00  0.00    +0.000 S 
ENDBRANCH   1   7
BRANCH   1   9
ATOM      9  O   UNL     1      -4.084  -0.081   0.255  0.00  0.00    +0.000 OA
BRANCH   9  10
ATOM     10  C   UNL     1      -5.419   0.432   0.217  0.00  0.00    +0.000 C 
BRANCH  10  11
ATOM     11  C   UNL     1      -6.066   0.044  -1.087  0.00  0.00    +0.000 A 
ATOM     12  C   UNL     1      -6.648  -1.222  -1.244  0.00  0.00    +0.000 A 
ATOM     13  C   UNL     1      -7.228  -1.588  -2.460  0.00  0.00    +0.000 A 
ATOM     14  C   UNL     1      -7.223  -0.697  -3.531  0.00  0.00    +0.000 A 
ATOM     15  C   UNL     1      -6.635   0.559  -3.390  0.00  0.00    +0.000 A 
ATOM     16  C   UNL     1      -6.056   0.927  -2.175  0.00  0.00    +0.000 A 
ENDBRANCH  10  11
ENDBRANCH   9  10
ENDBRANCH   1   9
TORSDOF 4
