REMARK  Name = *****
REMARK  3 active torsions:
REMARK  status: ('A' for Active; 'I' for Inactive)
REMARK    1  A    between atoms: C_4  and  S_7
REMARK    2  A    between atoms: S_7  and  C_8
REMARK    3  A    between atoms: C_8  and  C_10
REMARK                            x       y       z     vdW  Elec       q    Type
REMARK                         _______ _______ _______ _____ _____    ______ ____
ROOT
ATOM      1  C   UNL     1      -3.912  -1.971  -0.197  0.00  0.00    +0.000 C 
ATOM      2  O   UNL     1      -3.798  -3.111   0.234  0.00  0.00    +0.000 OA
ENDROOT
BRANCH   1   3
ATOM      3  C   UNL     1      -5.235  -1.349  -0.352  0.00  0.00    +0.000 A 
ATOM      4  C   UNL     1      -5.947  -1.053   0.819  0.00  0.00    +0.000 A 
ATOM      5  C   UNL     1      -7.208  -0.463   0.735  0.00  0.00    +0.000 A 
ATOM      6  C   UNL     1      -7.762  -0.180  -0.513  0.00  0.00    +0.000 A 
ATOM      7  C   UNL     1      -7.060  -0.493  -1.680  0.00  0.00    +0.000 A 
ATOM      8  C   UNL     1      -5.795  -1.084  -1.604  0.00  0.00    +0.000 A 
ATOM      9 CL   UNL     1      -5.005  -1.489  -3.084  0.00  0.00    +0.000 Cl
ENDBRANCH   1   3
BRANCH   1  10
ATOM     10  S   UNL     1      -2.532  -0.935  -0.527  0.00  0.00    +0.000 S 
BRANCH  10  14
ATOM     11  C   UNL     1      -1.619   0.562   3.706  0.00  0.00    +0.000 A 
ATOM     12  C   UNL     1      -1.527  -0.799   3.420  0.00  0.00    +0.000 A 
ATOM     13  C   UNL     1      -1.801  -1.262   2.132  0.00  0.00    +0.000 A 
ATOM     14  C   UNL     1      -2.176  -0.367   1.124  0.00  0.00    +0.000 A 
ATOM     15  C   UNL     1      -2.257   0.999   1.416  0.00  0.00    +0.000 A 
ATOM     16  C   UNL     1      -1.982   1.461   2.705  0.00  0.00    +0.000 A 
ENDBRANCH  10  14
ENDBRANCH   1  10
TORSDOF 3
