REMARK  Name = *****
REMARK  2 active torsions:
REMARK  status: ('A' for Active; 'I' for Inactive)
REMARK    1  A    between atoms: C_5  and  O_8
REMARK    2  A    between atoms: O_8  and  N_9
REMARK                            x       y       z     vdW  Elec       q    Type
REMARK                         _______ _______ _______ _____ _____    ______ ____
ROOT
ATOM      1  N   UNL     1      -2.397  -0.333  -2.503  0.00  0.00    +0.000 N 
ATOM      2  C   UNL     1      -2.601   0.660  -3.419  0.00  0.00    +0.000 A 
ATOM      3  C   UNL     1      -3.902   0.414  -3.840  0.00  0.00    +0.000 A 
ATOM      4  C   UNL     1      -4.491   1.254  -4.793  0.00  0.00    +0.000 A 
ATOM      5  C   UNL     1      -3.726   2.314  -5.292  0.00  0.00    +0.000 A 
ATOM      6  C   UNL     1      -2.414   2.537  -4.862  0.00  0.00    +0.000 A 
ATOM      7  C   UNL     1      -1.815   1.707  -3.908  0.00  0.00    +0.000 A 
ATOM      8 CL   UNL     1      -4.417   3.367  -6.468  0.00  0.00    +0.000 Cl
ATOM      9  N   UNL     1      -4.396  -0.693  -3.197  0.00  0.00    +0.000 NA
ATOM     10  N   UNL     1      -3.443  -1.165  -2.400  0.00  0.00    +0.000 NA
ENDROOT
BRANCH   1  11
ATOM     11  O   UNL     1      -1.209  -0.599  -1.828  0.00  0.00    +0.000 OA
BRANCH  11  16
ATOM     12  C   UNL     1       1.871  -0.549   0.576  0.00  0.00    +0.000 C 
ATOM     13  C   UNL     1       1.423   0.898   0.748  0.00  0.00    +0.000 C 
ATOM     14  C   UNL     1       0.546   1.450  -0.371  0.00  0.00    +0.000 C 
ATOM     15  C   UNL     1      -0.937   1.144  -0.155  0.00  0.00    +0.000 C 
ATOM     16  C   UNL     1      -1.363  -0.301  -0.433  0.00  0.00    +0.000 C 
ATOM     17  C   UNL     1      -0.575  -1.349   0.370  0.00  0.00    +0.000 C 
ATOM     18  C   UNL     1       0.882  -1.523  -0.057  0.00  0.00    +0.000 C 
ENDBRANCH  11  16
ENDBRANCH   1  11
TORSDOF 2
