REMARK  Name = *****
REMARK  2 active torsions:
REMARK  status: ('A' for Active; 'I' for Inactive)
REMARK    1  A    between atoms: C_3  and  C_8
REMARK    2  A    between atoms: N_10  and  C_11
REMARK                            x       y       z     vdW  Elec       q    Type
REMARK                         _______ _______ _______ _____ _____    ______ ____
ROOT
ATOM      1  C   UNL     1      -2.187   2.422   0.162  0.00  0.00    +0.000 C 
ATOM      2  O   UNL     1      -3.354   2.261   0.494  0.00  0.00    +0.000 OA
ATOM      3  N   UNL     1      -1.580   3.617  -0.183  0.00  0.00    +0.000 N 
ATOM      4  H   UNL     1      -0.647   3.560  -0.492  0.00  0.00    +0.000 HD
ENDROOT
BRANCH   1   7
ATOM      5  C   UNL     1      -1.101  -1.146  -0.441  0.00  0.00    +0.000 A 
ATOM      6  C   UNL     1      -1.886   0.006  -0.340  0.00  0.00    +0.000 A 
ATOM      7  C   UNL     1      -1.312   1.220   0.065  0.00  0.00    +0.000 A 
ATOM      8  C   UNL     1       0.045   1.271   0.397  0.00  0.00    +0.000 A 
ATOM      9  C   UNL     1       0.812   0.116   0.293  0.00  0.00    +0.000 A 
ATOM     10  C   UNL     1       0.255  -1.088  -0.127  0.00  0.00    +0.000 A 
ATOM     11  F   UNL     1       2.113   0.164   0.607  0.00  0.00    +0.000 F 
ENDBRANCH   1   7
BRANCH   3  12
ATOM     12  C   UNL     1      -2.149   4.908  -0.141  0.00  0.00    +0.000 A 
ATOM     13  C   UNL     1      -3.422   5.185   0.362  0.00  0.00    +0.000 A 
ATOM     14  C   UNL     1      -3.901   6.497   0.369  0.00  0.00    +0.000 A 
ATOM     15  C   UNL     1      -3.121   7.543  -0.119  0.00  0.00    +0.000 A 
ATOM     16  C   UNL     1      -1.849   7.276  -0.619  0.00  0.00    +0.000 A 
ATOM     17  C   UNL     1      -1.367   5.965  -0.628  0.00  0.00    +0.000 A 
ATOM     18 CL   UNL     1      -5.471   6.833   0.993  0.00  0.00    +0.000 Cl
ENDBRANCH   3  12
TORSDOF 2
