REMARK  Name = *****
REMARK  5 active torsions:
REMARK  status: ('A' for Active; 'I' for Inactive)
REMARK    1  A    between atoms: C_1  and  C_2
REMARK    2  A    between atoms: C_5  and  N_8
REMARK    3  A    between atoms: N_8  and  C_9
REMARK    4  A    between atoms: C_9  and  C_10
REMARK    5  A    between atoms: C_13  and  C_16
REMARK                            x       y       z     vdW  Elec       q    Type
REMARK                         _______ _______ _______ _____ _____    ______ ____
ROOT
ATOM      1  C   UNL     1      -3.973  -0.771  -0.134  0.00  0.00    +0.000 C 
ENDROOT
BRANCH   1   2
ATOM      2  C   UNL     1      -5.446  -0.829  -0.146  0.00  0.00    +0.000 A 
ATOM      3  C   UNL     1      -6.284   0.265  -0.364  0.00  0.00    +0.000 A 
ATOM      4  C   UNL     1      -7.673   0.098  -0.373  0.00  0.00    +0.000 A 
ATOM      5  C   UNL     1      -8.246  -1.167  -0.179  0.00  0.00    +0.000 A 
ATOM      6  C   UNL     1      -7.399  -2.263   0.036  0.00  0.00    +0.000 A 
ATOM      7  C   UNL     1      -6.011  -2.096   0.044  0.00  0.00    +0.000 A 
BRANCH   5   8
ATOM      8  C   UNL     1      -9.746  -1.341  -0.165  0.00  0.00    +0.000 C 
ATOM      9  F   UNL     1     -10.402  -0.412  -0.914  0.00  0.00    +0.000 F 
ATOM     10  F   UNL     1     -10.144  -2.553  -0.645  0.00  0.00    +0.000 F 
ATOM     11  F   UNL     1     -10.266  -1.248   1.090  0.00  0.00    +0.000 F 
ENDBRANCH   5   8
ENDBRANCH   1   2
BRANCH   1  12
ATOM     12  N   UNL     1      -3.236   0.310  -0.001  0.00  0.00    +0.000 N 
ATOM     13  O   UNL     1      -3.712   1.483   0.130  0.00  0.00    +0.000 OA
BRANCH  12  18
ATOM     14  C   UNL     1       2.479  -0.313  -0.139  0.00  0.00    +0.000 C 
ATOM     15  C   UNL     1       0.990  -0.137  -0.079  0.00  0.00    +0.000 A 
ATOM     16  C   UNL     1       0.347   0.746  -0.959  0.00  0.00    +0.000 A 
ATOM     17  C   UNL     1      -1.040   0.892  -0.926  0.00  0.00    +0.000 A 
ATOM     18  C   UNL     1      -1.792   0.135  -0.023  0.00  0.00    +0.000 A 
ATOM     19  C   UNL     1      -1.165  -0.747   0.863  0.00  0.00    +0.000 A 
ATOM     20  C   UNL     1       0.224  -0.887   0.824  0.00  0.00    +0.000 A 
ENDBRANCH  12  18
ENDBRANCH   1  12
TORSDOF 4
