REMARK  Name = *****
REMARK  4 active torsions:
REMARK  status: ('A' for Active; 'I' for Inactive)
REMARK    1  A    between atoms: C_4  and  C_6
REMARK    2  A    between atoms: C_6  and  C_7
REMARK    3  A    between atoms: C_7  and  O_9
REMARK    4  A    between atoms: O_9  and  C_10
REMARK                            x       y       z     vdW  Elec       q    Type
REMARK                         _______ _______ _______ _____ _____    ______ ____
ROOT
ATOM      1  C   UNL     1       0.875  -2.905   0.480  0.00  0.00    +0.000 C 
ATOM      2  O   UNL     1       1.984  -2.524   0.122  0.00  0.00    +0.000 OA
ENDROOT
BRANCH   1   3
ATOM      3  C   UNL     1      -0.418  -2.218   0.110  0.00  0.00    +0.000 C 
BRANCH   3   7
ATOM      4  C   UNL     1      -1.266  -3.228  -3.437  0.00  0.00    +0.000 A 
ATOM      5  C   UNL     1      -2.196  -4.065  -2.861  0.00  0.00    +0.000 A 
ATOM      6  S   UNL     1      -2.190  -3.953  -1.156  0.00  0.00    +0.000 S 
ATOM      7  C   UNL     1      -0.939  -2.783  -1.173  0.00  0.00    +0.000 A 
ATOM      8  C   UNL     1      -0.541  -2.486  -2.462  0.00  0.00    +0.000 A 
ENDBRANCH   3   7
ENDBRANCH   1   3
BRANCH   1   9
ATOM      9  O   UNL     1       0.593  -4.025   1.258  0.00  0.00    +0.000 OA
BRANCH   9  10
ATOM     10  C   UNL     1       1.725  -4.768   1.596  0.00  0.00    +0.000 A 
ATOM     11  C   UNL     1       2.544  -4.357   2.647  0.00  0.00    +0.000 A 
ATOM     12  C   UNL     1       3.642  -5.143   3.000  0.00  0.00    +0.000 A 
ATOM     13  C   UNL     1       3.896  -6.330   2.310  0.00  0.00    +0.000 A 
ATOM     14  C   UNL     1       3.058  -6.744   1.272  0.00  0.00    +0.000 A 
ATOM     15  C   UNL     1       1.960  -5.961   0.915  0.00  0.00    +0.000 A 
ATOM     16 CL   UNL     1       5.248  -7.299   2.750  0.00  0.00    +0.000 Cl
ENDBRANCH   9  10
ENDBRANCH   1   9
TORSDOF 4
