REMARK  Name = *****
REMARK  4 active torsions:
REMARK  status: ('A' for Active; 'I' for Inactive)
REMARK    1  A    between atoms: C_1  and  C_2
REMARK    2  A    between atoms: C_7  and  S_8
REMARK    3  A    between atoms: S_8  and  S_11
REMARK    4  A    between atoms: S_11  and  C_12
REMARK                            x       y       z     vdW  Elec       q    Type
REMARK                         _______ _______ _______ _____ _____    ______ ____
ROOT
ATOM      1  S   UNL     1       1.111  -2.874   0.065  0.00  0.00    +0.000 S 
ATOM      2  O   UNL     1       0.887  -3.495   1.358  0.00  0.00    +0.000 OA
ATOM      3  O   UNL     1       0.695  -3.541  -1.154  0.00  0.00    +0.000 OA
ENDROOT
BRANCH   1  10
ATOM      4  C   UNL     1       0.515  -0.952  -2.445  0.00  0.00    +0.000 C 
ATOM      5  C   UNL     1       0.144  -0.490  -1.064  0.00  0.00    +0.000 A 
ATOM      6  C   UNL     1      -0.486   0.761  -0.933  0.00  0.00    +0.000 A 
ATOM      7  C   UNL     1      -0.884   1.244   0.315  0.00  0.00    +0.000 A 
ATOM      8  C   UNL     1      -0.671   0.483   1.459  0.00  0.00    +0.000 A 
ATOM      9  C   UNL     1      -0.058  -0.765   1.356  0.00  0.00    +0.000 A 
ATOM     10  C   UNL     1       0.353  -1.252   0.103  0.00  0.00    +0.000 A 
ENDBRANCH   1  10
BRANCH   1  11
ATOM     11  S   UNL     1       3.156  -2.431  -0.068  0.00  0.00    +0.000 S 
BRANCH  11  12
ATOM     12  C   UNL     1       3.855  -4.047  -0.323  0.00  0.00    +0.000 A 
ATOM     13  C   UNL     1       4.463  -4.351  -1.546  0.00  0.00    +0.000 A 
ATOM     14  C   UNL     1       5.032  -5.609  -1.757  0.00  0.00    +0.000 A 
ATOM     15  C   UNL     1       5.001  -6.566  -0.745  0.00  0.00    +0.000 A 
ATOM     16  C   UNL     1       4.406  -6.267   0.479  0.00  0.00    +0.000 A 
ATOM     17  C   UNL     1       3.839  -5.009   0.692  0.00  0.00    +0.000 A 
ENDBRANCH  11  12
ENDBRANCH   1  11
TORSDOF 3
