REMARK  Name = *****
REMARK  6 active torsions:
REMARK  status: ('A' for Active; 'I' for Inactive)
REMARK    1  A    between atoms: C_1  and  C_2
REMARK    2  A    between atoms: C_4  and  C_11
REMARK    3  A    between atoms: C_5  and  N_8
REMARK    4  A    between atoms: N_8  and  C_9
REMARK    5  A    between atoms: N_8  and  C_10
REMARK    6  A    between atoms: C_12  and  C_13
REMARK                            x       y       z     vdW  Elec       q    Type
REMARK                         _______ _______ _______ _____ _____    ______ ____
ROOT
ATOM      1  C   UNL     1       1.136   0.043   0.285  0.00  0.00    +0.000 C 
ATOM      2  C   UNL     1       2.623   0.084   0.099  0.00  0.00    +0.000 A 
ATOM      3  C   UNL     1       3.280   1.300  -0.117  0.00  0.00    +0.000 A 
ATOM      4  C   UNL     1       4.668   1.341  -0.325  0.00  0.00    +0.000 A 
ATOM      5  C   UNL     1       5.434   0.151  -0.336  0.00  0.00    +0.000 A 
ATOM      6  C   UNL     1       4.752  -1.061  -0.132  0.00  0.00    +0.000 A 
ATOM      7  C   UNL     1       3.368  -1.096   0.076  0.00  0.00    +0.000 A 
ENDROOT
BRANCH   5   8
ATOM      8  N   UNL     1       6.835   0.196  -0.526  0.00  0.00    +0.000 N 
ATOM      9  C   UNL     1       7.421  -0.898  -1.297  0.00  0.00    +0.000 C 
ATOM     10  C   UNL     1       7.537   0.500   0.724  0.00  0.00    +0.000 C 
ENDBRANCH   5   8
BRANCH   4  11
ATOM     11  C   UNL     1       5.271   2.623  -0.557  0.00  0.00    +0.000 C 
ATOM     12  C   UNL     1       5.785   3.692  -0.751  0.00  0.00    +0.000 C 
BRANCH  12  13
ATOM     13  C   UNL     1       6.418   4.953  -0.983  0.00  0.00    +0.000 A 
ATOM     14  C   UNL     1       5.828   6.131  -0.521  0.00  0.00    +0.000 A 
ATOM     15  C   UNL     1       6.451   7.360  -0.748  0.00  0.00    +0.000 A 
ATOM     16  C   UNL     1       7.663   7.411  -1.437  0.00  0.00    +0.000 A 
ATOM     17  C   UNL     1       8.253   6.235  -1.899  0.00  0.00    +0.000 A 
ATOM     18  C   UNL     1       7.631   5.006  -1.673  0.00  0.00    +0.000 A 
ENDBRANCH  12  13
ENDBRANCH   4  11
TORSDOF 3
