REMARK  Name = *****
REMARK  3 active torsions:
REMARK  status: ('A' for Active; 'I' for Inactive)
REMARK    1  A    between atoms: C_5  and  C_7
REMARK    2  A    between atoms: C_7  and  O_8
REMARK    3  A    between atoms: O_8  and  C_9
REMARK                            x       y       z     vdW  Elec       q    Type
REMARK                         _______ _______ _______ _____ _____    ______ ____
ROOT
ATOM      1  C   UNL     1      -2.836  -0.773   0.032  0.00  0.00    +0.000 C 
ENDROOT
BRANCH   1   6
ATOM      2  C   UNL     1       0.397   1.393   0.288  0.00  0.00    +0.000 C 
ATOM      3  C   UNL     1       1.366   0.434  -0.388  0.00  0.00    +0.000 C 
ATOM      4  C   UNL     1       1.101  -1.004   0.055  0.00  0.00    +0.000 C 
ATOM      5  C   UNL     1      -0.364  -1.356   0.094  0.00  0.00    +0.000 C 
ATOM      6  C   UNL     1      -1.358  -0.448   0.024  0.00  0.00    +0.000 C 
ATOM      7  C   UNL     1      -1.050   1.035  -0.054  0.00  0.00    +0.000 C 
ATOM      8 CL   UNL     1      -0.660  -3.059   0.234  0.00  0.00    +0.000 Cl
ENDBRANCH   1   6
BRANCH   1   9
ATOM      9  O   UNL     1      -3.424  -0.202  -1.139  0.00  0.00    +0.000 OA
BRANCH   9  10
ATOM     10  C   UNL     1      -4.780  -0.310  -1.274  0.00  0.00    +0.000 A 
ATOM     11  C   UNL     1      -5.645  -0.974  -0.402  0.00  0.00    +0.000 A 
ATOM     12  C   UNL     1      -7.018  -1.005  -0.664  0.00  0.00    +0.000 A 
ATOM     13  C   UNL     1      -7.533  -0.375  -1.795  0.00  0.00    +0.000 A 
ATOM     14  C   UNL     1      -6.675   0.287  -2.670  0.00  0.00    +0.000 A 
ATOM     15  C   UNL     1      -5.304   0.317  -2.408  0.00  0.00    +0.000 A 
ENDBRANCH   9  10
ENDBRANCH   1   9
TORSDOF 3
