REMARK  Name = *****
REMARK  3 active torsions:
REMARK  status: ('A' for Active; 'I' for Inactive)
REMARK    1  A    between atoms: C_5  and  N_7
REMARK    2  A    between atoms: N_7  and  N_8
REMARK    3  A    between atoms: N_8  and  C_10
REMARK                            x       y       z     vdW  Elec       q    Type
REMARK                         _______ _______ _______ _____ _____    ______ ____
ROOT
ATOM      1  N   UNL     1      -0.764  -2.110   0.233  0.00  0.00    +0.000 N 
ATOM      2  H   UNL     1      -0.198  -2.913   0.177  0.00  0.00    +0.000 HD
ENDROOT
BRANCH   1   7
ATOM      3  C   UNL     1       0.024   1.542  -0.050  0.00  0.00    +0.000 A 
ATOM      4  C   UNL     1       1.413   1.511  -0.122  0.00  0.00    +0.000 A 
ATOM      5  C   UNL     1       2.077   0.288  -0.091  0.00  0.00    +0.000 A 
ATOM      6  C   UNL     1       1.343  -0.897   0.022  0.00  0.00    +0.000 A 
ATOM      7  C   UNL     1      -0.066  -0.890   0.116  0.00  0.00    +0.000 A 
ATOM      8  C   UNL     1      -0.707   0.353   0.061  0.00  0.00    +0.000 A 
ATOM      9 CL   UNL     1       2.217  -2.394   0.061  0.00  0.00    +0.000 Cl
ENDBRANCH   1   7
BRANCH   1  10
ATOM     10  N   UNL     1      -2.142  -2.373   0.418  0.00  0.00    +0.000 N 
ATOM     11  O   UNL     1      -2.986  -1.519   0.228  0.00  0.00    +0.000 OA
BRANCH  10  12
ATOM     12  C   UNL     1      -2.602  -3.708   0.732  0.00  0.00    +0.000 A 
ATOM     13  C   UNL     1      -3.683  -4.221  -0.001  0.00  0.00    +0.000 A 
ATOM     14  C   UNL     1      -4.180  -5.493   0.285  0.00  0.00    +0.000 A 
ATOM     15  C   UNL     1      -3.604  -6.252   1.302  0.00  0.00    +0.000 A 
ATOM     16  C   UNL     1      -2.532  -5.740   2.036  0.00  0.00    +0.000 A 
ATOM     17  C   UNL     1      -2.029  -4.465   1.758  0.00  0.00    +0.000 A 
ATOM     18 CL   UNL     1      -0.731  -3.895   2.744  0.00  0.00    +0.000 Cl
ENDBRANCH  10  12
ENDBRANCH   1  10
TORSDOF 3
