REMARK  Name = *****
REMARK  3 active torsions:
REMARK  status: ('A' for Active; 'I' for Inactive)
REMARK    1  A    between atoms: C_1  and  C_2
REMARK    2  A    between atoms: C_5  and  C_8
REMARK    3  A    between atoms: C_9  and  C_10
REMARK                            x       y       z     vdW  Elec       q    Type
REMARK                         _______ _______ _______ _____ _____    ______ ____
ROOT
ATOM      1  C   UNL     1      -3.291   0.073  -0.037  0.00  0.00    +0.000 C 
ATOM      2  C   UNL     1      -4.066  -1.023  -0.104  0.00  0.00    +0.000 C 
ATOM      3 CL   UNL     1      -3.922   1.679   0.104  0.00  0.00    +0.000 Cl
ENDROOT
BRANCH   1   8
ATOM      4  C   UNL     1       2.485  -0.392  -0.064  0.00  0.00    +0.000 C 
ATOM      5  C   UNL     1       0.988  -0.298  -0.043  0.00  0.00    +0.000 A 
ATOM      6  C   UNL     1       0.235  -0.744  -1.135  0.00  0.00    +0.000 A 
ATOM      7  C   UNL     1      -1.158  -0.625  -1.132  0.00  0.00    +0.000 A 
ATOM      8  C   UNL     1      -1.823  -0.047  -0.041  0.00  0.00    +0.000 A 
ATOM      9  C   UNL     1      -1.064   0.414   1.043  0.00  0.00    +0.000 A 
ATOM     10  C   UNL     1       0.328   0.295   1.039  0.00  0.00    +0.000 A 
ENDBRANCH   1   8
BRANCH   2  11
ATOM     11  C   UNL     1      -5.533  -1.056  -0.103  0.00  0.00    +0.000 A 
ATOM     12  C   UNL     1      -6.278  -0.457  -1.126  0.00  0.00    +0.000 A 
ATOM     13  C   UNL     1      -7.673  -0.527  -1.117  0.00  0.00    +0.000 A 
ATOM     14  C   UNL     1      -8.331  -1.204  -0.091  0.00  0.00    +0.000 A 
ATOM     15  C   UNL     1      -7.597  -1.814   0.924  0.00  0.00    +0.000 A 
ATOM     16  C   UNL     1      -6.202  -1.743   0.917  0.00  0.00    +0.000 A 
ENDBRANCH   2  11
TORSDOF 2
