REMARK  Name = *****
REMARK  3 active torsions:
REMARK  status: ('A' for Active; 'I' for Inactive)
REMARK    1  A    between atoms: C_3  and  C_11
REMARK    2  A    between atoms: C_5  and  C_7
REMARK    3  A    between atoms: N_12  and  C_13
REMARK                            x       y       z     vdW  Elec       q    Type
REMARK                         _______ _______ _______ _____ _____    ______ ____
ROOT
ATOM      1  C   UNL     1       1.207  -0.230  -0.627  0.00  0.00    +0.000 A 
ATOM      2  C   UNL     1       0.294  -1.282  -0.574  0.00  0.00    +0.000 A 
ATOM      3  C   UNL     1      -0.997  -1.055  -0.090  0.00  0.00    +0.000 A 
ATOM      4  C   UNL     1      -1.377   0.221   0.338  0.00  0.00    +0.000 A 
ATOM      5  C   UNL     1      -0.467   1.288   0.278  0.00  0.00    +0.000 A 
ATOM      6  C   UNL     1       0.831   1.046  -0.201  0.00  0.00    +0.000 A 
ENDROOT
BRANCH   5   7
ATOM      7  C   UNL     1      -0.867   2.661   0.760  0.00  0.00    +0.000 C 
ATOM      8  F   UNL     1      -2.177   2.950   0.527  0.00  0.00    +0.000 F 
ATOM      9  F   UNL     1      -0.680   2.813   2.100  0.00  0.00    +0.000 F 
ATOM     10  F   UNL     1      -0.157   3.662   0.168  0.00  0.00    +0.000 F 
ENDBRANCH   5   7
BRANCH   3  11
ATOM     11  C   UNL     1      -1.946  -2.183  -0.037  0.00  0.00    +0.000 C 
ATOM     12  N   UNL     1      -3.151  -2.041   0.418  0.00  0.00    +0.000 NA
BRANCH  12  13
ATOM     13  C   UNL     1      -3.950  -3.191   0.411  0.00  0.00    +0.000 A 
ATOM     14  C   UNL     1      -3.911  -4.088   1.484  0.00  0.00    +0.000 A 
ATOM     15  C   UNL     1      -4.720  -5.226   1.481  0.00  0.00    +0.000 A 
ATOM     16  C   UNL     1      -5.574  -5.454   0.407  0.00  0.00    +0.000 A 
ATOM     17  C   UNL     1      -5.637  -4.564  -0.659  0.00  0.00    +0.000 A 
ATOM     18  C   UNL     1      -4.826  -3.428  -0.654  0.00  0.00    +0.000 A 
ATOM     19  F   UNL     1      -6.351  -6.544   0.403  0.00  0.00    +0.000 F 
ENDBRANCH  12  13
ENDBRANCH   3  11
TORSDOF 3
