REMARK  Name = *****
REMARK  5 active torsions:
REMARK  status: ('A' for Active; 'I' for Inactive)
REMARK    1  A    between atoms: C_1  and  C_2
REMARK    2  A    between atoms: C_4  and  C_8
REMARK    3  A    between atoms: N_9  and  C_10
REMARK    4  A    between atoms: C_11  and  C_17
REMARK    5  A    between atoms: C_15  and  C_16
REMARK                            x       y       z     vdW  Elec       q    Type
REMARK                         _______ _______ _______ _____ _____    ______ ____
ROOT
ATOM      1  C   UNL     1      -1.667   2.573  -0.397  0.00  0.00    +0.000 C 
ATOM      2  N   UNL     1      -1.327   3.609   0.301  0.00  0.00    +0.000 NA
ENDROOT
BRANCH   2   3
ATOM      3  C   UNL     1      -2.090   4.782   0.123  0.00  0.00    +0.000 A 
ATOM      4  C   UNL     1      -3.448   4.860   0.503  0.00  0.00    +0.000 A 
ATOM      5  C   UNL     1      -4.160   6.051   0.289  0.00  0.00    +0.000 A 
ATOM      6  C   UNL     1      -3.529   7.172  -0.244  0.00  0.00    +0.000 A 
ATOM      7  C   UNL     1      -2.178   7.115  -0.573  0.00  0.00    +0.000 A 
ATOM      8  C   UNL     1      -1.450   5.929  -0.393  0.00  0.00    +0.000 A 
ATOM      9  C   UNL     1       0.016   5.901  -0.728  0.00  0.00    +0.000 C 
ATOM     10  C   UNL     1      -4.181   3.690   1.100  0.00  0.00    +0.000 C 
ENDBRANCH   2   3
BRANCH   1  14
ATOM     11  C   UNL     1       2.444  -0.057   0.780  0.00  0.00    +0.000 C 
ATOM     12  C   UNL     1       1.021   0.013   0.312  0.00  0.00    +0.000 A 
ATOM     13  C   UNL     1       0.358   1.242   0.204  0.00  0.00    +0.000 A 
ATOM     14  C   UNL     1      -0.955   1.288  -0.274  0.00  0.00    +0.000 A 
ATOM     15  C   UNL     1      -1.620   0.116  -0.641  0.00  0.00    +0.000 A 
ATOM     16  C   UNL     1      -0.970  -1.111  -0.516  0.00  0.00    +0.000 A 
ATOM     17  C   UNL     1       0.345  -1.162  -0.046  0.00  0.00    +0.000 A 
ENDBRANCH   1  14
TORSDOF 2
