REMARK  Name = *****
REMARK  5 active torsions:
REMARK  status: ('A' for Active; 'I' for Inactive)
REMARK    1  A    between atoms: C_1  and  C_2
REMARK    2  A    between atoms: C_8  and  C_9
REMARK    3  A    between atoms: C_8  and  C_10
REMARK    4  A    between atoms: C_10  and  C_11
REMARK    5  A    between atoms: C_11  and  C_12
REMARK                            x       y       z     vdW  Elec       q    Type
REMARK                         _______ _______ _______ _____ _____    ______ ____
ROOT
ATOM      1  C   UNL     1       1.053   0.157   0.305  0.00  0.00    +0.000 C 
ATOM      2  C   UNL     1       2.559   0.063  -0.002  0.00  0.00    +0.000 C 
ATOM      3  C   UNL     1       2.930   1.131  -1.057  0.00  0.00    +0.000 C 
ATOM      4  C   UNL     1       2.452   0.771  -2.462  0.00  0.00    +0.000 C 
ATOM      5  C   UNL     1       2.899  -0.626  -2.883  0.00  0.00    +0.000 C 
ATOM      6  C   UNL     1       2.513  -1.662  -1.843  0.00  0.00    +0.000 C 
ATOM      7  C   UNL     1       1.717  -2.683  -2.209  0.00  0.00    +0.000 C 
ATOM      8  C   UNL     1       3.033  -1.387  -0.415  0.00  0.00    +0.000 C 
ATOM      9  C   UNL     1       4.585  -1.426  -0.427  0.00  0.00    +0.000 C 
ENDROOT
BRANCH   8  10
ATOM     10  C   UNL     1       2.539  -2.407   0.671  0.00  0.00    +0.000 C 
BRANCH  10  11
ATOM     11  C   UNL     1       3.198  -3.798   0.652  0.00  0.00    +0.000 C 
BRANCH  11  12
ATOM     12  C   UNL     1       2.511  -4.752   1.574  0.00  0.00    +0.000 A 
ATOM     13  C   UNL     1       2.789  -4.971   2.909  0.00  0.00    +0.000 A 
ATOM     14  O   UNL     1       1.959  -5.911   3.427  0.00  0.00    +0.000 OA
ATOM     15  C   UNL     1       1.137  -6.307   2.423  0.00  0.00    +0.000 A 
ATOM     16  C   UNL     1       1.433  -5.628   1.265  0.00  0.00    +0.000 A 
ENDBRANCH  11  12
ENDBRANCH  10  11
ENDBRANCH   8  10
TORSDOF 3
