REMARK  Name = *****
REMARK  2 active torsions:
REMARK  status: ('A' for Active; 'I' for Inactive)
REMARK    1  A    between atoms: N_5  and  S_6
REMARK    2  A    between atoms: S_6  and  C_7
REMARK                            x       y       z     vdW  Elec       q    Type
REMARK                         _______ _______ _______ _____ _____    ______ ____
ROOT
ATOM      1  S   UNL     1      -3.026   1.830   0.418  0.00  0.00    +0.000 S 
ENDROOT
BRANCH   1   6
ATOM      2  C   UNL     1       1.811  -0.085   0.009  0.00  0.00    +0.000 C 
ATOM      3  C   UNL     1       1.176   1.297   0.158  0.00  0.00    +0.000 C 
ATOM      4  C   UNL     1      -0.147   1.401  -0.597  0.00  0.00    +0.000 C 
ATOM      5  C   UNL     1      -1.063   0.268  -0.164  0.00  0.00    +0.000 C 
ATOM      6  N   UNL     1      -2.284   0.347   0.268  0.00  0.00    +0.000 NA
ATOM      7  C   UNL     1      -0.468  -1.125  -0.293  0.00  0.00    +0.000 C 
ATOM      8  C   UNL     1       0.854  -1.189   0.460  0.00  0.00    +0.000 C 
ENDBRANCH   1   6
BRANCH   1   9
ATOM      9  C   UNL     1      -4.610   1.342   1.089  0.00  0.00    +0.000 A 
ATOM     10  C   UNL     1      -5.301   2.246   1.906  0.00  0.00    +0.000 A 
ATOM     11  C   UNL     1      -6.551   1.913   2.437  0.00  0.00    +0.000 A 
ATOM     12  C   UNL     1      -7.117   0.673   2.148  0.00  0.00    +0.000 A 
ATOM     13  C   UNL     1      -6.445  -0.234   1.332  0.00  0.00    +0.000 A 
ATOM     14  C   UNL     1      -5.195   0.102   0.802  0.00  0.00    +0.000 A 
ATOM     15 CL   UNL     1      -8.655   0.262   2.799  0.00  0.00    +0.000 Cl
ENDBRANCH   1   9
TORSDOF 2
