REMARK  Name = *****
REMARK  7 active torsions:
REMARK  status: ('A' for Active; 'I' for Inactive)
REMARK    1  A    between atoms: C_1  and  C_2
REMARK    2  A    between atoms: C_4  and  C_19
REMARK    3  A    between atoms: C_5  and  O_9
REMARK    4  A    between atoms: C_6  and  C_8
REMARK    5  A    between atoms: O_9  and  C_10
REMARK    6  A    between atoms: C_10  and  C_12
REMARK    7  A    between atoms: C_12  and  C_13
REMARK                            x       y       z     vdW  Elec       q    Type
REMARK                         _______ _______ _______ _____ _____    ______ ____
ROOT
ATOM      1  O   UNL     1      -2.787  -1.187  -0.484  0.00  0.00    +0.000 OA
ENDROOT
BRANCH   1   6
ATOM      2  C   UNL     1       2.316   1.114   0.524  0.00  0.00    +0.000 C 
ATOM      3  C   UNL     1       0.979   0.504   0.222  0.00  0.00    +0.000 A 
ATOM      4  C   UNL     1       0.769  -0.868   0.420  0.00  0.00    +0.000 A 
ATOM      5  C   UNL     1      -0.484  -1.446   0.180  0.00  0.00    +0.000 A 
ATOM      6  C   UNL     1      -1.537  -0.611  -0.225  0.00  0.00    +0.000 A 
ATOM      7  C   UNL     1      -1.351   0.761  -0.452  0.00  0.00    +0.000 A 
ATOM      8  C   UNL     1      -0.087   1.310  -0.200  0.00  0.00    +0.000 A 
ATOM      9  C   UNL     1      -2.480   1.646  -0.893  0.00  0.00    +0.000 C 
ATOM     10  C   UNL     1      -0.692  -2.916   0.401  0.00  0.00    +0.000 C 
ENDBRANCH   1   6
BRANCH   1  11
ATOM     11  C   UNL     1      -3.640  -1.178   0.615  0.00  0.00    +0.000 C 
ATOM     12  O   UNL     1      -3.427  -0.669   1.710  0.00  0.00    +0.000 OA
BRANCH  11  13
ATOM     13  C   UNL     1      -4.904  -1.925   0.263  0.00  0.00    +0.000 C 
BRANCH  13  14
ATOM     14  C   UNL     1      -4.738  -3.417   0.381  0.00  0.00    +0.000 A 
ATOM     15  C   UNL     1      -4.771  -4.034   1.639  0.00  0.00    +0.000 A 
ATOM     16  C   UNL     1      -4.587  -5.412   1.756  0.00  0.00    +0.000 A 
ATOM     17  C   UNL     1      -4.363  -6.185   0.619  0.00  0.00    +0.000 A 
ATOM     18  C   UNL     1      -4.321  -5.581  -0.636  0.00  0.00    +0.000 A 
ATOM     19  C   UNL     1      -4.505  -4.203  -0.756  0.00  0.00    +0.000 A 
ENDBRANCH  13  14
ENDBRANCH  11  13
ENDBRANCH   1  11
TORSDOF 4
