REMARK  Name = *****
REMARK  4 active torsions:
REMARK  status: ('A' for Active; 'I' for Inactive)
REMARK    1  A    between atoms: C_4  and  O_7
REMARK    2  A    between atoms: O_7  and  C_8
REMARK    3  A    between atoms: C_8  and  C_10
REMARK    4  A    between atoms: C_13  and  C_16
REMARK                            x       y       z     vdW  Elec       q    Type
REMARK                         _______ _______ _______ _____ _____    ______ ____
ROOT
ATOM      1  C   UNL     1      -3.683  -0.846  -0.109  0.00  0.00    +0.000 C 
ATOM      2  O   UNL     1      -3.342  -1.319   0.964  0.00  0.00    +0.000 OA
ENDROOT
BRANCH   1   3
ATOM      3  C   UNL     1      -5.094  -0.513  -0.440  0.00  0.00    +0.000 A 
ATOM      4  C   UNL     1      -5.439   0.337  -1.498  0.00  0.00    +0.000 A 
ATOM      5  C   UNL     1      -6.782   0.619  -1.764  0.00  0.00    +0.000 A 
ATOM      6  C   UNL     1      -7.799   0.062  -0.975  0.00  0.00    +0.000 A 
ATOM      7  C   UNL     1      -7.449  -0.791   0.081  0.00  0.00    +0.000 A 
ATOM      8  C   UNL     1      -6.107  -1.070   0.352  0.00  0.00    +0.000 A 
BRANCH   6   9
ATOM      9  C   UNL     1      -9.244   0.351  -1.277  0.00  0.00    +0.000 C 
ATOM     10 CL   UNL     1      -9.846  -0.750  -2.532  0.00  0.00    +0.000 Cl
ENDBRANCH   6   9
ENDBRANCH   1   3
BRANCH   1  11
ATOM     11  O   UNL     1      -2.879  -0.559  -1.202  0.00  0.00    +0.000 OA
BRANCH  11  15
ATOM     12  C   UNL     1       1.241  -1.292  -1.379  0.00  0.00    +0.000 A 
ATOM     13  C   UNL     1       0.432  -2.180  -0.669  0.00  0.00    +0.000 A 
ATOM     14  C   UNL     1      -0.944  -1.960  -0.582  0.00  0.00    +0.000 A 
ATOM     15  C   UNL     1      -1.497  -0.837  -1.193  0.00  0.00    +0.000 A 
ATOM     16  C   UNL     1      -0.696   0.046  -1.919  0.00  0.00    +0.000 A 
ATOM     17  C   UNL     1       0.678  -0.181  -2.007  0.00  0.00    +0.000 A 
ENDBRANCH  11  15
ENDBRANCH   1  11
TORSDOF 4
