REMARK  Name = *****
REMARK  5 active torsions:
REMARK  status: ('A' for Active; 'I' for Inactive)
REMARK    1  A    between atoms: C_1  and  C_2
REMARK    2  A    between atoms: C_4  and  O_11
REMARK    3  A    between atoms: C_5  and  C_8
REMARK    4  A    between atoms: O_11  and  C_12
REMARK    5  A    between atoms: C_12  and  C_13
REMARK                            x       y       z     vdW  Elec       q    Type
REMARK                         _______ _______ _______ _____ _____    ______ ____
ROOT
ATOM      1  C   UNL     1       2.342  -0.627  -0.613  0.00  0.00    +0.000 C 
ATOM      2  C   UNL     1       0.864  -0.373  -0.535  0.00  0.00    +0.000 A 
ATOM      3  C   UNL     1       0.369   0.942  -0.559  0.00  0.00    +0.000 A 
ATOM      4  C   UNL     1      -1.004   1.201  -0.453  0.00  0.00    +0.000 A 
ATOM      5  C   UNL     1      -1.888   0.118  -0.327  0.00  0.00    +0.000 A 
ATOM      6  C   UNL     1      -1.394  -1.195  -0.266  0.00  0.00    +0.000 A 
ATOM      7  C   UNL     1      -0.025  -1.438  -0.368  0.00  0.00    +0.000 A 
ENDROOT
BRANCH   5   8
ATOM      8  C   UNL     1      -3.363   0.295  -0.230  0.00  0.00    +0.000 C 
ATOM      9  O   UNL     1      -3.946  -0.405   0.600  0.00  0.00    +0.000 OA
ATOM     10 CL   UNL     1      -4.183   1.371  -1.337  0.00  0.00    +0.000 Cl
ENDBRANCH   5   8
BRANCH   4  11
ATOM     11  O   UNL     1      -1.550   2.455  -0.426  0.00  0.00    +0.000 OA
BRANCH  11  12
ATOM     12  C   UNL     1      -0.675   3.581  -0.502  0.00  0.00    +0.000 C 
BRANCH  12  13
ATOM     13  C   UNL     1      -1.475   4.863  -0.437  0.00  0.00    +0.000 A 
ATOM     14  C   UNL     1      -2.620   4.969   0.365  0.00  0.00    +0.000 A 
ATOM     15  C   UNL     1      -3.325   6.172   0.443  0.00  0.00    +0.000 A 
ATOM     16  C   UNL     1      -2.886   7.286  -0.269  0.00  0.00    +0.000 A 
ATOM     17  C   UNL     1      -1.740   7.200  -1.057  0.00  0.00    +0.000 A 
ATOM     18  C   UNL     1      -1.035   5.997  -1.137  0.00  0.00    +0.000 A 
ENDBRANCH  12  13
ENDBRANCH  11  12
ENDBRANCH   4  11
TORSDOF 4
