REMARK  Name = *****
REMARK  4 active torsions:
REMARK  status: ('A' for Active; 'I' for Inactive)
REMARK    1  A    between atoms: C_1  and  C_2
REMARK    2  A    between atoms: C_5  and  C_8
REMARK    3  A    between atoms: C_8  and  S_9
REMARK    4  A    between atoms: S_9  and  C_11
REMARK                            x       y       z     vdW  Elec       q    Type
REMARK                         _______ _______ _______ _____ _____    ______ ____
ROOT
ATOM      1  C   UNL     1      -3.336   0.107  -0.192  0.00  0.00    +0.000 C 
ENDROOT
BRANCH   1   6
ATOM      2  C   UNL     1       2.484  -0.059   0.045  0.00  0.00    +0.000 C 
ATOM      3  C   UNL     1       0.986  -0.004  -0.016  0.00  0.00    +0.000 A 
ATOM      4  C   UNL     1       0.304   1.211   0.103  0.00  0.00    +0.000 A 
ATOM      5  C   UNL     1      -1.092   1.249   0.047  0.00  0.00    +0.000 A 
ATOM      6  C   UNL     1      -1.830   0.070  -0.122  0.00  0.00    +0.000 A 
ATOM      7  C   UNL     1      -1.144  -1.145  -0.245  0.00  0.00    +0.000 A 
ATOM      8  C   UNL     1       0.251  -1.182  -0.190  0.00  0.00    +0.000 A 
ENDBRANCH   1   6
BRANCH   1   9
ATOM      9  S   UNL     1      -3.940   0.050  -1.910  0.00  0.00    +0.000 S 
ATOM     10  O   UNL     1      -3.714  -1.330  -2.459  0.00  0.00    +0.000 OA
BRANCH   9  11
ATOM     11  C   UNL     1      -5.651   0.176  -1.582  0.00  0.00    +0.000 A 
ATOM     12  C   UNL     1      -6.569  -0.796  -1.914  0.00  0.00    +0.000 A 
ATOM     13  C   UNL     1      -7.895  -0.418  -1.547  0.00  0.00    +0.000 A 
ATOM     14  C   UNL     1      -7.933   0.832  -0.966  0.00  0.00    +0.000 A 
ATOM     15  S   UNL     1      -6.378   1.543  -0.875  0.00  0.00    +0.000 S 
ENDBRANCH   9  11
ENDBRANCH   1   9
TORSDOF 3
