REMARK  Name = *****
REMARK  3 active torsions:
REMARK  status: ('A' for Active; 'I' for Inactive)
REMARK    1  A    between atoms: C_4  and  C_7
REMARK    2  A    between atoms: C_8  and  C_9
REMARK    3  A    between atoms: N_15  and  N_16
REMARK                            x       y       z     vdW  Elec       q    Type
REMARK                         _______ _______ _______ _____ _____    ______ ____
ROOT
ATOM      1  C   UNL     1      -5.161  -0.294  -0.348  0.00  0.00    +0.000 C 
ATOM      2  C   UNL     1      -5.828  -0.148   0.998  0.00  0.00    +0.000 C 
ATOM      3  C   UNL     1      -6.486   0.955   1.378  0.00  0.00    +0.000 C 
ATOM      4  C   UNL     1      -6.605   2.093   0.506  0.00  0.00    +0.000 C 
ATOM      5  C   UNL     1      -6.176   2.083  -0.761  0.00  0.00    +0.000 C 
ATOM      6  C   UNL     1      -5.524   0.863  -1.323  0.00  0.00    +0.000 C 
ATOM      7  N   UNL     1      -5.304   0.857  -2.609  0.00  0.00    +0.000 NA
ENDROOT
BRANCH   1   9
ATOM      8  C   UNL     1      -2.729   0.474  -0.235  0.00  0.00    +0.000 C 
ATOM      9  C   UNL     1      -3.671  -0.482  -0.160  0.00  0.00    +0.000 C 
BRANCH   8  13
ATOM     10  C   UNL     1       1.479  -0.148   0.221  0.00  0.00    +0.000 A 
ATOM     11  C   UNL     1       0.710  -1.107  -0.434  0.00  0.00    +0.000 A 
ATOM     12  C   UNL     1      -0.667  -0.920  -0.580  0.00  0.00    +0.000 A 
ATOM     13  C   UNL     1      -1.291   0.222  -0.062  0.00  0.00    +0.000 A 
ATOM     14  C   UNL     1      -0.504   1.187   0.581  0.00  0.00    +0.000 A 
ATOM     15  C   UNL     1       0.873   1.000   0.726  0.00  0.00    +0.000 A 
ENDBRANCH   8  13
ENDBRANCH   1   9
BRANCH   7  16
ATOM     16  N   UNL     1      -4.716  -0.279  -3.160  0.00  0.00    +0.000 NA
ATOM     17  O   UNL     1      -4.566  -0.150  -4.378  0.00  0.00    +0.000 OA
ENDBRANCH   7  16
TORSDOF 3
