REMARK  Name = *****
REMARK  5 active torsions:
REMARK  status: ('A' for Active; 'I' for Inactive)
REMARK    1  A    between atoms: C_1  and  C_2
REMARK    2  A    between atoms: C_3  and  C_21
REMARK    3  A    between atoms: C_4  and  O_8
REMARK    4  A    between atoms: O_8  and  C_9
REMARK    5  A    between atoms: C_9  and  C_10
REMARK                            x       y       z     vdW  Elec       q    Type
REMARK                         _______ _______ _______ _____ _____    ______ ____
ROOT
ATOM      1  C   UNL     1      -1.517  -4.976  -0.027  0.00  0.00    +0.000 A 
ATOM      2  C   UNL     1      -1.354  -5.691   1.162  0.00  0.00    +0.000 A 
ATOM      3  C   UNL     1      -0.984  -7.034   1.147  0.00  0.00    +0.000 A 
ATOM      4  C   UNL     1      -0.767  -7.680  -0.061  0.00  0.00    +0.000 A 
ATOM      5  C   UNL     1      -0.918  -6.986  -1.252  0.00  0.00    +0.000 A 
ATOM      6  C   UNL     1      -1.287  -5.644  -1.234  0.00  0.00    +0.000 A 
ATOM      7  F   UNL     1      -1.432  -4.987  -2.393  0.00  0.00    +0.000 F 
ATOM      8  F   UNL     1      -0.712  -7.607  -2.422  0.00  0.00    +0.000 F 
ATOM      9  F   UNL     1      -0.415  -8.974  -0.077  0.00  0.00    +0.000 F 
ATOM     10  F   UNL     1      -0.843  -7.702   2.301  0.00  0.00    +0.000 F 
ATOM     11  F   UNL     1      -1.563  -5.081   2.337  0.00  0.00    +0.000 F 
ENDROOT
BRANCH   1  12
ATOM     12  C   UNL     1      -1.866  -3.517  -0.008  0.00  0.00    +0.000 C 
BRANCH  12  13
ATOM     13  O   UNL     1      -0.640  -2.795   0.042  0.00  0.00    +0.000 OA
BRANCH  13  17
ATOM     14  C   UNL     1       1.866   1.426  -0.061  0.00  0.00    +0.000 C 
ATOM     15  C   UNL     1       0.572   0.659  -0.028  0.00  0.00    +0.000 A 
ATOM     16  C   UNL     1       0.542  -0.754   0.038  0.00  0.00    +0.000 A 
ATOM     17  C   UNL     1      -0.702  -1.425   0.031  0.00  0.00    +0.000 A 
ATOM     18  C   UNL     1      -1.890  -0.689   0.013  0.00  0.00    +0.000 A 
ATOM     19  C   UNL     1      -1.855   0.704  -0.017  0.00  0.00    +0.000 A 
ATOM     20  C   UNL     1      -0.635   1.373  -0.040  0.00  0.00    +0.000 A 
ATOM     21  C   UNL     1       1.824  -1.551   0.043  0.00  0.00    +0.000 C 
ENDBRANCH  13  17
ENDBRANCH  12  13
ENDBRANCH   1  12
TORSDOF 3
