REMARK  Name = *****
REMARK  4 active torsions:
REMARK  status: ('A' for Active; 'I' for Inactive)
REMARK    1  A    between atoms: C_1  and  O_2
REMARK    2  A    between atoms: O_2  and  C_3
REMARK    3  A    between atoms: C_6  and  C_9
REMARK    4  A    between atoms: C_10  and  C_11
REMARK                            x       y       z     vdW  Elec       q    Type
REMARK                         _______ _______ _______ _____ _____    ______ ____
ROOT
ATOM      1  C   UNL     1       5.228  -4.772  -0.521  0.00  0.00    +0.000 C 
ATOM      2  C   UNL     1       4.882  -5.776  -1.342  0.00  0.00    +0.000 C 
ENDROOT
BRANCH   2   3
ATOM      3  C   UNL     1       5.621  -7.043  -1.443  0.00  0.00    +0.000 A 
ATOM      4  C   UNL     1       6.170  -7.680  -0.320  0.00  0.00    +0.000 A 
ATOM      5  C   UNL     1       6.839  -8.900  -0.453  0.00  0.00    +0.000 A 
ATOM      6  C   UNL     1       6.949  -9.488  -1.707  0.00  0.00    +0.000 A 
ATOM      7  C   UNL     1       6.399  -8.883  -2.830  0.00  0.00    +0.000 A 
ATOM      8  C   UNL     1       5.730  -7.664  -2.697  0.00  0.00    +0.000 A 
ATOM      9  F   UNL     1       7.589 -10.658  -1.834  0.00  0.00    +0.000 F 
ENDBRANCH   2   3
BRANCH   1  13
ATOM     10  C   UNL     1       3.169  -1.022  -0.190  0.00  0.00    +0.000 A 
ATOM     11  C   UNL     1       2.442  -2.195  -0.389  0.00  0.00    +0.000 A 
ATOM     12  C   UNL     1       3.104  -3.424  -0.505  0.00  0.00    +0.000 A 
ATOM     13  C   UNL     1       4.501  -3.497  -0.435  0.00  0.00    +0.000 A 
ATOM     14  C   UNL     1       5.223  -2.319  -0.217  0.00  0.00    +0.000 A 
ATOM     15  C   UNL     1       4.561  -1.093  -0.102  0.00  0.00    +0.000 A 
BRANCH  10  17
ATOM     16  C   UNL     1       1.239   0.363  -0.170  0.00  0.00    +0.000 C 
ATOM     17  O   UNL     1       2.651   0.236  -0.061  0.00  0.00    +0.000 OA
ENDBRANCH  10  17
ENDBRANCH   1  13
TORSDOF 3
