REMARK  Name = *****
REMARK  5 active torsions:
REMARK  status: ('A' for Active; 'I' for Inactive)
REMARK    1  A    between atoms: C_1  and  C_2
REMARK    2  A    between atoms: C_4  and  C_8
REMARK    3  A    between atoms: C_8  and  O_10
REMARK    4  A    between atoms: O_10  and  C_11
REMARK    5  A    between atoms: C_16  and  C_17
REMARK                            x       y       z     vdW  Elec       q    Type
REMARK                         _______ _______ _______ _____ _____    ______ ____
ROOT
ATOM      1  C   UNL     1      -1.250   2.530  -0.973  0.00  0.00    +0.000 C 
ATOM      2  O   UNL     1      -2.393   2.676  -1.380  0.00  0.00    +0.000 OA
ENDROOT
BRANCH   1   6
ATOM      3  C   UNL     1       2.337  -0.241   1.274  0.00  0.00    +0.000 C 
ATOM      4  C   UNL     1       0.938  -0.085   0.752  0.00  0.00    +0.000 A 
ATOM      5  C   UNL     1       0.532   1.124   0.168  0.00  0.00    +0.000 A 
ATOM      6  C   UNL     1      -0.765   1.266  -0.350  0.00  0.00    +0.000 A 
ATOM      7  C   UNL     1      -1.651   0.183  -0.288  0.00  0.00    +0.000 A 
ATOM      8  C   UNL     1      -1.247  -1.027   0.277  0.00  0.00    +0.000 A 
ATOM      9  C   UNL     1       0.044  -1.161   0.789  0.00  0.00    +0.000 A 
ENDBRANCH   1   6
BRANCH   1  10
ATOM     10  O   UNL     1      -0.224   3.455  -1.006  0.00  0.00    +0.000 OA
BRANCH  10  11
ATOM     11  C   UNL     1      -0.582   4.684  -1.573  0.00  0.00    +0.000 A 
ATOM     12  C   UNL     1      -0.661   4.793  -2.963  0.00  0.00    +0.000 A 
ATOM     13  C   UNL     1      -0.966   6.025  -3.535  0.00  0.00    +0.000 A 
ATOM     14  C   UNL     1      -1.174   7.138  -2.721  0.00  0.00    +0.000 A 
ATOM     15  C   UNL     1      -1.072   7.025  -1.331  0.00  0.00    +0.000 A 
ATOM     16  C   UNL     1      -0.761   5.795  -0.737  0.00  0.00    +0.000 A 
ATOM     17  C   UNL     1      -0.656   5.671   0.753  0.00  0.00    +0.000 C 
ENDBRANCH  10  11
ENDBRANCH   1  10
TORSDOF 3
