REMARK  Name = *****
REMARK  2 active torsions:
REMARK  status: ('A' for Active; 'I' for Inactive)
REMARK    1  A    between atoms: C_5  and  C_7
REMARK    2  A    between atoms: C_8  and  C_9
REMARK                            x       y       z     vdW  Elec       q    Type
REMARK                         _______ _______ _______ _____ _____    ______ ____
ROOT
ATOM      1  C   UNL     1       0.875  -2.434  -0.057  0.00  0.00    +0.000 C 
ATOM      2  C   UNL     1       2.204  -2.586   0.061  0.00  0.00    +0.000 C 
ENDROOT
BRANCH   2   3
ATOM      3  C   UNL     1       2.910  -3.879   0.011  0.00  0.00    +0.000 A 
ATOM      4  C   UNL     1       4.218  -3.921  -0.489  0.00  0.00    +0.000 A 
ATOM      5  C   UNL     1       4.951  -5.108  -0.540  0.00  0.00    +0.000 A 
ATOM      6  C   UNL     1       4.387  -6.293  -0.074  0.00  0.00    +0.000 A 
ATOM      7  C   UNL     1       3.095  -6.276   0.446  0.00  0.00    +0.000 A 
ATOM      8  C   UNL     1       2.373  -5.081   0.491  0.00  0.00    +0.000 A 
ATOM      9  F   UNL     1       1.144  -5.118   1.028  0.00  0.00    +0.000 F 
ATOM     10  F   UNL     1       4.804  -2.801  -0.941  0.00  0.00    +0.000 F 
ENDBRANCH   2   3
BRANCH   1  15
ATOM     11  C   UNL     1      -1.803   0.113   0.656  0.00  0.00    +0.000 A 
ATOM     12  C   UNL     1      -1.271   1.276   0.102  0.00  0.00    +0.000 A 
ATOM     13  C   UNL     1      -0.022   1.239  -0.513  0.00  0.00    +0.000 A 
ATOM     14  C   UNL     1       0.691   0.041  -0.567  0.00  0.00    +0.000 A 
ATOM     15  C   UNL     1       0.182  -1.136  -0.003  0.00  0.00    +0.000 A 
ATOM     16  C   UNL     1      -1.084  -1.085   0.600  0.00  0.00    +0.000 A 
ATOM     17  F   UNL     1       1.879   0.046  -1.192  0.00  0.00    +0.000 F 
ENDBRANCH   1  15
TORSDOF 2
