REMARK  Name = *****
REMARK  3 active torsions:
REMARK  status: ('A' for Active; 'I' for Inactive)
REMARK    1  A    between atoms: C_4  and  C_7
REMARK    2  A    between atoms: C_7  and  C_15
REMARK    3  A    between atoms: N_8  and  C_9
REMARK                            x       y       z     vdW  Elec       q    Type
REMARK                         _______ _______ _______ _____ _____    ______ ____
ROOT
ATOM      1  C   UNL     1      -2.804   0.516   0.021  0.00  0.00    +0.000 C 
ATOM      2  N   UNL     1      -3.294   1.712  -0.098  0.00  0.00    +0.000 NA
ENDROOT
BRANCH   1   6
ATOM      3  C   UNL     1       1.224  -0.891  -0.085  0.00  0.00    +0.000 A 
ATOM      4  C   UNL     1       0.380  -1.269   0.959  0.00  0.00    +0.000 A 
ATOM      5  C   UNL     1      -0.937  -0.808   0.996  0.00  0.00    +0.000 A 
ATOM      6  C   UNL     1      -1.408   0.040  -0.015  0.00  0.00    +0.000 A 
ATOM      7  C   UNL     1      -0.561   0.411  -1.066  0.00  0.00    +0.000 A 
ATOM      8  C   UNL     1       0.755  -0.053  -1.096  0.00  0.00    +0.000 A 
ENDBRANCH   1   6
BRANCH   2   9
ATOM      9  C   UNL     1      -2.455   2.826  -0.227  0.00  0.00    +0.000 A 
ATOM     10  C   UNL     1      -2.466   3.555  -1.419  0.00  0.00    +0.000 A 
ATOM     11  C   UNL     1      -1.655   4.681  -1.570  0.00  0.00    +0.000 A 
ATOM     12  C   UNL     1      -0.839   5.097  -0.520  0.00  0.00    +0.000 A 
ATOM     13  C   UNL     1      -0.842   4.393   0.684  0.00  0.00    +0.000 A 
ATOM     14  C   UNL     1      -1.656   3.268   0.832  0.00  0.00    +0.000 A 
ENDBRANCH   2   9
BRANCH   1  15
ATOM     15  C   UNL     1      -3.840  -0.478   0.216  0.00  0.00    +0.000 C 
ATOM     16  N   UNL     1      -4.639  -1.306   0.386  0.00  0.00    +0.000 NA
ENDBRANCH   1  15
TORSDOF 3
