REMARK  Name = *****
REMARK  2 active torsions:
REMARK  status: ('A' for Active; 'I' for Inactive)
REMARK    1  A    between atoms: C_5  and  N_7
REMARK    2  A    between atoms: C_8  and  C_9
REMARK                            x       y       z     vdW  Elec       q    Type
REMARK                         _______ _______ _______ _____ _____    ______ ____
ROOT
ATOM      1  C   UNL     1       2.040   0.016  -0.746  0.00  0.00    +0.000 A 
ATOM      2  C   UNL     1       1.548   1.176  -0.153  0.00  0.00    +0.000 A 
ATOM      3  C   UNL     1       0.363   1.131   0.581  0.00  0.00    +0.000 A 
ATOM      4  C   UNL     1      -0.334  -0.075   0.718  0.00  0.00    +0.000 A 
ATOM      5  C   UNL     1       0.139  -1.249   0.102  0.00  0.00    +0.000 A 
ATOM      6  C   UNL     1       1.341  -1.186  -0.615  0.00  0.00    +0.000 A 
ATOM      7 CL   UNL     1      -1.777  -0.065   1.673  0.00  0.00    +0.000 Cl
ENDROOT
BRANCH   5   8
ATOM      8  N   UNL     1      -0.483  -2.509   0.209  0.00  0.00    +0.000 NA
ATOM      9  C   UNL     1      -1.641  -2.642  -0.358  0.00  0.00    +0.000 C 
BRANCH   9  10
ATOM     10  C   UNL     1      -2.390  -3.956  -0.276  0.00  0.00    +0.000 C 
ATOM     11  C   UNL     1      -3.144  -4.219  -1.551  0.00  0.00    +0.000 C 
ATOM     12  C   UNL     1      -4.464  -4.240  -1.302  0.00  0.00    +0.000 C 
ATOM     13  C   UNL     1      -4.688  -4.004   0.103  0.00  0.00    +0.000 C 
ATOM     14  C   UNL     1      -3.510  -3.835   0.720  0.00  0.00    +0.000 C 
ENDBRANCH   9  10
ENDBRANCH   5   8
TORSDOF 2
