REMARK  Name = *****
REMARK  3 active torsions:
REMARK  status: ('A' for Active; 'I' for Inactive)
REMARK    1  A    between atoms: C_2  and  C_3
REMARK    2  A    between atoms: C_3  and  C_11
REMARK    3  A    between atoms: C_4  and  C_5
REMARK                            x       y       z     vdW  Elec       q    Type
REMARK                         _______ _______ _______ _____ _____    ______ ____
ROOT
ATOM      1  C   UNL     1       3.780  -0.003  -0.090  0.00  0.00    +0.000 C 
ATOM      2  C   UNL     1       4.467   0.693   0.836  0.00  0.00    +0.000 C 
ENDROOT
BRANCH   2   3
ATOM      3  C   UNL     1       3.858   1.469   1.921  0.00  0.00    +0.000 A 
ATOM      4  C   UNL     1       3.463   0.838   3.106  0.00  0.00    +0.000 A 
ATOM      5  C   UNL     1       2.884   1.581   4.137  0.00  0.00    +0.000 A 
ATOM      6  C   UNL     1       2.696   2.955   3.987  0.00  0.00    +0.000 A 
ATOM      7  C   UNL     1       3.086   3.587   2.807  0.00  0.00    +0.000 A 
ATOM      8  C   UNL     1       3.666   2.846   1.775  0.00  0.00    +0.000 A 
ENDBRANCH   2   3
BRANCH   1   9
ATOM      9  C   UNL     1       4.487  -0.748  -1.153  0.00  0.00    +0.000 A 
ATOM     10  C   UNL     1       5.542  -1.623  -0.849  0.00  0.00    +0.000 A 
ATOM     11  C   UNL     1       6.199  -2.328  -1.861  0.00  0.00    +0.000 A 
ATOM     12  C   UNL     1       5.805  -2.173  -3.188  0.00  0.00    +0.000 A 
ATOM     13  C   UNL     1       4.755  -1.315  -3.505  0.00  0.00    +0.000 A 
ATOM     14  C   UNL     1       4.098  -0.608  -2.494  0.00  0.00    +0.000 A 
ENDBRANCH   1   9
BRANCH   1  16
ATOM     15  C   UNL     1       0.956  -0.003  -0.090  0.00  0.00    +0.000 C 
ATOM     16  C   UNL     1       2.260  -0.003  -0.090  0.00  0.00    +0.000 C 
ENDBRANCH   1  16
TORSDOF 3
