REMARK  Name = *****
REMARK  3 active torsions:
REMARK  status: ('A' for Active; 'I' for Inactive)
REMARK    1  A    between atoms: C_4  and  N_7
REMARK    2  A    between atoms: N_7  and  C_8
REMARK    3  A    between atoms: C_8  and  C_9
REMARK                            x       y       z     vdW  Elec       q    Type
REMARK                         _______ _______ _______ _____ _____    ______ ____
ROOT
ATOM      1  C   UNL     1      -3.150   1.609  -0.493  0.00  0.00    +0.000 C 
ENDROOT
BRANCH   1   2
ATOM      2  C   UNL     1      -2.307   2.808  -0.562  0.00  0.00    +0.000 A 
ATOM      3  C   UNL     1      -1.379   2.971  -1.598  0.00  0.00    +0.000 A 
ATOM      4  C   UNL     1      -0.592   4.124  -1.655  0.00  0.00    +0.000 A 
ATOM      5  C   UNL     1      -0.741   5.125  -0.694  0.00  0.00    +0.000 A 
ATOM      6  C   UNL     1      -1.689   4.980   0.319  0.00  0.00    +0.000 A 
ATOM      7  C   UNL     1      -2.479   3.829   0.382  0.00  0.00    +0.000 A 
ATOM      8 CL   UNL     1      -3.650   3.721   1.648  0.00  0.00    +0.000 Cl
ATOM      9 CL   UNL     1      -1.193   1.807  -2.860  0.00  0.00    +0.000 Cl
ENDBRANCH   1   2
BRANCH   1  10
ATOM     10  N   UNL     1      -2.766   0.452  -0.006  0.00  0.00    +0.000 N 
ATOM     11  O   UNL     1      -3.569  -0.537  -0.019  0.00  0.00    +0.000 OA
BRANCH  10  15
ATOM     12  C   UNL     1       1.110  -0.095   1.584  0.00  0.00    +0.000 A 
ATOM     13  C   UNL     1       0.156   0.612   2.319  0.00  0.00    +0.000 A 
ATOM     14  C   UNL     1      -1.128   0.793   1.805  0.00  0.00    +0.000 A 
ATOM     15  C   UNL     1      -1.437   0.277   0.543  0.00  0.00    +0.000 A 
ATOM     16  C   UNL     1      -0.497  -0.459  -0.183  0.00  0.00    +0.000 A 
ATOM     17  C   UNL     1       0.783  -0.636   0.339  0.00  0.00    +0.000 A 
ENDBRANCH  10  15
ENDBRANCH   1  10
TORSDOF 3
