REMARK  Name = *****
REMARK  2 active torsions:
REMARK  status: ('A' for Active; 'I' for Inactive)
REMARK    1  A    between atoms: C_1  and  C_2
REMARK    2  A    between atoms: C_10  and  C_13
REMARK                            x       y       z     vdW  Elec       q    Type
REMARK                         _______ _______ _______ _____ _____    ______ ____
ROOT
ATOM      1  C   UNL     1       1.407  -0.627   0.928  0.00  0.00    +0.000 C 
ATOM      2  C   UNL     1       2.571  -0.029   0.138  0.00  0.00    +0.000 C 
ATOM      3  C   UNL     1       2.930   1.383   0.546  0.00  0.00    +0.000 A 
ATOM      4  C   UNL     1       2.521   2.463  -0.260  0.00  0.00    +0.000 A 
ATOM      5  C   UNL     1       2.819   3.778   0.098  0.00  0.00    +0.000 A 
ATOM      6  C   UNL     1       3.521   4.034   1.269  0.00  0.00    +0.000 A 
ATOM      7  C   UNL     1       3.930   2.974   2.077  0.00  0.00    +0.000 A 
ATOM      8  C   UNL     1       3.651   1.645   1.719  0.00  0.00    +0.000 A 
ATOM      9  C   UNL     1       4.085   0.580   2.626  0.00  0.00    +0.000 C 
ATOM     10  C   UNL     1       4.407  -0.680   2.280  0.00  0.00    +0.000 C 
ATOM     11  N   UNL     1       4.469  -1.215   1.018  0.00  0.00    +0.000 NA
ATOM     12  N   UNL     1       3.711  -0.959   0.061  0.00  0.00    +0.000 NA
ENDROOT
BRANCH  10  13
ATOM     13  C   UNL     1       4.920  -1.546   3.371  0.00  0.00    +0.000 A 
ATOM     14  C   UNL     1       4.133  -1.862   4.489  0.00  0.00    +0.000 A 
ATOM     15  C   UNL     1       4.650  -2.651   5.519  0.00  0.00    +0.000 A 
ATOM     16  C   UNL     1       5.955  -3.135   5.441  0.00  0.00    +0.000 A 
ATOM     17  C   UNL     1       6.742  -2.841   4.330  0.00  0.00    +0.000 A 
ATOM     18  C   UNL     1       6.226  -2.053   3.298  0.00  0.00    +0.000 A 
ENDBRANCH  10  13
TORSDOF 1
