REMARK  Name = *****
REMARK  5 active torsions:
REMARK  status: ('A' for Active; 'I' for Inactive)
REMARK    1  A    between atoms: C_1  and  O_2
REMARK    2  A    between atoms: O_2  and  C_3
REMARK    3  A    between atoms: C_3  and  C_13
REMARK    4  A    between atoms: C_4  and  C_5
REMARK    5  A    between atoms: C_4  and  C_7
REMARK                            x       y       z     vdW  Elec       q    Type
REMARK                         _______ _______ _______ _____ _____    ______ ____
ROOT
ATOM      1  C   UNL     1       3.273   0.624  -1.284  0.00  0.00    +0.000 C 
ATOM      2  C   UNL     1       2.572   1.412  -2.134  0.00  0.00    +0.000 C 
ENDROOT
BRANCH   2   3
ATOM      3  C   UNL     1       1.091   1.415  -2.112  0.00  0.00    +0.000 A 
ATOM      4  C   UNL     1       0.391   2.586  -1.789  0.00  0.00    +0.000 A 
ATOM      5  C   UNL     1      -1.005   2.595  -1.764  0.00  0.00    +0.000 A 
ATOM      6  C   UNL     1      -1.717   1.436  -2.064  0.00  0.00    +0.000 A 
ATOM      7  C   UNL     1      -1.034   0.266  -2.392  0.00  0.00    +0.000 A 
ATOM      8  C   UNL     1       0.362   0.256  -2.419  0.00  0.00    +0.000 A 
ENDBRANCH   2   3
BRANCH   1   9
ATOM      9  C   UNL     1       4.746   0.550  -1.229  0.00  0.00    +0.000 A 
ATOM     10  C   UNL     1       5.504   1.624  -0.740  0.00  0.00    +0.000 A 
ATOM     11  C   UNL     1       6.897   1.538  -0.690  0.00  0.00    +0.000 A 
ATOM     12  C   UNL     1       7.540   0.378  -1.121  0.00  0.00    +0.000 A 
ATOM     13  C   UNL     1       6.793  -0.699  -1.597  0.00  0.00    +0.000 A 
ATOM     14  C   UNL     1       5.400  -0.615  -1.648  0.00  0.00    +0.000 A 
ENDBRANCH   1   9
BRANCH   1  16
ATOM     15  C   UNL     1       2.711   0.104   0.921  0.00  0.00    +0.000 C 
ATOM     16  O   UNL     1       2.632  -0.284  -0.450  0.00  0.00    +0.000 OA
ENDBRANCH   1  16
BRANCH   2  17
ATOM     17  C   UNL     1       3.286   2.299  -3.105  0.00  0.00    +0.000 C 
ATOM     18  O   UNL     1       2.734   3.191  -3.742  0.00  0.00    +0.000 OA
ENDBRANCH   2  17
TORSDOF 4
