REMARK  Name = *****
REMARK  3 active torsions:
REMARK  status: ('A' for Active; 'I' for Inactive)
REMARK    1  A    between atoms: C_2  and  C_3
REMARK    2  A    between atoms: C_4  and  C_9
REMARK    3  A    between atoms: C_10  and  C_11
REMARK                            x       y       z     vdW  Elec       q    Type
REMARK                         _______ _______ _______ _____ _____    ______ ____
ROOT
ATOM      1  C   UNL     1       3.919  -0.028  -0.012  0.00  0.00    +0.000 C 
ATOM      2  C   UNL     1       4.604   1.135   0.038  0.00  0.00    +0.000 C 
ATOM      3  C   UNL     1       6.116   1.167   0.051  0.00  0.00    +0.000 C 
ATOM      4  C   UNL     1       6.768  -0.155  -0.354  0.00  0.00    +0.000 C 
ATOM      5  C   UNL     1       6.078  -1.330   0.326  0.00  0.00    +0.000 C 
ATOM      6  C   UNL     1       4.596  -1.378  -0.043  0.00  0.00    +0.000 C 
ENDROOT
BRANCH   1   8
ATOM      7  C   UNL     1       1.095  -0.028  -0.012  0.00  0.00    +0.000 C 
ATOM      8  C   UNL     1       2.399  -0.028  -0.012  0.00  0.00    +0.000 C 
ENDBRANCH   1   8
BRANCH   2   9
ATOM      9  C   UNL     1       3.923   2.394   0.059  0.00  0.00    +0.000 C 
ATOM     10  C   UNL     1       3.346   3.448   0.049  0.00  0.00    +0.000 C 
BRANCH  10  11
ATOM     11  C   UNL     1       2.641   4.691   0.009  0.00  0.00    +0.000 A 
ATOM     12  C   UNL     1       1.264   4.702  -0.228  0.00  0.00    +0.000 A 
ATOM     13  C   UNL     1       0.574   5.915  -0.282  0.00  0.00    +0.000 A 
ATOM     14  C   UNL     1       1.259   7.116  -0.099  0.00  0.00    +0.000 A 
ATOM     15  C   UNL     1       2.634   7.106   0.140  0.00  0.00    +0.000 A 
ATOM     16  C   UNL     1       3.325   5.894   0.194  0.00  0.00    +0.000 A 
ENDBRANCH  10  11
ENDBRANCH   2   9
TORSDOF 3
