REMARK  Name = *****
REMARK  5 active torsions:
REMARK  status: ('A' for Active; 'I' for Inactive)
REMARK    1  A    between atoms: C_1  and  C_2
REMARK    2  A    between atoms: N_3  and  C_19
REMARK    3  A    between atoms: C_10  and  C_11
REMARK    4  A    between atoms: C_10  and  C_12
REMARK    5  A    between atoms: C_12  and  C_13
REMARK                            x       y       z     vdW  Elec       q    Type
REMARK                         _______ _______ _______ _____ _____    ______ ____
ROOT
ATOM      1  C   UNL     1       1.171  -0.003  -0.083  0.00  0.00    +0.000 C 
ATOM      2  C   UNL     1       2.659   0.008  -0.100  0.00  0.00    +0.000 C 
ATOM      3  N   UNL     1       3.341   1.108  -0.191  0.00  0.00    +0.000 N 
ATOM      4  C   UNL     1       4.716   0.807  -0.264  0.00  0.00    +0.000 A 
ATOM      5  C   UNL     1       5.784   1.681  -0.382  0.00  0.00    +0.000 A 
ATOM      6  C   UNL     1       7.066   1.128  -0.463  0.00  0.00    +0.000 A 
ATOM      7  C   UNL     1       7.253  -0.264  -0.428  0.00  0.00    +0.000 A 
ATOM      8  C   UNL     1       6.165  -1.131  -0.306  0.00  0.00    +0.000 A 
ATOM      9  C   UNL     1       4.899  -0.576  -0.218  0.00  0.00    +0.000 A 
ATOM     10  C   UNL     1       3.555  -1.234  -0.059  0.00  0.00    +0.000 C 
ATOM     11  C   UNL     1       3.254  -2.138  -1.260  0.00  0.00    +0.000 C 
ATOM     12  C   UNL     1       2.892   2.506  -0.239  0.00  0.00    +0.000 C 
ENDROOT
BRANCH  10  13
ATOM     13  C   UNL     1       3.404  -2.017   1.270  0.00  0.00    +0.000 C 
BRANCH  13  14
ATOM     14  C   UNL     1       3.435  -1.166   2.523  0.00  0.00    +0.000 A 
ATOM     15  C   UNL     1       2.241  -0.780   3.149  0.00  0.00    +0.000 A 
ATOM     16  C   UNL     1       2.265   0.039   4.279  0.00  0.00    +0.000 A 
ATOM     17  C   UNL     1       3.480   0.472   4.803  0.00  0.00    +0.000 A 
ATOM     18  C   UNL     1       4.674   0.075   4.205  0.00  0.00    +0.000 A 
ATOM     19  C   UNL     1       4.653  -0.744   3.075  0.00  0.00    +0.000 A 
ENDBRANCH  13  14
ENDBRANCH  10  13
TORSDOF 2
