REMARK  Name = *****
REMARK  3 active torsions:
REMARK  status: ('A' for Active; 'I' for Inactive)
REMARK    1  A    between atoms: C_4  and  C_7
REMARK    2  A    between atoms: C_7  and  C_8
REMARK    3  A    between atoms: C_9  and  C_10
REMARK                            x       y       z     vdW  Elec       q    Type
REMARK                         _______ _______ _______ _____ _____    ______ ____
ROOT
ATOM      1  C   UNL     1      -3.524  -1.141  -0.300  0.00  0.00    +0.000 C 
ATOM      2  C   UNL     1      -4.863  -1.091  -0.227  0.00  0.00    +0.000 C 
ENDROOT
BRANCH   2   3
ATOM      3  C   UNL     1      -5.733  -2.262  -0.405  0.00  0.00    +0.000 A 
ATOM      4  C   UNL     1      -6.860  -2.402   0.414  0.00  0.00    +0.000 A 
ATOM      5  C   UNL     1      -7.725  -3.488   0.254  0.00  0.00    +0.000 A 
ATOM      6  C   UNL     1      -7.477  -4.438  -0.734  0.00  0.00    +0.000 A 
ATOM      7  C   UNL     1      -6.367  -4.301  -1.566  0.00  0.00    +0.000 A 
ATOM      8  C   UNL     1      -5.502  -3.216  -1.406  0.00  0.00    +0.000 A 
ENDBRANCH   2   3
BRANCH   1   9
ATOM      9  C   UNL     1      -2.687   0.024  -0.124  0.00  0.00    +0.000 C 
BRANCH   9  13
ATOM     10  C   UNL     1       1.583   0.214   0.014  0.00  0.00    +0.000 A 
ATOM     11  C   UNL     1       0.842   1.297  -0.455  0.00  0.00    +0.000 A 
ATOM     12  C   UNL     1      -0.553   1.222  -0.501  0.00  0.00    +0.000 A 
ATOM     13  C   UNL     1      -1.219   0.061  -0.089  0.00  0.00    +0.000 A 
ATOM     14  C   UNL     1      -0.464  -1.015   0.394  0.00  0.00    +0.000 A 
ATOM     15  C   UNL     1       0.931  -0.940   0.441  0.00  0.00    +0.000 A 
ENDBRANCH   9  13
ENDBRANCH   1   9
TORSDOF 3
