REMARK  Name = *****
REMARK  2 active torsions:
REMARK  status: ('A' for Active; 'I' for Inactive)
REMARK    1  A    between atoms: C_4  and  C_6
REMARK    2  A    between atoms: C_7  and  C_8
REMARK                            x       y       z     vdW  Elec       q    Type
REMARK                         _______ _______ _______ _____ _____    ______ ____
ROOT
ATOM      1  C   UNL     1      -0.098  -2.673   0.049  0.00  0.00    +0.000 C 
ATOM      2  C   UNL     1       0.820  -3.646  -0.070  0.00  0.00    +0.000 C 
ENDROOT
BRANCH   2   3
ATOM      3  C   UNL     1       0.487  -5.078  -0.056  0.00  0.00    +0.000 A 
ATOM      4  C   UNL     1      -0.624  -5.593  -0.739  0.00  0.00    +0.000 A 
ATOM      5  C   UNL     1      -0.891  -6.965  -0.728  0.00  0.00    +0.000 A 
ATOM      6  C   UNL     1      -0.042  -7.831  -0.044  0.00  0.00    +0.000 A 
ATOM      7  C   UNL     1       1.075  -7.338   0.626  0.00  0.00    +0.000 A 
ATOM      8  C   UNL     1       1.341  -5.965   0.614  0.00  0.00    +0.000 A 
ATOM      9 CL   UNL     1      -0.369  -9.520  -0.032  0.00  0.00    +0.000 Cl
ENDBRANCH   2   3
BRANCH   1  13
ATOM     10  C   UNL     1       1.360   0.779  -0.049  0.00  0.00    +0.000 A 
ATOM     11  C   UNL     1       0.059   1.192   0.107  0.00  0.00    +0.000 A 
ATOM     12  S   UNL     1      -1.023  -0.124   0.205  0.00  0.00    +0.000 S 
ATOM     13  C   UNL     1       0.245  -1.288   0.038  0.00  0.00    +0.000 A 
ATOM     14  C   UNL     1       1.466  -0.643  -0.089  0.00  0.00    +0.000 A 
ENDBRANCH   1  13
TORSDOF 2
