REMARK  Name = *****
REMARK  4 active torsions:
REMARK  status: ('A' for Active; 'I' for Inactive)
REMARK    1  A    between atoms: C_4  and  C_7
REMARK    2  A    between atoms: C_7  and  C_8
REMARK    3  A    between atoms: C_8  and  C_9
REMARK    4  A    between atoms: C_9  and  C_11
REMARK                            x       y       z     vdW  Elec       q    Type
REMARK                         _______ _______ _______ _____ _____    ______ ____
ROOT
ATOM      1  C   UNL     1      -3.756  -0.793  -0.359  0.00  0.00    +0.000 C 
ATOM      2  F   UNL     1      -3.813  -1.573   0.762  0.00  0.00    +0.000 F 
ATOM      3 CL   UNL     1      -5.433  -0.237  -0.705  0.00  0.00    +0.000 Cl
ENDROOT
BRANCH   1   4
ATOM      4  C   UNL     1      -3.283  -1.539  -1.607  0.00  0.00    +0.000 C 
ATOM      5  O   UNL     1      -2.849  -0.953  -2.603  0.00  0.00    +0.000 OA
BRANCH   4   6
ATOM      6  C   UNL     1      -3.380  -3.028  -1.659  0.00  0.00    +0.000 A 
ATOM      7  C   UNL     1      -4.301  -3.756  -0.898  0.00  0.00    +0.000 A 
ATOM      8  C   UNL     1      -4.356  -5.149  -1.007  0.00  0.00    +0.000 A 
ATOM      9  C   UNL     1      -3.501  -5.820  -1.879  0.00  0.00    +0.000 A 
ATOM     10  C   UNL     1      -2.590  -5.101  -2.650  0.00  0.00    +0.000 A 
ATOM     11  C   UNL     1      -2.531  -3.710  -2.544  0.00  0.00    +0.000 A 
ENDBRANCH   4   6
ENDBRANCH   1   4
BRANCH   1  12
ATOM     12  C   UNL     1      -2.879   0.429  -0.054  0.00  0.00    +0.000 C 
BRANCH  12  16
ATOM     13  C   UNL     1       1.167  -0.615   1.041  0.00  0.00    +0.000 A 
ATOM     14  C   UNL     1       0.884  -0.181  -0.252  0.00  0.00    +0.000 A 
ATOM     15  C   UNL     1      -0.422   0.160  -0.606  0.00  0.00    +0.000 A 
ATOM     16  C   UNL     1      -1.459   0.070   0.332  0.00  0.00    +0.000 A 
ATOM     17  C   UNL     1      -1.164  -0.371   1.629  0.00  0.00    +0.000 A 
ATOM     18  C   UNL     1       0.143  -0.711   1.981  0.00  0.00    +0.000 A 
ENDBRANCH  12  16
ENDBRANCH   1  12
TORSDOF 4
