REMARK  Name = *****
REMARK  4 active torsions:
REMARK  status: ('A' for Active; 'I' for Inactive)
REMARK    1  A    between atoms: C_4  and  O_7
REMARK    2  A    between atoms: O_7  and  N_8
REMARK    3  A    between atoms: N_8  and  C_9
REMARK    4  A    between atoms: C_9  and  C_10
REMARK                            x       y       z     vdW  Elec       q    Type
REMARK                         _______ _______ _______ _____ _____    ______ ____
ROOT
ATOM      1  N   UNL     1      -3.551  -0.776  -0.095  0.00  0.00    +0.000 NA
ENDROOT
BRANCH   1   2
ATOM      2  O   UNL     1      -2.799   0.405  -0.169  0.00  0.00    +0.000 OA
BRANCH   2   6
ATOM      3  C   UNL     1       1.179   0.035   1.034  0.00  0.00    +0.000 A 
ATOM      4  C   UNL     1       0.349  -1.082   1.127  0.00  0.00    +0.000 A 
ATOM      5  C   UNL     1      -0.989  -0.996   0.734  0.00  0.00    +0.000 A 
ATOM      6  C   UNL     1      -1.500   0.208   0.244  0.00  0.00    +0.000 A 
ATOM      7  C   UNL     1      -0.664   1.325   0.154  0.00  0.00    +0.000 A 
ATOM      8  C   UNL     1       0.673   1.239   0.547  0.00  0.00    +0.000 A 
ENDBRANCH   2   6
ENDBRANCH   1   2
BRANCH   1   9
ATOM      9  C   UNL     1      -4.751  -0.528  -0.511  0.00  0.00    +0.000 C 
BRANCH   9  10
ATOM     10  C   UNL     1      -5.793  -1.571  -0.559  0.00  0.00    +0.000 A 
ATOM     11  C   UNL     1      -5.518  -2.880  -0.148  0.00  0.00    +0.000 A 
ATOM     12  C   UNL     1      -6.521  -3.851  -0.204  0.00  0.00    +0.000 A 
ATOM     13  C   UNL     1      -7.791  -3.509  -0.670  0.00  0.00    +0.000 A 
ATOM     14  C   UNL     1      -8.067  -2.204  -1.080  0.00  0.00    +0.000 A 
ATOM     15  C   UNL     1      -7.066  -1.230  -1.025  0.00  0.00    +0.000 A 
ATOM     16 CL   UNL     1      -9.025  -4.705  -0.739  0.00  0.00    +0.000 Cl
ENDBRANCH   9  10
ENDBRANCH   1   9
TORSDOF 4
