REMARK  Name = *****
REMARK  4 active torsions:
REMARK  status: ('A' for Active; 'I' for Inactive)
REMARK    1  A    between atoms: C_7  and  C_8
REMARK    2  A    between atoms: C_7  and  C_16
REMARK    3  A    between atoms: C_8  and  C_9
REMARK    4  A    between atoms: C_9  and  C_10
REMARK                            x       y       z     vdW  Elec       q    Type
REMARK                         _______ _______ _______ _____ _____    ______ ____
ROOT
ATOM      1  C   UNL     1       0.167   1.169   0.398  0.00  0.00    +0.000 C 
ATOM      2  C   UNL     1       0.392   0.343   1.639  0.00  0.00    +0.000 C 
ATOM      3  O   UNL     1      -0.523   0.648   2.695  0.00  0.00    +0.000 OA
ATOM      4  C   UNL     1      -1.621   1.435   2.563  0.00  0.00    +0.000 C 
ATOM      5  O   UNL     1      -2.285   1.777   3.532  0.00  0.00    +0.000 OA
ATOM      6  O   UNL     1      -1.938   1.832   1.304  0.00  0.00    +0.000 OA
ATOM      7  C   UNL     1      -1.330   1.279   0.113  0.00  0.00    +0.000 C 
ENDROOT
BRANCH   7   8
ATOM      8  C   UNL     1      -1.956  -0.108  -0.193  0.00  0.00    +0.000 C 
ATOM      9  I   UNL     1      -4.076  -0.071  -0.602  0.00  0.00    +0.000 I 
ENDBRANCH   7   8
BRANCH   7  10
ATOM     10  C   UNL     1      -1.558   2.333  -1.003  0.00  0.00    +0.000 C 
BRANCH  10  11
ATOM     11  C   UNL     1      -1.050   1.938  -2.393  0.00  0.00    +0.000 C 
BRANCH  11  12
ATOM     12  C   UNL     1      -1.330   3.018  -3.409  0.00  0.00    +0.000 A 
ATOM     13  C   UNL     1      -0.390   4.027  -3.654  0.00  0.00    +0.000 A 
ATOM     14  C   UNL     1      -0.661   5.034  -4.582  0.00  0.00    +0.000 A 
ATOM     15  C   UNL     1      -1.874   5.045  -5.267  0.00  0.00    +0.000 A 
ATOM     16  C   UNL     1      -2.819   4.050  -5.025  0.00  0.00    +0.000 A 
ATOM     17  C   UNL     1      -2.550   3.042  -4.098  0.00  0.00    +0.000 A 
ENDBRANCH  11  12
ENDBRANCH  10  11
ENDBRANCH   7  10
TORSDOF 4
