REMARK  Name = *****
REMARK  1 active torsions:
REMARK  status: ('A' for Active; 'I' for Inactive)
REMARK    1  A    between atoms: P_9  and  C_10
REMARK                            x       y       z     vdW  Elec       q    Type
REMARK                         _______ _______ _______ _____ _____    ______ ____
ROOT
ATOM      1  C   UNL     1      -1.905   0.939   0.128  0.00  0.00    +0.000 C 
ATOM      2  C   UNL     1      -0.463   0.563   0.081  0.00  0.00    +0.000 A 
ATOM      3  C   UNL     1       0.551   1.525   0.150  0.00  0.00    +0.000 A 
ATOM      4  C   UNL     1       1.890   1.133   0.110  0.00  0.00    +0.000 A 
ATOM      5  C   UNL     1       2.219  -0.217   0.003  0.00  0.00    +0.000 A 
ATOM      6  C   UNL     1       1.210  -1.178  -0.062  0.00  0.00    +0.000 A 
ATOM      7  C   UNL     1      -0.133  -0.788  -0.026  0.00  0.00    +0.000 A 
ATOM      8  C   UNL     1      -1.239  -1.785  -0.082  0.00  0.00    +0.000 C 
ATOM      9  P   UNL     1      -2.691  -0.680  -0.176  0.00  0.00    +0.000 P 
ENDROOT
BRANCH   9  10
ATOM     10  C   UNL     1      -3.516  -1.032   1.410  0.00  0.00    +0.000 A 
ATOM     11  C   UNL     1      -2.887  -0.878   2.653  0.00  0.00    +0.000 A 
ATOM     12  C   UNL     1      -3.566  -1.173   3.839  0.00  0.00    +0.000 A 
ATOM     13  C   UNL     1      -4.881  -1.631   3.796  0.00  0.00    +0.000 A 
ATOM     14  C   UNL     1      -5.518  -1.792   2.569  0.00  0.00    +0.000 A 
ATOM     15  C   UNL     1      -4.840  -1.494   1.384  0.00  0.00    +0.000 A 
ENDBRANCH   9  10
TORSDOF 1
