REMARK  Name = *****
REMARK  3 active torsions:
REMARK  status: ('A' for Active; 'I' for Inactive)
REMARK    1  A    between atoms: C_4  and  C_7
REMARK    2  A    between atoms: C_7  and  S_8
REMARK    3  A    between atoms: S_8  and  C_10
REMARK                            x       y       z     vdW  Elec       q    Type
REMARK                         _______ _______ _______ _____ _____    ______ ____
ROOT
ATOM      1  S   UNL     1       4.129   0.589   0.468  0.00  0.00    +0.000 S 
ATOM      2  O   UNL     1       4.152   0.495   1.966  0.00  0.00    +0.000 OA
ENDROOT
BRANCH   1   3
ATOM      3  C   UNL     1       5.596  -0.297  -0.110  0.00  0.00    +0.000 A 
ATOM      4  C   UNL     1       5.927  -0.276  -1.470  0.00  0.00    +0.000 A 
ATOM      5  C   UNL     1       7.058  -0.954  -1.928  0.00  0.00    +0.000 A 
ATOM      6  C   UNL     1       7.866  -1.650  -1.030  0.00  0.00    +0.000 A 
ATOM      7  C   UNL     1       7.547  -1.666   0.327  0.00  0.00    +0.000 A 
ATOM      8  C   UNL     1       6.416  -0.989   0.787  0.00  0.00    +0.000 A 
ENDBRANCH   1   3
BRANCH   1   9
ATOM      9  C   UNL     1       2.890  -0.613  -0.133  0.00  0.00    +0.000 C 
BRANCH   9  13
ATOM     10  C   UNL     1      -1.411   0.195  -0.340  0.00  0.00    +0.000 C 
ATOM     11  C   UNL     1      -0.933  -1.056   0.388  0.00  0.00    +0.000 C 
ATOM     12  C   UNL     1       0.510  -1.400   0.027  0.00  0.00    +0.000 C 
ATOM     13  C   UNL     1       1.465  -0.220   0.285  0.00  0.00    +0.000 C 
ATOM     14  C   UNL     1       0.969   1.033  -0.459  0.00  0.00    +0.000 C 
ATOM     15  C   UNL     1      -0.475   1.374  -0.097  0.00  0.00    +0.000 C 
ENDBRANCH   9  13
ENDBRANCH   1   9
TORSDOF 3
