REMARK  Name = *****
REMARK  5 active torsions:
REMARK  status: ('A' for Active; 'I' for Inactive)
REMARK    1  A    between atoms: C_1  and  O_2
REMARK    2  A    between atoms: O_2  and  C_3
REMARK    3  A    between atoms: C_3  and  C_5
REMARK    4  A    between atoms: C_5  and  C_13
REMARK    5  A    between atoms: C_6  and  C_7
REMARK                            x       y       z     vdW  Elec       q    Type
REMARK                         _______ _______ _______ _____ _____    ______ ____
ROOT
ATOM      1  C   UNL     1       4.603  -0.113  -1.386  0.00  0.00    +0.000 C 
ATOM      2  C   UNL     1       5.093  -0.419  -0.167  0.00  0.00    +0.000 C 
ENDROOT
BRANCH   2   3
ATOM      3  C   UNL     1       4.347  -0.367   1.096  0.00  0.00    +0.000 A 
ATOM      4  C   UNL     1       4.135  -1.545   1.820  0.00  0.00    +0.000 A 
ATOM      5  C   UNL     1       3.434  -1.513   3.027  0.00  0.00    +0.000 A 
ATOM      6  C   UNL     1       2.947  -0.303   3.520  0.00  0.00    +0.000 A 
ATOM      7  C   UNL     1       3.162   0.876   2.808  0.00  0.00    +0.000 A 
ATOM      8  C   UNL     1       3.862   0.846   1.600  0.00  0.00    +0.000 A 
ENDBRANCH   2   3
BRANCH   1   9
ATOM      9  C   UNL     1       5.483  -0.150  -2.571  0.00  0.00    +0.000 A 
ATOM     10  C   UNL     1       6.202  -1.311  -2.894  0.00  0.00    +0.000 A 
ATOM     11  C   UNL     1       7.027  -1.348  -4.021  0.00  0.00    +0.000 A 
ATOM     12  C   UNL     1       7.139  -0.226  -4.840  0.00  0.00    +0.000 A 
ATOM     13  C   UNL     1       6.426   0.931  -4.534  0.00  0.00    +0.000 A 
ATOM     14  C   UNL     1       5.601   0.969  -3.407  0.00  0.00    +0.000 A 
ENDBRANCH   1   9
BRANCH   1  15
ATOM     15  C   UNL     1       3.186   0.313  -1.534  0.00  0.00    +0.000 C 
ATOM     16  O   UNL     1       2.836   1.445  -1.835  0.00  0.00    +0.000 OA
BRANCH  15  18
ATOM     17  C   UNL     1       0.985  -0.447  -1.415  0.00  0.00    +0.000 C 
ATOM     18  O   UNL     1       2.374  -0.755  -1.318  0.00  0.00    +0.000 OA
ENDBRANCH  15  18
ENDBRANCH   1  15
TORSDOF 4
