REMARK  Name = *****
REMARK  4 active torsions:
REMARK  status: ('A' for Active; 'I' for Inactive)
REMARK    1  A    between atoms: C_4  and  C_7
REMARK    2  A    between atoms: C_7  and  S_8
REMARK    3  A    between atoms: S_8  and  C_9
REMARK    4  A    between atoms: C_10  and  C_14
REMARK                            x       y       z     vdW  Elec       q    Type
REMARK                         _______ _______ _______ _____ _____    ______ ____
ROOT
ATOM      1  S   UNL     1      -3.759  -1.262  -0.186  0.00  0.00    +0.000 S 
ENDROOT
BRANCH   1   2
ATOM      2  C   UNL     1      -5.402  -0.688  -0.450  0.00  0.00    +0.000 A 
ATOM      3  C   UNL     1      -6.195   0.005   0.444  0.00  0.00    +0.000 A 
ATOM      4  S   UNL     1      -7.747   0.324  -0.224  0.00  0.00    +0.000 S 
ATOM      5  C   UNL     1      -7.358  -0.465  -1.687  0.00  0.00    +0.000 A 
ATOM      6  C   UNL     1      -6.076  -0.967  -1.675  0.00  0.00    +0.000 A 
BRANCH   3   7
ATOM      7  C   UNL     1      -5.929   0.478   1.785  0.00  0.00    +0.000 C 
ATOM      8  O   UNL     1      -4.843   0.449   2.362  0.00  0.00    +0.000 OA
ENDBRANCH   3   7
ENDBRANCH   1   2
BRANCH   1   9
ATOM      9  C   UNL     1      -2.843   0.301  -0.341  0.00  0.00    +0.000 C 
BRANCH   9  13
ATOM     10  C   UNL     1       1.360  -0.267   0.441  0.00  0.00    +0.000 A 
ATOM     11  C   UNL     1       0.884  -0.315  -0.868  0.00  0.00    +0.000 A 
ATOM     12  C   UNL     1      -0.476  -0.130  -1.125  0.00  0.00    +0.000 A 
ATOM     13  C   UNL     1      -1.372   0.110  -0.073  0.00  0.00    +0.000 A 
ATOM     14  C   UNL     1      -0.882   0.146   1.241  0.00  0.00    +0.000 A 
ATOM     15  C   UNL     1       0.478  -0.039   1.495  0.00  0.00    +0.000 A 
ENDBRANCH   9  13
ENDBRANCH   1   9
TORSDOF 4
