REMARK  Name = *****
REMARK  5 active torsions:
REMARK  status: ('A' for Active; 'I' for Inactive)
REMARK    1  A    between atoms: C_1  and  C_2
REMARK    2  A    between atoms: C_8  and  C_9
REMARK    3  A    between atoms: C_8  and  O_10
REMARK    4  A    between atoms: O_10  and  C_11
REMARK    5  A    between atoms: C_11  and  C_13
REMARK                            x       y       z     vdW  Elec       q    Type
REMARK                         _______ _______ _______ _____ _____    ______ ____
ROOT
ATOM      1  C   UNL     1       0.949   0.436   0.078  0.00  0.00    +0.000 C 
ATOM      2  C   UNL     1       2.411   0.011  -0.035  0.00  0.00    +0.000 C 
ATOM      3  C   UNL     1       3.282   1.076  -0.780  0.00  0.00    +0.000 C 
ATOM      4  C   UNL     1       3.884   1.505   0.563  0.00  0.00    +0.000 C 
ATOM      5  C   UNL     1       3.284   0.251   1.230  0.00  0.00    +0.000 C 
ATOM      6  C   UNL     1       4.167  -0.985   1.404  0.00  0.00    +0.000 C 
ATOM      7  C   UNL     1       4.090  -1.724   0.071  0.00  0.00    +0.000 C 
ATOM      8  C   UNL     1       2.641  -1.488  -0.389  0.00  0.00    +0.000 C 
ATOM      9  C   UNL     1       2.406  -1.739  -1.878  0.00  0.00    +0.000 C 
ENDROOT
BRANCH   8  10
ATOM     10  O   UNL     1       1.715  -2.261   0.422  0.00  0.00    +0.000 OA
BRANCH  10  11
ATOM     11  C   UNL     1       1.725  -3.614   0.380  0.00  0.00    +0.000 C 
ATOM     12  O   UNL     1       2.450  -4.316  -0.305  0.00  0.00    +0.000 OA
BRANCH  11  13
ATOM     13  C   UNL     1       0.695  -4.165   1.302  0.00  0.00    +0.000 A 
ATOM     14  C   UNL     1      -0.040  -3.357   2.181  0.00  0.00    +0.000 A 
ATOM     15  C   UNL     1      -0.993  -3.928   3.029  0.00  0.00    +0.000 A 
ATOM     16  C   UNL     1      -1.216  -5.304   3.005  0.00  0.00    +0.000 A 
ATOM     17  C   UNL     1      -0.487  -6.115   2.136  0.00  0.00    +0.000 A 
ATOM     18  C   UNL     1       0.467  -5.548   1.288  0.00  0.00    +0.000 A 
ENDBRANCH  11  13
ENDBRANCH  10  11
ENDBRANCH   8  10
TORSDOF 3
