REMARK  Name = *****
REMARK  2 active torsions:
REMARK  status: ('A' for Active; 'I' for Inactive)
REMARK    1  A    between atoms: C_4  and  N_7
REMARK    2  A    between atoms: C_8  and  C_9
REMARK                            x       y       z     vdW  Elec       q    Type
REMARK                         _______ _______ _______ _____ _____    ______ ____
ROOT
ATOM      1  N   UNL     1      -2.714   0.440  -0.707  0.00  0.00    +0.000 NA
ATOM      2  C   UNL     1      -3.580  -0.374  -0.184  0.00  0.00    +0.000 C 
ENDROOT
BRANCH   2   3
ATOM      3  C   UNL     1      -5.030  -0.241  -0.450  0.00  0.00    +0.000 A 
ATOM      4  C   UNL     1      -5.473   0.807  -1.271  0.00  0.00    +0.000 A 
ATOM      5  C   UNL     1      -6.833   0.966  -1.544  0.00  0.00    +0.000 A 
ATOM      6  C   UNL     1      -7.760   0.081  -0.999  0.00  0.00    +0.000 A 
ATOM      7  C   UNL     1      -7.327  -0.964  -0.181  0.00  0.00    +0.000 A 
ATOM      8  C   UNL     1      -5.965  -1.129   0.097  0.00  0.00    +0.000 A 
ATOM      9 CL   UNL     1      -5.524  -2.452   1.118  0.00  0.00    +0.000 Cl
ENDBRANCH   2   3
BRANCH   1  13
ATOM     10  C   UNL     1       1.313  -0.244   0.276  0.00  0.00    +0.000 A 
ATOM     11  C   UNL     1       0.733  -0.921  -0.796  0.00  0.00    +0.000 A 
ATOM     12  C   UNL     1      -0.605  -0.694  -1.123  0.00  0.00    +0.000 A 
ATOM     13  C   UNL     1      -1.374   0.201  -0.374  0.00  0.00    +0.000 A 
ATOM     14  C   UNL     1      -0.782   0.888   0.689  0.00  0.00    +0.000 A 
ATOM     15  C   UNL     1       0.557   0.663   1.017  0.00  0.00    +0.000 A 
ENDBRANCH   1  13
TORSDOF 2
