REMARK  Name = *****
REMARK  5 active torsions:
REMARK  status: ('A' for Active; 'I' for Inactive)
REMARK    1  A    between atoms: C_1  and  C_2
REMARK    2  A    between atoms: C_2  and  C_3
REMARK    3  A    between atoms: C_2  and  O_8
REMARK    4  A    between atoms: O_8  and  C_9
REMARK    5  A    between atoms: C_9  and  C_11
REMARK                            x       y       z     vdW  Elec       q    Type
REMARK                         _______ _______ _______ _____ _____    ______ ____
ROOT
ATOM      1  O   UNL     1       2.998   0.886   0.667  0.00  0.00    +0.000 OA
ENDROOT
BRANCH   1   3
ATOM      2  C   UNL     1       2.311  -1.426   0.805  0.00  0.00    +0.000 C 
ATOM      3  C   UNL     1       2.523  -0.227  -0.116  0.00  0.00    +0.000 C 
BRANCH   3   4
ATOM      4  C   UNL     1       1.219   0.176  -0.824  0.00  0.00    +0.000 C 
ATOM      5  C   UNL     1       1.386   1.367  -1.771  0.00  0.00    +0.000 C 
ATOM      6  C   UNL     1      -0.045   1.802  -2.063  0.00  0.00    +0.000 C 
ATOM      7  C   UNL     1      -0.859   1.414  -0.830  0.00  0.00    +0.000 C 
ATOM      8  C   UNL     1       0.097   0.665   0.096  0.00  0.00    +0.000 C 
ENDBRANCH   3   4
ENDBRANCH   1   3
BRANCH   1   9
ATOM      9  C   UNL     1       4.339   0.928   0.914  0.00  0.00    +0.000 C 
ATOM     10  O   UNL     1       5.153   0.108   0.514  0.00  0.00    +0.000 OA
BRANCH   9  11
ATOM     11  C   UNL     1       4.666   2.153   1.751  0.00  0.00    +0.000 C 
ATOM     12  C   UNL     1       6.181   2.387   1.811  0.00  0.00    +0.000 C 
ATOM     13  C   UNL     1       6.534   3.576   2.701  0.00  0.00    +0.000 C 
ATOM     14  C   UNL     1       5.947   3.421   4.100  0.00  0.00    +0.000 C 
ATOM     15  C   UNL     1       4.440   3.187   4.053  0.00  0.00    +0.000 C 
ATOM     16  C   UNL     1       4.080   2.002   3.160  0.00  0.00    +0.000 C 
ENDBRANCH   9  11
ENDBRANCH   1   9
TORSDOF 4
