REMARK  Name = *****
REMARK  4 active torsions:
REMARK  status: ('A' for Active; 'I' for Inactive)
REMARK    1  A    between atoms: C_1  and  C_2
REMARK    2  A    between atoms: C_7  and  S_8
REMARK    3  A    between atoms: S_8  and  C_9
REMARK    4  A    between atoms: C_9  and  C_10
REMARK                            x       y       z     vdW  Elec       q    Type
REMARK                         _______ _______ _______ _____ _____    ______ ____
ROOT
ATOM      1  S   UNL     1       1.000  -2.842  -0.305  0.00  0.00    +0.000 S 
ENDROOT
BRANCH   1   8
ATOM      2  C   UNL     1       0.981  -0.491  -2.445  0.00  0.00    +0.000 C 
ATOM      3  C   UNL     1       0.436  -0.199  -1.074  0.00  0.00    +0.000 A 
ATOM      4  C   UNL     1      -0.054   1.088  -0.796  0.00  0.00    +0.000 A 
ATOM      5  C   UNL     1      -0.580   1.400   0.458  0.00  0.00    +0.000 A 
ATOM      6  C   UNL     1      -0.627   0.429   1.453  0.00  0.00    +0.000 A 
ATOM      7  C   UNL     1      -0.143  -0.853   1.195  0.00  0.00    +0.000 A 
ATOM      8  C   UNL     1       0.396  -1.175  -0.059  0.00  0.00    +0.000 A 
ENDBRANCH   1   8
BRANCH   1   9
ATOM      9  C   UNL     1       2.687  -2.614   0.345  0.00  0.00    +0.000 C 
BRANCH   9  10
ATOM     10  C   UNL     1       3.497  -3.881   0.238  0.00  0.00    +0.000 A 
ATOM     11  C   UNL     1       4.228  -4.164  -0.926  0.00  0.00    +0.000 A 
ATOM     12  C   UNL     1       4.970  -5.342  -1.028  0.00  0.00    +0.000 A 
ATOM     13  C   UNL     1       4.985  -6.251   0.028  0.00  0.00    +0.000 A 
ATOM     14  C   UNL     1       4.256  -5.986   1.186  0.00  0.00    +0.000 A 
ATOM     15  C   UNL     1       3.513  -4.809   1.290  0.00  0.00    +0.000 A 
ENDBRANCH   9  10
ENDBRANCH   1   9
TORSDOF 3
