REMARK  Name = *****
REMARK  1 active torsions:
REMARK  status: ('A' for Active; 'I' for Inactive)
REMARK    1  A    between atoms: C_6  and  C_7
REMARK                            x       y       z     vdW  Elec       q    Type
REMARK                         _______ _______ _______ _____ _____    ______ ____
ROOT
ATOM      1  C   UNL     1       1.159  -1.594   0.301  0.00  0.00    +0.000 C 
ATOM      2  C   UNL     1       2.151  -1.279  -0.817  0.00  0.00    +0.000 C 
ATOM      3  S   UNL     1       3.211   0.164  -0.477  0.00  0.00    +0.000 S 
ATOM      4  C   UNL     1       1.966   1.487  -0.504  0.00  0.00    +0.000 C 
ATOM      5  C   UNL     1       0.997   1.375   0.642  0.00  0.00    +0.000 C 
ATOM      6  C   UNL     1       1.093   2.002   1.832  0.00  0.00    +0.000 C 
ATOM      7  C   UNL     1      -0.210   0.564   0.379  0.00  0.00    +0.000 A 
ATOM      8  C   UNL     1      -1.453   1.214   0.289  0.00  0.00    +0.000 A 
ATOM      9  C   UNL     1      -2.619   0.496   0.022  0.00  0.00    +0.000 A 
ATOM     10  C   UNL     1      -2.555  -0.881  -0.159  0.00  0.00    +0.000 A 
ATOM     11  C   UNL     1      -1.328  -1.538  -0.073  0.00  0.00    +0.000 A 
ATOM     12  C   UNL     1      -0.143  -0.829   0.194  0.00  0.00    +0.000 A 
ENDROOT
BRANCH   6  13
ATOM     13  C   UNL     1       2.192   2.886   2.226  0.00  0.00    +0.000 A 
ATOM     14  C   UNL     1       1.993   4.271   2.248  0.00  0.00    +0.000 A 
ATOM     15  C   UNL     1       3.033   5.124   2.622  0.00  0.00    +0.000 A 
ATOM     16  C   UNL     1       4.274   4.598   2.977  0.00  0.00    +0.000 A 
ATOM     17  C   UNL     1       4.477   3.219   2.961  0.00  0.00    +0.000 A 
ATOM     18  C   UNL     1       3.438   2.364   2.588  0.00  0.00    +0.000 A 
ENDBRANCH   6  13
TORSDOF 1
