REMARK  Name = *****
REMARK  3 active torsions:
REMARK  status: ('A' for Active; 'I' for Inactive)
REMARK    1  A    between atoms: C_1  and  C_2
REMARK    2  A    between atoms: C_2  and  C_11
REMARK    3  A    between atoms: N_3  and  C_4
REMARK                            x       y       z     vdW  Elec       q    Type
REMARK                         _______ _______ _______ _____ _____    ______ ____
ROOT
ATOM      1  C   UNL     1       1.037  -0.422   0.616  0.00  0.00    +0.000 C 
ATOM      2  C   UNL     1       2.451  -0.096   0.162  0.00  0.00    +0.000 C 
ATOM      3  N   UNL     1       3.082  -0.734  -0.783  0.00  0.00    +0.000 NA
ENDROOT
BRANCH   3   4
ATOM      4  C   UNL     1       2.461  -1.765  -1.503  0.00  0.00    +0.000 A 
ATOM      5  C   UNL     1       2.896  -3.080  -1.319  0.00  0.00    +0.000 A 
ATOM      6  C   UNL     1       2.323  -4.128  -2.047  0.00  0.00    +0.000 A 
ATOM      7  C   UNL     1       1.316  -3.866  -2.978  0.00  0.00    +0.000 A 
ATOM      8  C   UNL     1       0.885  -2.557  -3.185  0.00  0.00    +0.000 A 
ATOM      9  C   UNL     1       1.462  -1.519  -2.456  0.00  0.00    +0.000 A 
ATOM     10  F   UNL     1       1.027  -0.267  -2.666  0.00  0.00    +0.000 F 
ENDBRANCH   3   4
BRANCH   2  11
ATOM     11  C   UNL     1       3.168   1.013   0.793  0.00  0.00    +0.000 A 
ATOM     12  C   UNL     1       4.491   1.375   0.595  0.00  0.00    +0.000 A 
ATOM     13  C   UNL     1       4.877   2.514   1.357  0.00  0.00    +0.000 A 
ATOM     14  C   UNL     1       3.835   3.000   2.112  0.00  0.00    +0.000 A 
ATOM     15  S   UNL     1       2.409   2.085   1.896  0.00  0.00    +0.000 S 
ENDBRANCH   2  11
TORSDOF 2
