REMARK  Name = *****
REMARK  3 active torsions:
REMARK  status: ('A' for Active; 'I' for Inactive)
REMARK    1  A    between atoms: C_4  and  C_7
REMARK    2  A    between atoms: C_8  and  C_9
REMARK    3  A    between atoms: C_11  and  C_14
REMARK                            x       y       z     vdW  Elec       q    Type
REMARK                         _______ _______ _______ _____ _____    ______ ____
ROOT
ATOM      1  C   UNL     1      -2.792   0.500  -0.363  0.00  0.00    +0.000 C 
ATOM      2  C   UNL     1      -3.748  -0.443  -0.332  0.00  0.00    +0.000 C 
ENDROOT
BRANCH   1   6
ATOM      3  C   UNL     1       1.380  -0.226   0.247  0.00  0.00    +0.000 A 
ATOM      4  C   UNL     1       0.628  -1.130  -0.502  0.00  0.00    +0.000 A 
ATOM      5  C   UNL     1      -0.737  -0.909  -0.703  0.00  0.00    +0.000 A 
ATOM      6  C   UNL     1      -1.366   0.213  -0.148  0.00  0.00    +0.000 A 
ATOM      7  C   UNL     1      -0.596   1.124   0.588  0.00  0.00    +0.000 A 
ATOM      8  C   UNL     1       0.769   0.902   0.789  0.00  0.00    +0.000 A 
ENDBRANCH   1   6
BRANCH   2   9
ATOM      9  C   UNL     1      -5.129  -0.145  -0.535  0.00  0.00    +0.000 A 
ATOM     10  C   UNL     1      -5.780   1.055  -0.776  0.00  0.00    +0.000 A 
ATOM     11  C   UNL     1      -7.200   0.928  -0.924  0.00  0.00    +0.000 A 
ATOM     12  C   UNL     1      -7.591  -0.387  -0.792  0.00  0.00    +0.000 A 
ATOM     13  S   UNL     1      -6.276  -1.433  -0.495  0.00  0.00    +0.000 S 
BRANCH  11  14
ATOM     14  C   UNL     1      -8.128   2.017  -1.180  0.00  0.00    +0.000 C 
ATOM     15  O   UNL     1      -7.780   3.188  -1.295  0.00  0.00    +0.000 OA
ENDBRANCH  11  14
ENDBRANCH   2   9
TORSDOF 3
