REMARK  Name = *****
REMARK  4 active torsions:
REMARK  status: ('A' for Active; 'I' for Inactive)
REMARK    1  A    between atoms: C_4  and  N_7
REMARK    2  A    between atoms: N_7  and  C_8
REMARK    3  A    between atoms: C_8  and  C_9
REMARK    4  A    between atoms: C_9  and  C_10
REMARK                            x       y       z     vdW  Elec       q    Type
REMARK                         _______ _______ _______ _____ _____    ______ ____
ROOT
ATOM      1  C   UNL     1       3.489  -1.433   0.153  0.00  0.00    +0.000 C 
ENDROOT
BRANCH   1   2
ATOM      2  N   UNL     1       2.776  -0.713  -0.439  0.00  0.00    +0.000 NA
BRANCH   2   6
ATOM      3  C   UNL     1      -1.364   0.317  -0.189  0.00  0.00    +0.000 C 
ATOM      4  C   UNL     1      -0.963  -1.092   0.234  0.00  0.00    +0.000 C 
ATOM      5  C   UNL     1       0.438  -1.448  -0.256  0.00  0.00    +0.000 C 
ATOM      6  C   UNL     1       1.480  -0.417   0.201  0.00  0.00    +0.000 C 
ATOM      7  C   UNL     1       1.066   0.999  -0.220  0.00  0.00    +0.000 C 
ATOM      8  C   UNL     1      -0.338   1.351   0.265  0.00  0.00    +0.000 C 
ENDBRANCH   2   6
ENDBRANCH   1   2
BRANCH   1   9
ATOM      9  C   UNL     1       4.283  -2.247   0.783  0.00  0.00    +0.000 C 
BRANCH   9  10
ATOM     10  C   UNL     1       5.385  -1.830   1.660  0.00  0.00    +0.000 A 
ATOM     11  C   UNL     1       5.679  -0.484   1.920  0.00  0.00    +0.000 A 
ATOM     12  C   UNL     1       6.740  -0.133   2.760  0.00  0.00    +0.000 A 
ATOM     13  C   UNL     1       7.521  -1.124   3.350  0.00  0.00    +0.000 A 
ATOM     14  C   UNL     1       7.243  -2.465   3.102  0.00  0.00    +0.000 A 
ATOM     15  C   UNL     1       6.182  -2.816   2.263  0.00  0.00    +0.000 A 
ENDBRANCH   9  10
ENDBRANCH   1   9
TORSDOF 4
