REMARK  Name = *****
REMARK  4 active torsions:
REMARK  status: ('A' for Active; 'I' for Inactive)
REMARK    1  A    between atoms: C_1  and  O_2
REMARK    2  A    between atoms: O_2  and  C_3
REMARK    3  A    between atoms: C_7  and  C_9
REMARK    4  A    between atoms: C_10  and  C_11
REMARK                            x       y       z     vdW  Elec       q    Type
REMARK                         _______ _______ _______ _____ _____    ______ ____
ROOT
ATOM      1  C   UNL     1       6.242   1.663  -2.664  0.00  0.00    +0.000 C 
ATOM      2  C   UNL     1       7.045   2.635  -3.126  0.00  0.00    +0.000 C 
ENDROOT
BRANCH   2   3
ATOM      3  C   UNL     1       8.325   2.386  -3.803  0.00  0.00    +0.000 A 
ATOM      4  C   UNL     1       8.497   1.329  -4.710  0.00  0.00    +0.000 A 
ATOM      5  C   UNL     1       9.721   1.143  -5.359  0.00  0.00    +0.000 A 
ATOM      6  C   UNL     1      10.769   2.020  -5.110  0.00  0.00    +0.000 A 
ATOM      7  C   UNL     1      10.616   3.083  -4.228  0.00  0.00    +0.000 A 
ATOM      8  C   UNL     1       9.392   3.269  -3.579  0.00  0.00    +0.000 A 
ATOM      9  F   UNL     1      11.941   1.843  -5.733  0.00  0.00    +0.000 F 
ENDBRANCH   2   3
BRANCH   1  14
ATOM     10  C   UNL     1       3.363   1.215  -0.270  0.00  0.00    +0.000 A 
ATOM     11  C   UNL     1       2.515   2.257  -0.645  0.00  0.00    +0.000 A 
ATOM     12  C   UNL     1       2.882   3.115  -1.685  0.00  0.00    +0.000 A 
ATOM     13  C   UNL     1       4.098   2.938  -2.349  0.00  0.00    +0.000 A 
ATOM     14  C   UNL     1       4.968   1.909  -1.972  0.00  0.00    +0.000 A 
ATOM     15  C   UNL     1       4.580   1.046  -0.938  0.00  0.00    +0.000 A 
BRANCH  10  17
ATOM     16  C   UNL     1       1.893   0.421   1.423  0.00  0.00    +0.000 C 
ATOM     17  O   UNL     1       3.124   0.302   0.721  0.00  0.00    +0.000 OA
ENDBRANCH  10  17
ENDBRANCH   1  14
TORSDOF 3
