REMARK  Name = *****
REMARK  4 active torsions:
REMARK  status: ('A' for Active; 'I' for Inactive)
REMARK    1  A    between atoms: C_1  and  N_2
REMARK    2  A    between atoms: N_2  and  C_3
REMARK    3  A    between atoms: N_2  and  C_10
REMARK    4  A    between atoms: C_3  and  C_4
REMARK                            x       y       z     vdW  Elec       q    Type
REMARK                         _______ _______ _______ _____ _____    ______ ____
ROOT
ATOM      1  C   UNL     1       2.225   0.421  -1.313  0.00  0.00    +0.000 C 
ATOM      2  N   UNL     1       2.336  -0.210  -0.002  0.00  0.00    +0.000 N 
ENDROOT
BRANCH   2   3
ATOM      3  C   UNL     1       2.214  -1.593   0.128  0.00  0.00    +0.000 A 
ATOM      4  C   UNL     1       2.141  -2.453  -0.981  0.00  0.00    +0.000 A 
ATOM      5  C   UNL     1       2.005  -3.841  -0.839  0.00  0.00    +0.000 A 
ATOM      6  C   UNL     1       1.925  -4.409   0.426  0.00  0.00    +0.000 A 
ATOM      7  C   UNL     1       1.975  -3.588   1.544  0.00  0.00    +0.000 A 
ATOM      8  C   UNL     1       2.113  -2.202   1.392  0.00  0.00    +0.000 A 
ENDBRANCH   2   3
BRANCH   2   9
ATOM      9  C   UNL     1       3.073   0.551   1.014  0.00  0.00    +0.000 C 
BRANCH   9  10
ATOM     10  C   UNL     1       2.152   1.345   1.926  0.00  0.00    +0.000 C 
ATOM     11  C   UNL     1       0.804   1.326   1.884  0.00  0.00    +0.000 C 
ATOM     12  C   UNL     1      -0.083   2.145   2.774  0.00  0.00    +0.000 C 
ATOM     13  C   UNL     1       0.667   3.246   3.522  0.00  0.00    +0.000 C 
ATOM     14  C   UNL     1       1.992   2.728   4.066  0.00  0.00    +0.000 C 
ATOM     15  C   UNL     1       2.883   2.200   2.939  0.00  0.00    +0.000 C 
ENDBRANCH   9  10
ENDBRANCH   2   9
TORSDOF 3
