REMARK  Name = *****
REMARK  3 active torsions:
REMARK  status: ('A' for Active; 'I' for Inactive)
REMARK    1  A    between atoms: C_1  and  C_2
REMARK    2  A    between atoms: C_2  and  C_10
REMARK    3  A    between atoms: C_3  and  C_4
REMARK                            x       y       z     vdW  Elec       q    Type
REMARK                         _______ _______ _______ _____ _____    ______ ____
ROOT
ATOM      1  C   UNL     1       1.049  -0.200   0.078  0.00  0.00    +0.000 C 
ATOM      2  C   UNL     1       2.541   0.033   0.005  0.00  0.00    +0.000 C 
ATOM      3  C   UNL     1       3.115   0.878  -0.877  0.00  0.00    +0.000 C 
ENDROOT
BRANCH   3   4
ATOM      4  C   UNL     1       2.399   1.671  -1.878  0.00  0.00    +0.000 A 
ATOM      5  C   UNL     1       1.988   2.974  -1.580  0.00  0.00    +0.000 A 
ATOM      6  C   UNL     1       1.303   3.728  -2.535  0.00  0.00    +0.000 A 
ATOM      7  C   UNL     1       1.027   3.183  -3.789  0.00  0.00    +0.000 A 
ATOM      8  C   UNL     1       1.435   1.883  -4.090  0.00  0.00    +0.000 A 
ATOM      9  C   UNL     1       2.119   1.127  -3.136  0.00  0.00    +0.000 A 
ENDBRANCH   3   4
BRANCH   2  10
ATOM     10  C   UNL     1       3.333  -0.772   1.030  0.00  0.00    +0.000 C 
ATOM     11  C   UNL     1       4.733  -0.258   1.428  0.00  0.00    +0.000 C 
ATOM     12  C   UNL     1       5.744  -1.086   0.632  0.00  0.00    +0.000 C 
ATOM     13  C   UNL     1       4.967  -2.312   0.290  0.00  0.00    +0.000 C 
ATOM     14  C   UNL     1       3.658  -2.145   0.507  0.00  0.00    +0.000 C 
ENDBRANCH   2  10
TORSDOF 2
