REMARK  Name = *****
REMARK  7 active torsions:
REMARK  status: ('A' for Active; 'I' for Inactive)
REMARK    1  A    between atoms: C_1  and  C_2
REMARK    2  A    between atoms: C_5  and  N_8
REMARK    3  A    between atoms: N_8  and  S_9
REMARK    4  A    between atoms: S_9  and  C_11
REMARK    5  A    between atoms: S_9  and  O_18
REMARK    6  A    between atoms: C_14  and  C_17
REMARK    7  A    between atoms: O_18  and  C_19
REMARK                            x       y       z     vdW  Elec       q    Type
REMARK                         _______ _______ _______ _____ _____    ______ ____
ROOT
ATOM      1  S   UNL     1      -3.904   1.491  -0.113  0.00  0.00    +0.000 S 
ATOM      2  O   UNL     1      -3.920   2.452   0.970  0.00  0.00    +0.000 OA
ENDROOT
BRANCH   1   3
ATOM      3  C   UNL     1      -3.720   2.378  -1.640  0.00  0.00    +0.000 A 
ATOM      4  C   UNL     1      -4.082   1.759  -2.839  0.00  0.00    +0.000 A 
ATOM      5  C   UNL     1      -3.932   2.451  -4.042  0.00  0.00    +0.000 A 
ATOM      6  C   UNL     1      -3.435   3.762  -4.050  0.00  0.00    +0.000 A 
ATOM      7  C   UNL     1      -3.073   4.368  -2.838  0.00  0.00    +0.000 A 
ATOM      8  C   UNL     1      -3.218   3.681  -1.631  0.00  0.00    +0.000 A 
ATOM      9  C   UNL     1      -3.244   4.500  -5.342  0.00  0.00    +0.000 C 
ENDBRANCH   1   3
BRANCH   1  10
ATOM     10  O   UNL     1      -5.379   0.815  -0.225  0.00  0.00    +0.000 OA
ATOM     11  C   UNL     1      -5.971   0.321   0.961  0.00  0.00    +0.000 C 
ENDBRANCH   1  10
BRANCH   1  12
ATOM     12  N   UNL     1      -3.074   0.209  -0.216  0.00  0.00    +0.000 NA
BRANCH  12  17
ATOM     13  C   UNL     1       2.628  -0.303   0.249  0.00  0.00    +0.000 C 
ATOM     14  C   UNL     1       1.143  -0.136   0.117  0.00  0.00    +0.000 A 
ATOM     15  C   UNL     1       0.528   1.071   0.470  0.00  0.00    +0.000 A 
ATOM     16  C   UNL     1      -0.861   1.218   0.374  0.00  0.00    +0.000 A 
ATOM     17  C   UNL     1      -1.655   0.158  -0.070  0.00  0.00    +0.000 A 
ATOM     18  C   UNL     1      -1.043  -1.053  -0.394  0.00  0.00    +0.000 A 
ATOM     19  C   UNL     1       0.344  -1.204  -0.301  0.00  0.00    +0.000 A 
ENDBRANCH  12  17
ENDBRANCH   1  12
TORSDOF 4
