REMARK  Name = *****
REMARK  3 active torsions:
REMARK  status: ('A' for Active; 'I' for Inactive)
REMARK    1  A    between atoms: C_1  and  C_2
REMARK    2  A    between atoms: C_4  and  C_8
REMARK    3  A    between atoms: C_9  and  C_10
REMARK                            x       y       z     vdW  Elec       q    Type
REMARK                         _______ _______ _______ _____ _____    ______ ____
ROOT
ATOM      1  C   UNL     1       0.939   0.057   0.126  0.00  0.00    +0.000 C 
ATOM      2  C   UNL     1       2.436   0.069   0.035  0.00  0.00    +0.000 A 
ATOM      3  C   UNL     1       3.127   1.272  -0.168  0.00  0.00    +0.000 A 
ATOM      4  C   UNL     1       4.520   1.278  -0.285  0.00  0.00    +0.000 A 
ATOM      5  C   UNL     1       5.231   0.079  -0.211  0.00  0.00    +0.000 A 
ATOM      6  C   UNL     1       4.550  -1.124  -0.025  0.00  0.00    +0.000 A 
ATOM      7  C   UNL     1       3.159  -1.130   0.092  0.00  0.00    +0.000 A 
ENDROOT
BRANCH   4   8
ATOM      8  C   UNL     1       5.217   2.511  -0.483  0.00  0.00    +0.000 C 
ATOM      9  C   UNL     1       5.806   3.545  -0.648  0.00  0.00    +0.000 C 
BRANCH   9  10
ATOM     10  C   UNL     1       6.507   4.771  -0.843  0.00  0.00    +0.000 A 
ATOM     11  C   UNL     1       5.968   6.026  -0.657  0.00  0.00    +0.000 A 
ATOM     12  C   UNL     1       6.909   7.063  -0.928  0.00  0.00    +0.000 A 
ATOM     13  C   UNL     1       8.132   6.560  -1.312  0.00  0.00    +0.000 A 
ATOM     14  S   UNL     1       8.140   4.849  -1.343  0.00  0.00    +0.000 S 
ENDBRANCH   9  10
ENDBRANCH   4   8
TORSDOF 2
