REMARK  Name = *****
REMARK  2 active torsions:
REMARK  status: ('A' for Active; 'I' for Inactive)
REMARK    1  A    between atoms: C_4  and  C_7
REMARK    2  A    between atoms: C_7  and  N_8
REMARK                            x       y       z     vdW  Elec       q    Type
REMARK                         _______ _______ _______ _____ _____    ______ ____
ROOT
ATOM      1  N   UNL     1      -4.682  -0.969  -0.689  0.00  0.00    +0.000 N 
ATOM      2  C   UNL     1      -5.168  -1.427   0.509  0.00  0.00    +0.000 A 
ATOM      3  C   UNL     1      -5.018  -1.021   1.840  0.00  0.00    +0.000 A 
ATOM      4  C   UNL     1      -5.689  -1.778   2.813  0.00  0.00    +0.000 A 
ATOM      5  C   UNL     1      -6.471  -2.887   2.456  0.00  0.00    +0.000 A 
ATOM      6  C   UNL     1      -6.604  -3.271   1.114  0.00  0.00    +0.000 A 
ATOM      7  C   UNL     1      -5.938  -2.522   0.136  0.00  0.00    +0.000 A 
ATOM      8  N   UNL     1      -5.898  -2.672  -1.223  0.00  0.00    +0.000 NA
ATOM      9  N   UNL     1      -5.133  -1.711  -1.722  0.00  0.00    +0.000 NA
ATOM     10 CL   UNL     1      -7.310  -3.837   3.635  0.00  0.00    +0.000 Cl
ATOM     11 CL   UNL     1      -5.502  -1.276   4.459  0.00  0.00    +0.000 Cl
ENDROOT
BRANCH   1  12
ATOM     12  C   UNL     1      -3.835   0.185  -0.941  0.00  0.00    +0.000 C 
BRANCH  12  16
ATOM     13  C   UNL     1       0.209  -0.397   0.449  0.00  0.00    +0.000 A 
ATOM     14  C   UNL     1      -0.337  -1.272  -0.488  0.00  0.00    +0.000 A 
ATOM     15  C   UNL     1      -1.644  -1.086  -0.940  0.00  0.00    +0.000 A 
ATOM     16  C   UNL     1      -2.424  -0.026  -0.451  0.00  0.00    +0.000 A 
ATOM     17  C   UNL     1      -1.858   0.855   0.483  0.00  0.00    +0.000 A 
ATOM     18  C   UNL     1      -0.550   0.666   0.932  0.00  0.00    +0.000 A 
ENDBRANCH  12  16
ENDBRANCH   1  12
TORSDOF 2
