REMARK  Name = *****
REMARK  2 active torsions:
REMARK  status: ('A' for Active; 'I' for Inactive)
REMARK    1  A    between atoms: C_2  and  C_11
REMARK    2  A    between atoms: N_3  and  C_4
REMARK                            x       y       z     vdW  Elec       q    Type
REMARK                         _______ _______ _______ _____ _____    ______ ____
ROOT
ATOM      1  C   UNL     1      -0.256   0.566   0.237  0.00  0.00    +0.000 C 
ATOM      2  C   UNL     1       0.467  -0.772   0.281  0.00  0.00    +0.000 C 
ATOM      3  N   UNL     1      -0.930  -0.635   0.702  0.00  0.00    +0.000 N 
ENDROOT
BRANCH   3   4
ATOM      4  C   UNL     1      -1.953  -1.210  -0.088  0.00  0.00    +0.000 A 
ATOM      5  C   UNL     1      -1.913  -2.568  -0.435  0.00  0.00    +0.000 A 
ATOM      6  C   UNL     1      -2.944  -3.146  -1.183  0.00  0.00    +0.000 A 
ATOM      7  C   UNL     1      -4.033  -2.371  -1.571  0.00  0.00    +0.000 A 
ATOM      8  C   UNL     1      -4.105  -1.028  -1.211  0.00  0.00    +0.000 A 
ATOM      9  C   UNL     1      -3.073  -0.454  -0.464  0.00  0.00    +0.000 A 
ATOM     10 CL   UNL     1      -5.303  -3.080  -2.490  0.00  0.00    +0.000 Cl
ENDBRANCH   3   4
BRANCH   2  11
ATOM     11  C   UNL     1       1.509  -1.019   1.340  0.00  0.00    +0.000 A 
ATOM     12  C   UNL     1       1.292  -1.918   2.398  0.00  0.00    +0.000 A 
ATOM     13  C   UNL     1       2.271  -2.154   3.368  0.00  0.00    +0.000 A 
ATOM     14  C   UNL     1       3.494  -1.495   3.297  0.00  0.00    +0.000 A 
ATOM     15  C   UNL     1       3.738  -0.602   2.257  0.00  0.00    +0.000 A 
ATOM     16  C   UNL     1       2.755  -0.370   1.291  0.00  0.00    +0.000 A 
ENDBRANCH   2  11
TORSDOF 2
