REMARK  Name = *****
REMARK  6 active torsions:
REMARK  status: ('A' for Active; 'I' for Inactive)
REMARK    1  A    between atoms: C_1  and  C_2
REMARK    2  A    between atoms: C_6  and  C_16
REMARK    3  A    between atoms: C_7  and  C_8
REMARK    4  A    between atoms: C_7  and  C_9
REMARK    5  A    between atoms: C_9  and  C_10
REMARK    6  A    between atoms: C_10  and  C_11
REMARK                            x       y       z     vdW  Elec       q    Type
REMARK                         _______ _______ _______ _____ _____    ______ ____
ROOT
ATOM      1  C   UNL     1       1.657   0.356   1.189  0.00  0.00    +0.000 C 
ATOM      2  C   UNL     1       2.708   0.172   0.085  0.00  0.00    +0.000 C 
ATOM      3  C   UNL     1       2.326   1.060  -1.113  0.00  0.00    +0.000 C 
ATOM      4  C   UNL     1       3.389   1.045  -2.204  0.00  0.00    +0.000 C 
ATOM      5  C   UNL     1       4.128  -0.249  -2.333  0.00  0.00    +0.000 C 
ATOM      6  C   UNL     1       3.985  -1.318  -1.524  0.00  0.00    +0.000 C 
ATOM      7  C   UNL     1       2.971  -1.328  -0.357  0.00  0.00    +0.000 C 
ATOM      8  C   UNL     1       3.555  -2.083   0.864  0.00  0.00    +0.000 C 
ATOM      9  C   UNL     1       4.904  -2.500  -1.730  0.00  0.00    +0.000 C 
ENDROOT
BRANCH   7  10
ATOM     10  C   UNL     1       1.624  -2.003  -0.785  0.00  0.00    +0.000 C 
BRANCH  10  11
ATOM     11  C   UNL     1       1.693  -3.439  -1.319  0.00  0.00    +0.000 C 
BRANCH  11  12
ATOM     12  C   UNL     1       0.332  -4.026  -1.518  0.00  0.00    +0.000 A 
ATOM     13  C   UNL     1      -0.442  -3.970  -2.660  0.00  0.00    +0.000 A 
ATOM     14  O   UNL     1      -1.623  -4.612  -2.475  0.00  0.00    +0.000 OA
ATOM     15  C   UNL     1      -1.617  -5.090  -1.206  0.00  0.00    +0.000 A 
ATOM     16  C   UNL     1      -0.441  -4.759  -0.575  0.00  0.00    +0.000 A 
ENDBRANCH  11  12
ENDBRANCH  10  11
ENDBRANCH   7  10
TORSDOF 3
