REMARK  Name = *****
REMARK  5 active torsions:
REMARK  status: ('A' for Active; 'I' for Inactive)
REMARK    1  A    between atoms: C_1  and  O_2
REMARK    2  A    between atoms: O_2  and  C_3
REMARK    3  A    between atoms: C_6  and  C_9
REMARK    4  A    between atoms: C_9  and  C_10
REMARK    5  A    between atoms: C_10  and  C_11
REMARK                            x       y       z     vdW  Elec       q    Type
REMARK                         _______ _______ _______ _____ _____    ______ ____
ROOT
ATOM      1  C   UNL     1       4.944  -3.154  -3.748  0.00  0.00    +0.000 C 
ATOM      2 CL   UNL     1       4.237  -3.129  -5.394  0.00  0.00    +0.000 Cl
ENDROOT
BRANCH   1   6
ATOM      3  C   UNL     1       2.522  -0.766  -1.045  0.00  0.00    +0.000 A 
ATOM      4  C   UNL     1       3.842  -0.412  -1.317  0.00  0.00    +0.000 A 
ATOM      5  C   UNL     1       4.613  -1.184  -2.195  0.00  0.00    +0.000 A 
ATOM      6  C   UNL     1       4.079  -2.324  -2.815  0.00  0.00    +0.000 A 
ATOM      7  C   UNL     1       2.749  -2.671  -2.534  0.00  0.00    +0.000 A 
ATOM      8  C   UNL     1       1.983  -1.898  -1.658  0.00  0.00    +0.000 A 
BRANCH   3  10
ATOM      9  C   UNL     1       2.153   1.082   0.403  0.00  0.00    +0.000 C 
ATOM     10  O   UNL     1       1.665  -0.103  -0.212  0.00  0.00    +0.000 OA
ENDBRANCH   3  10
ENDBRANCH   1   6
BRANCH   1  11
ATOM     11  C   UNL     1       5.119  -4.595  -3.235  0.00  0.00    +0.000 C 
BRANCH  11  12
ATOM     12  C   UNL     1       6.155  -5.422  -4.013  0.00  0.00    +0.000 C 
ATOM     13  S   UNL     1       7.860  -4.774  -3.935  0.00  0.00    +0.000 S 
ATOM     14  C   UNL     1       8.246  -5.047  -2.183  0.00  0.00    +0.000 C 
ATOM     15  C   UNL     1       8.165  -6.510  -1.774  0.00  0.00    +0.000 C 
ATOM     16  C   UNL     1       6.762  -7.096  -1.844  0.00  0.00    +0.000 C 
ATOM     17  S   UNL     1       6.114  -7.187  -3.536  0.00  0.00    +0.000 S 
ENDBRANCH  11  12
ENDBRANCH   1  11
TORSDOF 4
