REMARK  Name = *****
REMARK  2 active torsions:
REMARK  status: ('A' for Active; 'I' for Inactive)
REMARK    1  A    between atoms: C_10  and  S_11
REMARK    2  A    between atoms: S_11  and  C_12
REMARK                            x       y       z     vdW  Elec       q    Type
REMARK                         _______ _______ _______ _____ _____    ______ ____
ROOT
ATOM      1  C   UNL     1       0.416  -2.527   0.744  0.00  0.00    +0.000 C 
ATOM      2  C   UNL     1       1.300  -3.264  -0.208  0.00  0.00    +0.000 C 
ATOM      3  C   UNL     1       2.330  -2.527  -0.636  0.00  0.00    +0.000 C 
ATOM      4  C   UNL     1       2.342  -1.159  -0.032  0.00  0.00    +0.000 C 
ATOM      5  C   UNL     1       1.069  -1.146   0.883  0.00  0.00    +0.000 C 
ATOM      6  C   UNL     1       0.244   0.028   0.289  0.00  0.00    +0.000 C 
ATOM      7  C   UNL     1       0.543  -0.078  -1.212  0.00  0.00    +0.000 C 
ATOM      8  C   UNL     1       2.064   0.007  -1.016  0.00  0.00    +0.000 C 
ATOM      9  C   UNL     1       2.112   1.290  -0.213  0.00  0.00    +0.000 C 
ATOM     10  C   UNL     1       1.016   1.304   0.562  0.00  0.00    +0.000 C 
ENDROOT
BRANCH  10  11
ATOM     11  S   UNL     1       0.565   2.473   1.720  0.00  0.00    +0.000 S 
BRANCH  11  12
ATOM     12  C   UNL     1       0.524   3.929   0.689  0.00  0.00    +0.000 A 
ATOM     13  C   UNL     1      -0.449   4.079  -0.305  0.00  0.00    +0.000 A 
ATOM     14  C   UNL     1      -0.477   5.230  -1.096  0.00  0.00    +0.000 A 
ATOM     15  C   UNL     1       0.464   6.238  -0.894  0.00  0.00    +0.000 A 
ATOM     16  C   UNL     1       1.431   6.099   0.101  0.00  0.00    +0.000 A 
ATOM     17  C   UNL     1       1.459   4.949   0.893  0.00  0.00    +0.000 A 
ENDBRANCH  11  12
ENDBRANCH  10  11
TORSDOF 2
