REMARK  Name = *****
REMARK  4 active torsions:
REMARK  status: ('A' for Active; 'I' for Inactive)
REMARK    1  A    between atoms: C_1  and  C_2
REMARK    2  A    between atoms: C_5  and  S_8
REMARK    3  A    between atoms: S_8  and  C_9
REMARK    4  A    between atoms: C_9  and  C_10
REMARK                            x       y       z     vdW  Elec       q    Type
REMARK                         _______ _______ _______ _____ _____    ______ ____
ROOT
ATOM      1  S   UNL     1      -2.622   0.525  -1.319  0.00  0.00    +0.000 S 
ENDROOT
BRANCH   1   6
ATOM      2  C   UNL     1       2.185   2.722   1.718  0.00  0.00    +0.000 C 
ATOM      3  C   UNL     1       0.987   2.209   0.975  0.00  0.00    +0.000 A 
ATOM      4  C   UNL     1      -0.179   1.856   1.664  0.00  0.00    +0.000 A 
ATOM      5  C   UNL     1      -1.283   1.346   0.975  0.00  0.00    +0.000 A 
ATOM      6  C   UNL     1      -1.235   1.180  -0.411  0.00  0.00    +0.000 A 
ATOM      7  C   UNL     1      -0.062   1.502  -1.097  0.00  0.00    +0.000 A 
ATOM      8  C   UNL     1       1.043   2.013  -0.409  0.00  0.00    +0.000 A 
ENDBRANCH   1   6
BRANCH   1   9
ATOM      9  C   UNL     1      -3.859   1.814  -0.951  0.00  0.00    +0.000 C 
BRANCH   9  10
ATOM     10  C   UNL     1      -5.123   1.610  -1.748  0.00  0.00    +0.000 A 
ATOM     11  C   UNL     1      -6.158   0.804  -1.251  0.00  0.00    +0.000 A 
ATOM     12  C   UNL     1      -7.323   0.609  -1.995  0.00  0.00    +0.000 A 
ATOM     13  C   UNL     1      -7.464   1.212  -3.243  0.00  0.00    +0.000 A 
ATOM     14  C   UNL     1      -6.438   2.007  -3.752  0.00  0.00    +0.000 A 
ATOM     15  C   UNL     1      -5.272   2.203  -3.011  0.00  0.00    +0.000 A 
ENDBRANCH   9  10
ENDBRANCH   1   9
TORSDOF 3
