REMARK  Name = *****
REMARK  4 active torsions:
REMARK  status: ('A' for Active; 'I' for Inactive)
REMARK    1  A    between atoms: C_4  and  S_7
REMARK    2  A    between atoms: S_7  and  S_8
REMARK    3  A    between atoms: S_8  and  C_9
REMARK    4  A    between atoms: C_14  and  C_15
REMARK                            x       y       z     vdW  Elec       q    Type
REMARK                         _______ _______ _______ _____ _____    ______ ____
ROOT
ATOM      1  S   UNL     1      -3.925   0.355  -2.530  0.00  0.00    +0.000 S 
ENDROOT
BRANCH   1   2
ATOM      2  C   UNL     1      -5.231  -0.200  -1.439  0.00  0.00    +0.000 A 
ATOM      3  C   UNL     1      -5.046  -1.413  -0.757  0.00  0.00    +0.000 A 
ATOM      4  C   UNL     1      -6.027  -1.902   0.108  0.00  0.00    +0.000 A 
ATOM      5  C   UNL     1      -7.208  -1.189   0.296  0.00  0.00    +0.000 A 
ATOM      6  C   UNL     1      -7.409   0.013  -0.382  0.00  0.00    +0.000 A 
ATOM      7  C   UNL     1      -6.427   0.514  -1.252  0.00  0.00    +0.000 A 
BRANCH   7   8
ATOM      8  C   UNL     1      -6.689   1.752  -1.930  0.00  0.00    +0.000 C 
ATOM      9  N   UNL     1      -6.935   2.753  -2.464  0.00  0.00    +0.000 NA
ENDBRANCH   7   8
ENDBRANCH   1   2
BRANCH   1  10
ATOM     10  S   UNL     1      -2.805   1.532  -1.265  0.00  0.00    +0.000 S 
BRANCH  10  14
ATOM     11  C   UNL     1      -0.116  -1.555   0.793  0.00  0.00    +0.000 A 
ATOM     12  C   UNL     1       0.103  -1.227  -0.544  0.00  0.00    +0.000 A 
ATOM     13  C   UNL     1      -0.714  -0.286  -1.175  0.00  0.00    +0.000 A 
ATOM     14  C   UNL     1      -1.756   0.328  -0.472  0.00  0.00    +0.000 A 
ATOM     15  C   UNL     1      -1.964   0.001   0.872  0.00  0.00    +0.000 A 
ATOM     16  C   UNL     1      -1.147  -0.941   1.502  0.00  0.00    +0.000 A 
ENDBRANCH  10  14
ENDBRANCH   1  10
TORSDOF 4
