REMARK  Name = *****
REMARK  4 active torsions:
REMARK  status: ('A' for Active; 'I' for Inactive)
REMARK    1  A    between atoms: C_2  and  C_3
REMARK    2  A    between atoms: C_3  and  N_4
REMARK    3  A    between atoms: C_5  and  C_10
REMARK    4  A    between atoms: C_11  and  C_12
REMARK                            x       y       z     vdW  Elec       q    Type
REMARK                         _______ _______ _______ _____ _____    ______ ____
ROOT
ATOM      1  N   UNL     1       4.490   0.776  -0.760  0.00  0.00    +0.000 NA
ATOM      2  C   UNL     1       5.255   1.821  -0.746  0.00  0.00    +0.000 C 
ATOM      3  C   UNL     1       6.747   1.723  -0.587  0.00  0.00    +0.000 C 
ATOM      4  C   UNL     1       7.236   0.380  -0.079  0.00  0.00    +0.000 C 
ATOM      5  C   UNL     1       6.503  -0.720  -0.821  0.00  0.00    +0.000 C 
ATOM      6  C   UNL     1       5.015  -0.620  -0.544  0.00  0.00    +0.000 C 
ENDROOT
BRANCH   2   7
ATOM      7  C   UNL     1       4.670   3.116  -0.973  0.00  0.00    +0.000 C 
ATOM      8  C   UNL     1       4.216   4.210  -1.176  0.00  0.00    +0.000 C 
BRANCH   8   9
ATOM      9  C   UNL     1       3.693   5.517  -1.431  0.00  0.00    +0.000 A 
ATOM     10  C   UNL     1       2.543   5.673  -2.210  0.00  0.00    +0.000 A 
ATOM     11  C   UNL     1       2.043   6.953  -2.468  0.00  0.00    +0.000 A 
ATOM     12  C   UNL     1       2.693   8.070  -1.947  0.00  0.00    +0.000 A 
ATOM     13  C   UNL     1       3.839   7.920  -1.168  0.00  0.00    +0.000 A 
ATOM     14  C   UNL     1       4.340   6.641  -0.909  0.00  0.00    +0.000 A 
ATOM     15 CL   UNL     1       2.080   9.643  -2.270  0.00  0.00    +0.000 Cl
ENDBRANCH   8   9
ENDBRANCH   2   7
BRANCH   1  16
ATOM     16  C   UNL     1       2.992   0.840  -0.931  0.00  0.00    +0.000 C 
BRANCH  16  18
ATOM     17  C   UNL     1       1.922  -0.285  -2.907  0.00  0.00    +0.000 C 
ATOM     18  C   UNL     1       2.614   0.733  -2.378  0.00  0.00    +0.000 C 
ENDBRANCH  16  18
ENDBRANCH   1  16
TORSDOF 4
