REMARK  Name = *****
REMARK  3 active torsions:
REMARK  status: ('A' for Active; 'I' for Inactive)
REMARK    1  A    between atoms: C_4  and  O_8
REMARK    2  A    between atoms: O_8  and  C_9
REMARK    3  A    between atoms: C_9  and  C_11
REMARK                            x       y       z     vdW  Elec       q    Type
REMARK                         _______ _______ _______ _____ _____    ______ ____
ROOT
ATOM      1  O   UNL     1       0.361   2.968  -0.449  0.00  0.00    +0.000 OA
ENDROOT
BRANCH   1   5
ATOM      2  C   UNL     1       0.454  -1.578  -0.202  0.00  0.00    +0.000 C 
ATOM      3  C   UNL     1       1.533  -0.583   0.212  0.00  0.00    +0.000 C 
ATOM      4  C   UNL     1       1.399   0.794  -0.433  0.00  0.00    +0.000 C 
ATOM      5  C   UNL     1       0.234   1.637   0.099  0.00  0.00    +0.000 C 
ATOM      6  C   UNL     1      -1.124   1.152  -0.335  0.00  0.00    +0.000 C 
ATOM      7  C   UNL     1      -1.618  -0.089  -0.219  0.00  0.00    +0.000 C 
ATOM      8  C   UNL     1      -0.926  -1.278   0.373  0.00  0.00    +0.000 C 
ENDBRANCH   1   5
BRANCH   1   9
ATOM      9  C   UNL     1       1.168   3.817   0.234  0.00  0.00    +0.000 C 
ATOM     10  O   UNL     1       1.789   3.555   1.251  0.00  0.00    +0.000 OA
BRANCH   9  11
ATOM     11  C   UNL     1       1.210   5.146  -0.435  0.00  0.00    +0.000 A 
ATOM     12  C   UNL     1       2.001   6.151   0.140  0.00  0.00    +0.000 A 
ATOM     13  C   UNL     1       2.075   7.414  -0.451  0.00  0.00    +0.000 A 
ATOM     14  C   UNL     1       1.361   7.681  -1.618  0.00  0.00    +0.000 A 
ATOM     15  C   UNL     1       0.571   6.687  -2.196  0.00  0.00    +0.000 A 
ATOM     16  C   UNL     1       0.495   5.422  -1.609  0.00  0.00    +0.000 A 
ENDBRANCH   9  11
ENDBRANCH   1   9
TORSDOF 3
