REMARK  Name = *****
REMARK  5 active torsions:
REMARK  status: ('A' for Active; 'I' for Inactive)
REMARK    1  A    between atoms: C_1  and  C_2
REMARK    2  A    between atoms: C_5  and  S_8
REMARK    3  A    between atoms: S_8  and  C_10
REMARK    4  A    between atoms: C_10  and  C_11
REMARK    5  A    between atoms: C_10  and  C_12
REMARK                            x       y       z     vdW  Elec       q    Type
REMARK                         _______ _______ _______ _____ _____    ______ ____
ROOT
ATOM      1  S   UNL     1      -3.447   0.078   0.239  0.00  0.00    +0.000 S 
ATOM      2  O   UNL     1      -2.780  -0.621  -0.912  0.00  0.00    +0.000 OA
ENDROOT
BRANCH   1   7
ATOM      3  C   UNL     1      -8.621  -2.985   1.375  0.00  0.00    +0.000 C 
ATOM      4  C   UNL     1      -7.369  -2.215   1.076  0.00  0.00    +0.000 A 
ATOM      5  C   UNL     1      -6.572  -2.559  -0.022  0.00  0.00    +0.000 A 
ATOM      6  C   UNL     1      -5.387  -1.867  -0.281  0.00  0.00    +0.000 A 
ATOM      7  C   UNL     1      -4.981  -0.823   0.555  0.00  0.00    +0.000 A 
ATOM      8  C   UNL     1      -5.760  -0.497   1.671  0.00  0.00    +0.000 A 
ATOM      9  C   UNL     1      -6.945  -1.190   1.930  0.00  0.00    +0.000 A 
ENDBRANCH   1   7
BRANCH   1  10
ATOM     10  C   UNL     1      -4.179   1.655  -0.382  0.00  0.00    +0.000 C 
ATOM     11  C   UNL     1      -4.783   1.493  -1.777  0.00  0.00    +0.000 C 
BRANCH  10  12
ATOM     12  C   UNL     1      -3.147   2.771  -0.340  0.00  0.00    +0.000 A 
ATOM     13  C   UNL     1      -1.987   2.731  -1.130  0.00  0.00    +0.000 A 
ATOM     14  C   UNL     1      -1.053   3.767  -1.080  0.00  0.00    +0.000 A 
ATOM     15  C   UNL     1      -1.266   4.859  -0.242  0.00  0.00    +0.000 A 
ATOM     16  C   UNL     1      -2.412   4.915   0.547  0.00  0.00    +0.000 A 
ATOM     17  C   UNL     1      -3.347   3.879   0.500  0.00  0.00    +0.000 A 
ENDBRANCH  10  12
ENDBRANCH   1  10
TORSDOF 3
