REMARK  Name = *****
REMARK  5 active torsions:
REMARK  status: ('A' for Active; 'I' for Inactive)
REMARK    1  A    between atoms: C_1  and  C_2
REMARK    2  A    between atoms: C_3  and  C_10
REMARK    3  A    between atoms: C_5  and  C_8
REMARK    4  A    between atoms: C_10  and  C_11
REMARK    5  A    between atoms: C_11  and  C_13
REMARK                            x       y       z     vdW  Elec       q    Type
REMARK                         _______ _______ _______ _____ _____    ______ ____
ROOT
ATOM      1  C   UNL     1       4.299   1.752   2.235  0.00  0.00    +0.000 C 
ATOM      2  C   UNL     1       4.075   0.847   1.054  0.00  0.00    +0.000 A 
ATOM      3  C   UNL     1       3.240   1.218  -0.021  0.00  0.00    +0.000 A 
ATOM      4  C   UNL     1       3.090   0.337  -1.109  0.00  0.00    +0.000 A 
ATOM      5  C   UNL     1       3.739  -0.902  -1.126  0.00  0.00    +0.000 A 
ATOM      6  C   UNL     1       4.549  -1.272  -0.052  0.00  0.00    +0.000 A 
ATOM      7  C   UNL     1       4.715  -0.403   1.028  0.00  0.00    +0.000 A 
ENDROOT
BRANCH   5   8
ATOM      8  C   UNL     1       3.570  -1.788  -2.239  0.00  0.00    +0.000 C 
ATOM      9  N   UNL     1       3.424  -2.510  -3.136  0.00  0.00    +0.000 NA
ENDBRANCH   5   8
BRANCH   3  10
ATOM     10  C   UNL     1       2.520   2.553  -0.062  0.00  0.00    +0.000 C 
BRANCH  10  11
ATOM     11  C   UNL     1       3.372   3.700  -0.583  0.00  0.00    +0.000 C 
ATOM     12  O   UNL     1       4.457   3.530  -1.138  0.00  0.00    +0.000 OA
BRANCH  11  13
ATOM     13  C   UNL     1       2.857   5.095  -0.422  0.00  0.00    +0.000 A 
ATOM     14  C   UNL     1       1.546   5.371  -0.012  0.00  0.00    +0.000 A 
ATOM     15  C   UNL     1       1.117   6.694   0.124  0.00  0.00    +0.000 A 
ATOM     16  C   UNL     1       1.990   7.747  -0.147  0.00  0.00    +0.000 A 
ATOM     17  C   UNL     1       3.294   7.481  -0.560  0.00  0.00    +0.000 A 
ATOM     18  C   UNL     1       3.726   6.161  -0.699  0.00  0.00    +0.000 A 
ENDBRANCH  11  13
ENDBRANCH  10  11
ENDBRANCH   3  10
TORSDOF 4
