REMARK  Name = *****
REMARK  3 active torsions:
REMARK  status: ('A' for Active; 'I' for Inactive)
REMARK    1  A    between atoms: C_4  and  O_8
REMARK    2  A    between atoms: O_8  and  C_9
REMARK    3  A    between atoms: C_9  and  C_11
REMARK                            x       y       z     vdW  Elec       q    Type
REMARK                         _______ _______ _______ _____ _____    ______ ____
ROOT
ATOM      1  O   UNL     1      -0.832   1.799   1.044  0.00  0.00    +0.000 OA
ENDROOT
BRANCH   1   5
ATOM      2  C   UNL     1       0.730  -1.474   0.237  0.00  0.00    +0.000 C 
ATOM      3  C   UNL     1       1.323  -0.222   0.876  0.00  0.00    +0.000 C 
ATOM      4  C   UNL     1       1.251   1.027  -0.003  0.00  0.00    +0.000 C 
ATOM      5  C   UNL     1      -0.152   1.615  -0.208  0.00  0.00    +0.000 C 
ATOM      6  C   UNL     1      -1.052   0.777  -1.074  0.00  0.00    +0.000 C 
ATOM      7  C   UNL     1      -1.323  -0.531  -0.948  0.00  0.00    +0.000 C 
ATOM      8  C   UNL     1      -0.790  -1.453   0.106  0.00  0.00    +0.000 C 
ENDBRANCH   1   5
BRANCH   1   9
ATOM      9  C   UNL     1      -0.513   2.917   1.737  0.00  0.00    +0.000 C 
ATOM     10  O   UNL     1       0.283   3.775   1.392  0.00  0.00    +0.000 OA
BRANCH   9  11
ATOM     11  C   UNL     1      -1.274   2.967   3.016  0.00  0.00    +0.000 A 
ATOM     12  C   UNL     1      -1.078   4.069   3.859  0.00  0.00    +0.000 A 
ATOM     13  C   UNL     1      -1.768   4.161   5.070  0.00  0.00    +0.000 A 
ATOM     14  C   UNL     1      -2.655   3.153   5.445  0.00  0.00    +0.000 A 
ATOM     15  C   UNL     1      -2.856   2.053   4.611  0.00  0.00    +0.000 A 
ATOM     16  C   UNL     1      -2.168   1.957   3.399  0.00  0.00    +0.000 A 
ENDBRANCH   9  11
ENDBRANCH   1   9
TORSDOF 3
