REMARK  Name = *****
REMARK  3 active torsions:
REMARK  status: ('A' for Active; 'I' for Inactive)
REMARK    1  A    between atoms: C_4  and  C_7
REMARK    2  A    between atoms: C_7  and  C_8
REMARK    3  A    between atoms: C_8  and  N_9
REMARK                            x       y       z     vdW  Elec       q    Type
REMARK                         _______ _______ _______ _____ _____    ______ ____
ROOT
ATOM      1  N   UNL     1      -5.087  -0.277  -0.305  0.00  0.00    +0.000 N 
ATOM      2  C   UNL     1      -5.851  -0.086   0.852  0.00  0.00    +0.000 C 
ATOM      3  O   UNL     1      -5.432  -0.296   1.985  0.00  0.00    +0.000 OA
ATOM      4  C   UNL     1      -7.274   0.352   0.487  0.00  0.00    +0.000 C 
ATOM      5  C   UNL     1      -7.109   1.205  -0.793  0.00  0.00    +0.000 C 
ATOM      6  S   UNL     1      -5.802   0.317  -1.737  0.00  0.00    +0.000 S 
ATOM      7 CL   UNL     1      -8.591   1.394  -1.766  0.00  0.00    +0.000 Cl
ATOM      8 CL   UNL     1      -6.452   2.862  -0.462  0.00  0.00    +0.000 Cl
ATOM      9 CL   UNL     1      -8.205  -1.190   0.239  0.00  0.00    +0.000 Cl
ATOM     10 CL   UNL     1      -8.050   1.217   1.849  0.00  0.00    +0.000 Cl
ENDROOT
BRANCH   1  11
ATOM     11  C   UNL     1      -3.673  -0.614  -0.265  0.00  0.00    +0.000 C 
BRANCH  11  12
ATOM     12  C   UNL     1      -2.788   0.604   0.019  0.00  0.00    +0.000 C 
BRANCH  12  16
ATOM     13  C   UNL     1       1.365  -0.526   0.224  0.00  0.00    +0.000 A 
ATOM     14  C   UNL     1       0.806  -0.146  -0.995  0.00  0.00    +0.000 A 
ATOM     15  C   UNL     1      -0.537   0.227  -1.062  0.00  0.00    +0.000 A 
ATOM     16  C   UNL     1      -1.331   0.226   0.092  0.00  0.00    +0.000 A 
ATOM     17  C   UNL     1      -0.762  -0.162   1.312  0.00  0.00    +0.000 A 
ATOM     18  C   UNL     1       0.582  -0.534   1.377  0.00  0.00    +0.000 A 
ENDBRANCH  12  16
ENDBRANCH  11  12
ENDBRANCH   1  11
TORSDOF 3
