REMARK  Name = *****
REMARK  3 active torsions:
REMARK  status: ('A' for Active; 'I' for Inactive)
REMARK    1  A    between atoms: C_4  and  S_7
REMARK    2  A    between atoms: S_7  and  C_8
REMARK    3  A    between atoms: C_8  and  C_10
REMARK                            x       y       z     vdW  Elec       q    Type
REMARK                         _______ _______ _______ _____ _____    ______ ____
ROOT
ATOM      1  C   UNL     1      -3.929  -1.786  -0.281  0.00  0.00    +0.000 C 
ATOM      2  O   UNL     1      -3.735  -2.949   0.041  0.00  0.00    +0.000 OA
ENDROOT
BRANCH   1   3
ATOM      3  C   UNL     1      -5.291  -1.249  -0.412  0.00  0.00    +0.000 A 
ATOM      4  C   UNL     1      -5.957  -0.880   0.766  0.00  0.00    +0.000 A 
ATOM      5  C   UNL     1      -7.253  -0.369   0.699  0.00  0.00    +0.000 A 
ATOM      6  C   UNL     1      -7.885  -0.236  -0.537  0.00  0.00    +0.000 A 
ATOM      7  C   UNL     1      -7.228  -0.618  -1.709  0.00  0.00    +0.000 A 
ATOM      8  C   UNL     1      -5.928  -1.131  -1.651  0.00  0.00    +0.000 A 
ATOM      9 BR   UNL     1      -5.110  -1.659  -3.278  0.00  0.00    +0.000 Br
ENDBRANCH   1   3
BRANCH   1  10
ATOM     10  S   UNL     1      -2.635  -0.625  -0.533  0.00  0.00    +0.000 S 
BRANCH  10  14
ATOM     11  C   UNL     1      -1.413   0.218   3.802  0.00  0.00    +0.000 A 
ATOM     12  C   UNL     1      -1.285  -1.071   3.287  0.00  0.00    +0.000 A 
ATOM     13  C   UNL     1      -1.654  -1.336   1.967  0.00  0.00    +0.000 A 
ATOM     14  C   UNL     1      -2.160  -0.315   1.156  0.00  0.00    +0.000 A 
ATOM     15  C   UNL     1      -2.277   0.979   1.676  0.00  0.00    +0.000 A 
ATOM     16  C   UNL     1      -1.907   1.243   2.997  0.00  0.00    +0.000 A 
ENDBRANCH  10  14
ENDBRANCH   1  10
TORSDOF 3
