REMARK  Name = *****
REMARK  3 active torsions:
REMARK  status: ('A' for Active; 'I' for Inactive)
REMARK    1  A    between atoms: C_4  and  C_7
REMARK    2  A    between atoms: C_7  and  C_9
REMARK    3  A    between atoms: C_10  and  C_11
REMARK                            x       y       z     vdW  Elec       q    Type
REMARK                         _______ _______ _______ _____ _____    ______ ____
ROOT
ATOM      1  C   UNL     1      -3.621  -0.456  -0.869  0.00  0.00    +0.000 C 
ATOM      2  C   UNL     1      -4.953  -0.286  -0.852  0.00  0.00    +0.000 C 
ENDROOT
BRANCH   2   3
ATOM      3  C   UNL     1      -5.675   0.982  -0.745  0.00  0.00    +0.000 A 
ATOM      4  C   UNL     1      -5.881   1.782  -1.877  0.00  0.00    +0.000 A 
ATOM      5  C   UNL     1      -6.587   2.981  -1.769  0.00  0.00    +0.000 A 
ATOM      6  C   UNL     1      -7.087   3.373  -0.532  0.00  0.00    +0.000 A 
ATOM      7  C   UNL     1      -6.893   2.589   0.600  0.00  0.00    +0.000 A 
ATOM      8  C   UNL     1      -6.185   1.390   0.494  0.00  0.00    +0.000 A 
ATOM      9  F   UNL     1      -7.767   4.522  -0.429  0.00  0.00    +0.000 F 
ENDBRANCH   2   3
BRANCH   1  10
ATOM     10  C   UNL     1      -2.600   0.631  -0.822  0.00  0.00    +0.000 C 
ATOM     11  O   UNL     1      -2.830   1.774  -1.199  0.00  0.00    +0.000 OA
BRANCH  10  15
ATOM     12  C   UNL     1       1.387  -0.336   0.429  0.00  0.00    +0.000 A 
ATOM     13  C   UNL     1       0.319  -1.087   0.919  0.00  0.00    +0.000 A 
ATOM     14  C   UNL     1      -0.988  -0.787   0.525  0.00  0.00    +0.000 A 
ATOM     15  C   UNL     1      -1.228   0.263  -0.371  0.00  0.00    +0.000 A 
ATOM     16  C   UNL     1      -0.151   1.025  -0.843  0.00  0.00    +0.000 A 
ATOM     17  C   UNL     1       1.153   0.722  -0.448  0.00  0.00    +0.000 A 
ENDBRANCH  10  15
ENDBRANCH   1  10
TORSDOF 3
