REMARK  Name = *****
REMARK  3 active torsions:
REMARK  status: ('A' for Active; 'I' for Inactive)
REMARK    1  A    between atoms: C_4  and  O_7
REMARK    2  A    between atoms: O_7  and  C_8
REMARK    3  A    between atoms: C_8  and  C_10
REMARK                            x       y       z     vdW  Elec       q    Type
REMARK                         _______ _______ _______ _____ _____    ______ ____
ROOT
ATOM      1  C   UNL     1       3.404  -1.767   0.217  0.00  0.00    +0.000 C 
ATOM      2  O   UNL     1       3.081  -2.370   1.228  0.00  0.00    +0.000 OA
ENDROOT
BRANCH   1   3
ATOM      3  C   UNL     1       4.674  -2.021  -0.519  0.00  0.00    +0.000 A 
ATOM      4  C   UNL     1       5.531  -3.021  -0.033  0.00  0.00    +0.000 A 
ATOM      5  C   UNL     1       6.733  -3.298  -0.688  0.00  0.00    +0.000 A 
ATOM      6  C   UNL     1       7.075  -2.575  -1.825  0.00  0.00    +0.000 A 
ATOM      7  C   UNL     1       6.239  -1.580  -2.320  0.00  0.00    +0.000 A 
ATOM      8  C   UNL     1       5.035  -1.300  -1.668  0.00  0.00    +0.000 A 
ATOM      9  F   UNL     1       8.227  -2.840  -2.453  0.00  0.00    +0.000 F 
ENDBRANCH   1   3
BRANCH   1  10
ATOM     10  O   UNL     1       2.684  -0.798  -0.400  0.00  0.00    +0.000 OA
BRANCH  10  14
ATOM     11  C   UNL     1      -1.386   0.380  -0.190  0.00  0.00    +0.000 C 
ATOM     12  C   UNL     1      -1.041  -1.047   0.228  0.00  0.00    +0.000 C 
ATOM     13  C   UNL     1       0.346  -1.454  -0.257  0.00  0.00    +0.000 C 
ATOM     14  C   UNL     1       1.421  -0.465   0.206  0.00  0.00    +0.000 C 
ATOM     15  C   UNL     1       1.068   0.960  -0.228  0.00  0.00    +0.000 C 
ATOM     16  C   UNL     1      -0.317   1.373   0.257  0.00  0.00    +0.000 C 
ENDBRANCH  10  14
ENDBRANCH   1  10
TORSDOF 3
