REMARK  Name = *****
REMARK  4 active torsions:
REMARK  status: ('A' for Active; 'I' for Inactive)
REMARK    1  A    between atoms: C_1  and  C_2
REMARK    2  A    between atoms: C_3  and  S_9
REMARK    3  A    between atoms: S_9  and  N_11
REMARK    4  A    between atoms: N_11  and  C_12
REMARK                            x       y       z     vdW  Elec       q    Type
REMARK                         _______ _______ _______ _____ _____    ______ ____
ROOT
ATOM      1  S   UNL     1      -3.693  -1.631  -0.256  0.00  0.00    +0.000 S 
ATOM      2  O   UNL     1      -4.004  -2.336   1.031  0.00  0.00    +0.000 OA
ENDROOT
BRANCH   1   5
ATOM      3  C   UNL     1      -1.757  -0.330  -2.435  0.00  0.00    +0.000 C 
ATOM      4  C   UNL     1      -1.321  -0.263  -0.998  0.00  0.00    +0.000 A 
ATOM      5  C   UNL     1      -2.097  -0.791   0.056  0.00  0.00    +0.000 A 
ATOM      6  C   UNL     1      -1.631  -0.684   1.379  0.00  0.00    +0.000 A 
ATOM      7  C   UNL     1      -0.422  -0.046   1.663  0.00  0.00    +0.000 A 
ATOM      8  C   UNL     1       0.331   0.491   0.625  0.00  0.00    +0.000 A 
ATOM      9  C   UNL     1      -0.111   0.388  -0.694  0.00  0.00    +0.000 A 
ATOM     10 CL   UNL     1       1.817   1.286   0.969  0.00  0.00    +0.000 Cl
ENDBRANCH   1   5
BRANCH   1  11
ATOM     11  N   UNL     1      -4.527  -0.178  -0.257  0.00  0.00    +0.000 N 
ATOM     12  H   UNL     1      -4.335   0.483   0.447  0.00  0.00    +0.000 HD
BRANCH  11  13
ATOM     13  C   UNL     1      -5.499   0.130  -1.240  0.00  0.00    +0.000 A 
ATOM     14  C   UNL     1      -6.381   1.194  -0.986  0.00  0.00    +0.000 A 
ATOM     15  C   UNL     1      -7.318   1.605  -1.938  0.00  0.00    +0.000 A 
ATOM     16  C   UNL     1      -7.372   0.973  -3.176  0.00  0.00    +0.000 A 
ATOM     17  C   UNL     1      -6.482  -0.057  -3.463  0.00  0.00    +0.000 A 
ATOM     18  C   UNL     1      -5.544  -0.465  -2.508  0.00  0.00    +0.000 A 
ENDBRANCH  11  13
ENDBRANCH   1  11
TORSDOF 3
