REMARK  Name = *****
REMARK  4 active torsions:
REMARK  status: ('A' for Active; 'I' for Inactive)
REMARK    1  A    between atoms: C_4  and  C_7
REMARK    2  A    between atoms: C_7  and  O_8
REMARK    3  A    between atoms: O_8  and  C_9
REMARK    4  A    between atoms: C_9  and  C_10
REMARK                            x       y       z     vdW  Elec       q    Type
REMARK                         _______ _______ _______ _____ _____    ______ ____
ROOT
ATOM      1  O   UNL     1      -3.540  -0.778  -0.178  0.00  0.00    +0.000 OA
ENDROOT
BRANCH   1   2
ATOM      2  C   UNL     1      -2.848   0.432   0.127  0.00  0.00    +0.000 C 
BRANCH   2   6
ATOM      3  C   UNL     1       1.430  -0.150   0.146  0.00  0.00    +0.000 A 
ATOM      4  C   UNL     1       0.588  -1.192   0.529  0.00  0.00    +0.000 A 
ATOM      5  C   UNL     1      -0.796  -1.013   0.514  0.00  0.00    +0.000 A 
ATOM      6  C   UNL     1      -1.356   0.207   0.106  0.00  0.00    +0.000 A 
ATOM      7  C   UNL     1      -0.496   1.252  -0.263  0.00  0.00    +0.000 A 
ATOM      8  C   UNL     1       0.889   1.072  -0.248  0.00  0.00    +0.000 A 
ENDBRANCH   2   6
ENDBRANCH   1   2
BRANCH   1   9
ATOM      9  C   UNL     1      -4.953  -0.590  -0.172  0.00  0.00    +0.000 C 
BRANCH   9  10
ATOM     10  C   UNL     1      -5.647  -1.895  -0.480  0.00  0.00    +0.000 A 
ATOM     11  C   UNL     1      -6.861  -2.213   0.148  0.00  0.00    +0.000 A 
ATOM     12  C   UNL     1      -7.529  -3.402  -0.157  0.00  0.00    +0.000 A 
ATOM     13  C   UNL     1      -6.992  -4.276  -1.100  0.00  0.00    +0.000 A 
ATOM     14  C   UNL     1      -5.796  -3.971  -1.743  0.00  0.00    +0.000 A 
ATOM     15  C   UNL     1      -5.129  -2.782  -1.438  0.00  0.00    +0.000 A 
ATOM     16 CL   UNL     1      -7.816  -5.740  -1.475  0.00  0.00    +0.000 Cl
ENDBRANCH   9  10
ENDBRANCH   1   9
TORSDOF 4
