REMARK  Name = *****
REMARK  4 active torsions:
REMARK  status: ('A' for Active; 'I' for Inactive)
REMARK    1  A    between atoms: C_1  and  C_2
REMARK    2  A    between atoms: C_3  and  N_9
REMARK    3  A    between atoms: C_4  and  C_8
REMARK    4  A    between atoms: C_10  and  C_11
REMARK                            x       y       z     vdW  Elec       q    Type
REMARK                         _______ _______ _______ _____ _____    ______ ____
ROOT
ATOM      1  N   UNL     1       0.380   2.356   0.743  0.00  0.00    +0.000 NA
ATOM      2  C   UNL     1       0.853   3.157  -0.160  0.00  0.00    +0.000 C 
ENDROOT
BRANCH   1   5
ATOM      3  C   UNL     1       2.626   0.611   1.243  0.00  0.00    +0.000 C 
ATOM      4  C   UNL     1       1.358   0.122   0.600  0.00  0.00    +0.000 A 
ATOM      5  C   UNL     1       0.281   1.002   0.367  0.00  0.00    +0.000 A 
ATOM      6  C   UNL     1      -0.909   0.514  -0.210  0.00  0.00    +0.000 A 
ATOM      7  C   UNL     1      -0.989  -0.832  -0.596  0.00  0.00    +0.000 A 
ATOM      8  C   UNL     1       0.087  -1.692  -0.392  0.00  0.00    +0.000 A 
ATOM      9  C   UNL     1       1.254  -1.219   0.204  0.00  0.00    +0.000 A 
ATOM     10  C   UNL     1      -2.084   1.424  -0.437  0.00  0.00    +0.000 C 
ENDBRANCH   1   5
BRANCH   2  11
ATOM     11  C   UNL     1       1.012   4.598   0.093  0.00  0.00    +0.000 A 
ATOM     12  C   UNL     1       0.649   5.161   1.320  0.00  0.00    +0.000 A 
ATOM     13  C   UNL     1       0.812   6.533   1.529  0.00  0.00    +0.000 A 
ATOM     14  C   UNL     1       1.335   7.339   0.515  0.00  0.00    +0.000 A 
ATOM     15  C   UNL     1       1.696   6.774  -0.709  0.00  0.00    +0.000 A 
ATOM     16  C   UNL     1       1.532   5.407  -0.914  0.00  0.00    +0.000 A 
ATOM     17  F   UNL     1       1.886   4.885  -2.098  0.00  0.00    +0.000 F 
ENDBRANCH   2  11
TORSDOF 2
