REMARK  Name = *****
REMARK  4 active torsions:
REMARK  status: ('A' for Active; 'I' for Inactive)
REMARK    1  A    between atoms: C_4  and  N_7
REMARK    2  A    between atoms: N_7  and  C_8
REMARK    3  A    between atoms: C_8  and  C_9
REMARK    4  A    between atoms: C_10  and  S_14
REMARK                            x       y       z     vdW  Elec       q    Type
REMARK                         _______ _______ _______ _____ _____    ______ ____
ROOT
ATOM      1  C   UNL     1       3.494  -1.310   0.386  0.00  0.00    +0.000 C 
ENDROOT
BRANCH   1   2
ATOM      2  C   UNL     1       4.830  -1.640  -0.054  0.00  0.00    +0.000 A 
ATOM      3  C   UNL     1       5.546  -1.256  -1.172  0.00  0.00    +0.000 A 
ATOM      4  C   UNL     1       6.851  -1.828  -1.209  0.00  0.00    +0.000 A 
ATOM      5  C   UNL     1       7.094  -2.633  -0.120  0.00  0.00    +0.000 A 
ATOM      6  S   UNL     1       5.755  -2.695   0.939  0.00  0.00    +0.000 S 
BRANCH   3   7
ATOM      7  S   UNL     1       4.994  -0.185  -2.456  0.00  0.00    +0.000 S 
ATOM      8  H   UNL     1       3.724   0.225  -2.190  0.00  0.00    +0.000 HD
ENDBRANCH   3   7
ENDBRANCH   1   2
BRANCH   1   9
ATOM      9  N   UNL     1       2.730  -0.533  -0.305  0.00  0.00    +0.000 NA
BRANCH   9  13
ATOM     10  C   UNL     1      -1.450   0.328  -0.198  0.00  0.00    +0.000 C 
ATOM     11  C   UNL     1      -1.003  -1.070   0.220  0.00  0.00    +0.000 C 
ATOM     12  C   UNL     1       0.428  -1.361  -0.226  0.00  0.00    +0.000 C 
ATOM     13  C   UNL     1       1.404  -0.292   0.279  0.00  0.00    +0.000 C 
ATOM     14  C   UNL     1       0.951   1.107  -0.153  0.00  0.00    +0.000 C 
ATOM     15  C   UNL     1      -0.480   1.398   0.293  0.00  0.00    +0.000 C 
ENDBRANCH   9  13
ENDBRANCH   1   9
TORSDOF 4
