REMARK  Name = *****
REMARK  5 active torsions:
REMARK  status: ('A' for Active; 'I' for Inactive)
REMARK    1  A    between atoms: C_1  and  C_2
REMARK    2  A    between atoms: C_3  and  C_17
REMARK    3  A    between atoms: C_5  and  C_8
REMARK    4  A    between atoms: C_8  and  O_10
REMARK    5  A    between atoms: O_10  and  C_11
REMARK                            x       y       z     vdW  Elec       q    Type
REMARK                         _______ _______ _______ _____ _____    ______ ____
ROOT
ATOM      1  C   UNL     1      -2.897  -1.240   0.916  0.00  0.00    +0.000 C 
ATOM      2  O   UNL     1      -2.922  -2.442   1.135  0.00  0.00    +0.000 OA
ENDROOT
BRANCH   1   7
ATOM      3  C   UNL     1       1.969   1.447  -0.788  0.00  0.00    +0.000 C 
ATOM      4  C   UNL     1       0.715   0.740  -0.349  0.00  0.00    +0.000 A 
ATOM      5  C   UNL     1       0.710  -0.641  -0.073  0.00  0.00    +0.000 A 
ATOM      6  C   UNL     1      -0.486  -1.256   0.335  0.00  0.00    +0.000 A 
ATOM      7  C   UNL     1      -1.670  -0.518   0.476  0.00  0.00    +0.000 A 
ATOM      8  C   UNL     1      -1.655   0.854   0.204  0.00  0.00    +0.000 A 
ATOM      9  C   UNL     1      -0.472   1.474  -0.204  0.00  0.00    +0.000 A 
ATOM     10  C   UNL     1       1.955  -1.474  -0.210  0.00  0.00    +0.000 C 
ENDBRANCH   1   7
BRANCH   1  11
ATOM     11  O   UNL     1      -3.949  -0.347   1.025  0.00  0.00    +0.000 OA
BRANCH  11  12
ATOM     12  C   UNL     1      -5.168  -0.882   1.462  0.00  0.00    +0.000 A 
ATOM     13  C   UNL     1      -5.294  -1.463   2.724  0.00  0.00    +0.000 A 
ATOM     14  C   UNL     1      -6.542  -1.925   3.140  0.00  0.00    +0.000 A 
ATOM     15  C   UNL     1      -7.653  -1.787   2.304  0.00  0.00    +0.000 A 
ATOM     16  C   UNL     1      -7.520  -1.183   1.052  0.00  0.00    +0.000 A 
ATOM     17  C   UNL     1      -6.274  -0.721   0.630  0.00  0.00    +0.000 A 
ENDBRANCH  11  12
ENDBRANCH   1  11
TORSDOF 3
