REMARK  Name = *****
REMARK  4 active torsions:
REMARK  status: ('A' for Active; 'I' for Inactive)
REMARK    1  A    between atoms: C_1  and  C_2
REMARK    2  A    between atoms: C_7  and  O_8
REMARK    3  A    between atoms: O_8  and  C_9
REMARK    4  A    between atoms: C_9  and  C_11
REMARK                            x       y       z     vdW  Elec       q    Type
REMARK                         _______ _______ _______ _____ _____    ______ ____
ROOT
ATOM      1  C   UNL     1       2.014  -4.290   0.248  0.00  0.00    +0.000 A 
ATOM      2  C   UNL     1       3.377  -4.039   0.122  0.00  0.00    +0.000 A 
ATOM      3  C   UNL     1       4.298  -5.007   0.506  0.00  0.00    +0.000 A 
ATOM      4  C   UNL     1       3.860  -6.225   1.011  0.00  0.00    +0.000 A 
ATOM      5  C   UNL     1       2.499  -6.476   1.133  0.00  0.00    +0.000 A 
ATOM      6  C   UNL     1       1.574  -5.511   0.748  0.00  0.00    +0.000 A 
ATOM      7  F   UNL     1       0.265  -5.760   0.892  0.00  0.00    +0.000 F 
ATOM      8  F   UNL     1       2.077  -7.647   1.627  0.00  0.00    +0.000 F 
ATOM      9  F   UNL     1       4.750  -7.155   1.383  0.00  0.00    +0.000 F 
ATOM     10  F   UNL     1       5.610  -4.765   0.384  0.00  0.00    +0.000 F 
ATOM     11  F   UNL     1       3.814  -2.876  -0.380  0.00  0.00    +0.000 F 
ENDROOT
BRANCH   1  12
ATOM     12  C   UNL     1       1.035  -3.293  -0.177  0.00  0.00    +0.000 C 
ATOM     13  O   UNL     1       0.182  -3.515  -1.018  0.00  0.00    +0.000 OA
BRANCH  12  14
ATOM     14  O   UNL     1       1.258  -2.156   0.569  0.00  0.00    +0.000 OA
BRANCH  14  21
ATOM     15  C   UNL     1       2.406   0.187  -0.575  0.00  0.00    +0.000 C 
ATOM     16  C   UNL     1       0.945   0.087  -0.250  0.00  0.00    +0.000 A 
ATOM     17  C   UNL     1       0.088   1.168  -0.494  0.00  0.00    +0.000 A 
ATOM     18  C   UNL     1      -1.274   1.076  -0.193  0.00  0.00    +0.000 A 
ATOM     19  C   UNL     1      -1.796  -0.095   0.357  0.00  0.00    +0.000 A 
ATOM     20  C   UNL     1      -0.959  -1.181   0.602  0.00  0.00    +0.000 A 
ATOM     21  C   UNL     1       0.396  -1.089   0.278  0.00  0.00    +0.000 A 
ENDBRANCH  14  21
ENDBRANCH  12  14
ENDBRANCH   1  12
TORSDOF 3
