REMARK  Name = *****
REMARK  5 active torsions:
REMARK  status: ('A' for Active; 'I' for Inactive)
REMARK    1  A    between atoms: C_1  and  C_2
REMARK    2  A    between atoms: C_5  and  S_8
REMARK    3  A    between atoms: S_8  and  S_11
REMARK    4  A    between atoms: S_11  and  C_12
REMARK    5  A    between atoms: C_12  and  C_13
REMARK                            x       y       z     vdW  Elec       q    Type
REMARK                         _______ _______ _______ _____ _____    ______ ____
ROOT
ATOM      1  S   UNL     1      -3.579  -0.031  -0.178  0.00  0.00    +0.000 S 
ATOM      2  O   UNL     1      -3.886  -0.430  -1.538  0.00  0.00    +0.000 OA
ATOM      3  O   UNL     1      -4.078  -0.779   0.957  0.00  0.00    +0.000 OA
ENDROOT
BRANCH   1   8
ATOM      4  C   UNL     1       2.457   0.285   0.400  0.00  0.00    +0.000 C 
ATOM      5  C   UNL     1       0.966   0.179   0.258  0.00  0.00    +0.000 A 
ATOM      6  C   UNL     1       0.390  -0.045  -1.000  0.00  0.00    +0.000 A 
ATOM      7  C   UNL     1      -0.997  -0.117  -1.141  0.00  0.00    +0.000 A 
ATOM      8  C   UNL     1      -1.811   0.057  -0.019  0.00  0.00    +0.000 A 
ATOM      9  C   UNL     1      -1.251   0.282   1.242  0.00  0.00    +0.000 A 
ATOM     10  C   UNL     1       0.136   0.352   1.374  0.00  0.00    +0.000 A 
ENDBRANCH   1   8
BRANCH   1  11
ATOM     11  S   UNL     1      -4.180   1.952   0.042  0.00  0.00    +0.000 S 
BRANCH  11  12
ATOM     12  C   UNL     1      -3.873   2.585  -1.622  0.00  0.00    +0.000 C 
BRANCH  12  13
ATOM     13  C   UNL     1      -4.078   4.078  -1.693  0.00  0.00    +0.000 A 
ATOM     14  C   UNL     1      -3.019   4.957  -1.409  0.00  0.00    +0.000 A 
ATOM     15  C   UNL     1      -3.216   6.338  -1.461  0.00  0.00    +0.000 A 
ATOM     16  C   UNL     1      -4.468   6.841  -1.791  0.00  0.00    +0.000 A 
ATOM     17  C   UNL     1      -5.530   5.989  -2.068  0.00  0.00    +0.000 A 
ATOM     18  C   UNL     1      -5.338   4.608  -2.017  0.00  0.00    +0.000 A 
ATOM     19  F   UNL     1      -4.654   8.166  -1.840  0.00  0.00    +0.000 F 
ENDBRANCH  12  13
ENDBRANCH  11  12
ENDBRANCH   1  11
TORSDOF 4
