REMARK  Name = *****
REMARK  5 active torsions:
REMARK  status: ('A' for Active; 'I' for Inactive)
REMARK    1  A    between atoms: C_1  and  N_2
REMARK    2  A    between atoms: N_2  and  C_3
REMARK    3  A    between atoms: N_2  and  C_4
REMARK    4  A    between atoms: C_9  and  C_10
REMARK    5  A    between atoms: C_11  and  C_12
REMARK                            x       y       z     vdW  Elec       q    Type
REMARK                         _______ _______ _______ _____ _____    ______ ____
ROOT
ATOM      1  C   UNL     1       3.246   1.028  -0.625  0.00  0.00    +0.000 A 
ATOM      2  C   UNL     1       2.937   2.243   0.016  0.00  0.00    +0.000 A 
ATOM      3  C   UNL     1       3.653   3.414  -0.247  0.00  0.00    +0.000 A 
ATOM      4  C   UNL     1       4.703   3.398  -1.157  0.00  0.00    +0.000 A 
ATOM      5  C   UNL     1       5.032   2.211  -1.808  0.00  0.00    +0.000 A 
ATOM      6  C   UNL     1       4.313   1.027  -1.563  0.00  0.00    +0.000 A 
ENDROOT
BRANCH   1   8
ATOM      7  C   UNL     1       1.124  -0.031  -0.010  0.00  0.00    +0.000 C 
ATOM      8  N   UNL     1       2.544  -0.163  -0.324  0.00  0.00    +0.000 N 
ATOM      9  C   UNL     1       3.294  -1.013   0.606  0.00  0.00    +0.000 C 
ENDBRANCH   1   8
BRANCH   6  10
ATOM     10  C   UNL     1       4.742  -0.160  -2.328  0.00  0.00    +0.000 C 
ATOM     11  C   UNL     1       3.899  -0.893  -3.073  0.00  0.00    +0.000 C 
BRANCH  11  12
ATOM     12  C   UNL     1       4.305  -2.062  -3.863  0.00  0.00    +0.000 A 
ATOM     13  C   UNL     1       5.237  -2.995  -3.391  0.00  0.00    +0.000 A 
ATOM     14  C   UNL     1       5.577  -4.111  -4.159  0.00  0.00    +0.000 A 
ATOM     15  C   UNL     1       4.981  -4.311  -5.402  0.00  0.00    +0.000 A 
ATOM     16  C   UNL     1       4.040  -3.399  -5.876  0.00  0.00    +0.000 A 
ATOM     17  C   UNL     1       3.699  -2.283  -5.107  0.00  0.00    +0.000 A 
ENDBRANCH  11  12
ENDBRANCH   6  10
TORSDOF 3
