REMARK  Name = *****
REMARK  3 active torsions:
REMARK  status: ('A' for Active; 'I' for Inactive)
REMARK    1  A    between atoms: C_2  and  O_9
REMARK    2  A    between atoms: O_9  and  C_10
REMARK    3  A    between atoms: C_10  and  C_12
REMARK                            x       y       z     vdW  Elec       q    Type
REMARK                         _______ _______ _______ _____ _____    ______ ____
ROOT
ATOM      1  O   UNL     1       1.592   0.079   1.846  0.00  0.00    +0.000 OA
ENDROOT
BRANCH   1   3
ATOM      2  C   UNL     1       0.582   1.248  -0.052  0.00  0.00    +0.000 C 
ATOM      3  C   UNL     1       1.473   0.078   0.408  0.00  0.00    +0.000 C 
ATOM      4  C   UNL     1       0.696  -1.191   0.009  0.00  0.00    +0.000 C 
ATOM      5  C   UNL     1      -0.750  -0.788   0.100  0.00  0.00    +0.000 C 
ATOM      6  C   UNL     1      -0.820   0.716   0.062  0.00  0.00    +0.000 C 
ATOM      7  C   UNL     1      -1.430  -0.094  -1.020  0.00  0.00    +0.000 C 
ATOM      8  F   UNL     1      -0.893  -0.104  -2.285  0.00  0.00    +0.000 F 
ATOM      9  F   UNL     1      -2.797  -0.163  -1.148  0.00  0.00    +0.000 F 
ENDBRANCH   1   3
BRANCH   1  10
ATOM     10  C   UNL     1       2.507   0.941   2.355  0.00  0.00    +0.000 C 
ATOM     11  O   UNL     1       3.212   1.696   1.704  0.00  0.00    +0.000 OA
BRANCH  10  12
ATOM     12  C   UNL     1       2.537   0.859   3.840  0.00  0.00    +0.000 A 
ATOM     13  C   UNL     1       3.417   1.703   4.532  0.00  0.00    +0.000 A 
ATOM     14  C   UNL     1       3.480   1.666   5.926  0.00  0.00    +0.000 A 
ATOM     15  C   UNL     1       2.664   0.786   6.637  0.00  0.00    +0.000 A 
ATOM     16  C   UNL     1       1.786  -0.057   5.957  0.00  0.00    +0.000 A 
ATOM     17  C   UNL     1       1.720  -0.023   4.562  0.00  0.00    +0.000 A 
ENDBRANCH  10  12
ENDBRANCH   1  10
TORSDOF 3
