REMARK  Name = *****
REMARK  4 active torsions:
REMARK  status: ('A' for Active; 'I' for Inactive)
REMARK    1  A    between atoms: C_1  and  C_2
REMARK    2  A    between atoms: C_5  and  S_8
REMARK    3  A    between atoms: S_8  and  S_11
REMARK    4  A    between atoms: S_11  and  C_12
REMARK                            x       y       z     vdW  Elec       q    Type
REMARK                         _______ _______ _______ _____ _____    ______ ____
ROOT
ATOM      1  S   UNL     1      -3.684   0.020   0.129  0.00  0.00    +0.000 S 
ATOM      2  O   UNL     1      -4.100  -0.634  -1.096  0.00  0.00    +0.000 OA
ATOM      3  O   UNL     1      -4.105  -0.473   1.427  0.00  0.00    +0.000 OA
ENDROOT
BRANCH   1   8
ATOM      4  C   UNL     1       2.386   0.205   0.146  0.00  0.00    +0.000 C 
ATOM      5  C   UNL     1       0.886   0.135   0.144  0.00  0.00    +0.000 A 
ATOM      6  C   UNL     1       0.187  -0.018  -1.062  0.00  0.00    +0.000 A 
ATOM      7  C   UNL     1      -1.208  -0.053  -1.071  0.00  0.00    +0.000 A 
ATOM      8  C   UNL     1      -1.908   0.085   0.130  0.00  0.00    +0.000 A 
ATOM      9  C   UNL     1      -1.225   0.237   1.340  0.00  0.00    +0.000 A 
ATOM     10  C   UNL     1       0.171   0.272   1.341  0.00  0.00    +0.000 A 
ENDBRANCH   1   8
BRANCH   1  11
ATOM     11  S   UNL     1      -4.217   2.042  -0.001  0.00  0.00    +0.000 S 
BRANCH  11  12
ATOM     12  C   UNL     1      -5.987   1.932  -0.153  0.00  0.00    +0.000 A 
ATOM     13  C   UNL     1      -6.779   1.513   0.924  0.00  0.00    +0.000 A 
ATOM     14  C   UNL     1      -8.168   1.450   0.793  0.00  0.00    +0.000 A 
ATOM     15  C   UNL     1      -8.761   1.813  -0.410  0.00  0.00    +0.000 A 
ATOM     16  C   UNL     1      -7.991   2.241  -1.485  0.00  0.00    +0.000 A 
ATOM     17  C   UNL     1      -6.602   2.304  -1.356  0.00  0.00    +0.000 A 
ATOM     18  F   UNL     1     -10.093   1.755  -0.533  0.00  0.00    +0.000 F 
ENDBRANCH  11  12
ENDBRANCH   1  11
TORSDOF 3
