REMARK  Name = *****
REMARK  1 active torsions:
REMARK  status: ('A' for Active; 'I' for Inactive)
REMARK    1  A    between atoms: C_4  and  C_5
REMARK                            x       y       z     vdW  Elec       q    Type
REMARK                         _______ _______ _______ _____ _____    ______ ____
ROOT
ATOM      1  C   UNL     1       0.926  -1.832  -0.046  0.00  0.00    +0.000 C 
ATOM      2  C   UNL     1       2.133  -0.902   0.147  0.00  0.00    +0.000 C 
ATOM      3  C   UNL     1       1.623   0.505  -0.077  0.00  0.00    +0.000 C 
ATOM      4  C   UNL     1       2.350   1.610  -0.303  0.00  0.00    +0.000 C 
ATOM      5  C   UNL     1       0.162   0.444  -0.037  0.00  0.00    +0.000 A 
ATOM      6  C   UNL     1      -0.783   1.460  -0.028  0.00  0.00    +0.000 A 
ATOM      7  C   UNL     1      -2.138   1.121   0.028  0.00  0.00    +0.000 A 
ATOM      8  C   UNL     1      -2.534  -0.223   0.072  0.00  0.00    +0.000 A 
ATOM      9  C   UNL     1      -1.581  -1.242   0.062  0.00  0.00    +0.000 A 
ATOM     10  C   UNL     1      -0.238  -0.894   0.015  0.00  0.00    +0.000 A 
ENDROOT
BRANCH   4  11
ATOM     11  C   UNL     1       3.812   1.609  -0.337  0.00  0.00    +0.000 A 
ATOM     12  C   UNL     1       4.488   1.393  -1.543  0.00  0.00    +0.000 A 
ATOM     13  C   UNL     1       5.884   1.383  -1.573  0.00  0.00    +0.000 A 
ATOM     14  C   UNL     1       6.608   1.588  -0.399  0.00  0.00    +0.000 A 
ATOM     15  C   UNL     1       5.939   1.802   0.806  0.00  0.00    +0.000 A 
ATOM     16  C   UNL     1       4.544   1.811   0.838  0.00  0.00    +0.000 A 
ENDBRANCH   4  11
TORSDOF 1
