REMARK  Name = *****
REMARK  4 active torsions:
REMARK  status: ('A' for Active; 'I' for Inactive)
REMARK    1  A    between atoms: C_1  and  C_2
REMARK    2  A    between atoms: C_2  and  C_10
REMARK    3  A    between atoms: N_3  and  O_4
REMARK    4  A    between atoms: O_4  and  C_5
REMARK                            x       y       z     vdW  Elec       q    Type
REMARK                         _______ _______ _______ _____ _____    ______ ____
ROOT
ATOM      1  C   UNL     1       1.131  -0.173   0.156  0.00  0.00    +0.000 C 
ATOM      2  C   UNL     1       2.643  -0.114   0.062  0.00  0.00    +0.000 C 
ATOM      3  N   UNL     1       3.349  -0.985  -0.600  0.00  0.00    +0.000 NA
ENDROOT
BRANCH   2   4
ATOM      4  C   UNL     1       3.354   1.001   0.754  0.00  0.00    +0.000 A 
ATOM      5  C   UNL     1       2.748   2.249   0.943  0.00  0.00    +0.000 A 
ATOM      6  C   UNL     1       3.442   3.274   1.590  0.00  0.00    +0.000 A 
ATOM      7  C   UNL     1       4.744   3.061   2.043  0.00  0.00    +0.000 A 
ATOM      8  C   UNL     1       5.357   1.825   1.847  0.00  0.00    +0.000 A 
ATOM      9  C   UNL     1       4.667   0.798   1.200  0.00  0.00    +0.000 A 
ENDBRANCH   2   4
BRANCH   3  10
ATOM     10  O   UNL     1       2.532  -1.948  -1.211  0.00  0.00    +0.000 OA
BRANCH  10  11
ATOM     11  C   UNL     1       3.287  -2.825  -1.887  0.00  0.00    +0.000 A 
ATOM     12  C   UNL     1       4.658  -2.897  -2.074  0.00  0.00    +0.000 A 
ATOM     13  C   UNL     1       5.059  -4.008  -2.872  0.00  0.00    +0.000 A 
ATOM     14  C   UNL     1       3.981  -4.760  -3.277  0.00  0.00    +0.000 A 
ATOM     15  S   UNL     1       2.505  -4.124  -2.697  0.00  0.00    +0.000 S 
ENDBRANCH  10  11
ENDBRANCH   3  10
TORSDOF 3
