REMARK  Name = *****
REMARK  5 active torsions:
REMARK  status: ('A' for Active; 'I' for Inactive)
REMARK    1  A    between atoms: C_1  and  C_2
REMARK    2  A    between atoms: C_3  and  C_16
REMARK    3  A    between atoms: C_4  and  O_8
REMARK    4  A    between atoms: O_8  and  C_9
REMARK    5  A    between atoms: C_9  and  C_11
REMARK                            x       y       z     vdW  Elec       q    Type
REMARK                         _______ _______ _______ _____ _____    ______ ____
ROOT
ATOM      1  C   UNL     1       1.807   1.297  -0.401  0.00  0.00    +0.000 C 
ATOM      2  C   UNL     1       0.517   0.592  -0.079  0.00  0.00    +0.000 A 
ATOM      3  C   UNL     1       0.456  -0.810   0.071  0.00  0.00    +0.000 A 
ATOM      4  C   UNL     1      -0.795  -1.393   0.334  0.00  0.00    +0.000 A 
ATOM      5  C   UNL     1      -1.947  -0.627   0.521  0.00  0.00    +0.000 A 
ATOM      6  C   UNL     1      -1.870   0.755   0.402  0.00  0.00    +0.000 A 
ATOM      7  C   UNL     1      -0.648   1.359   0.101  0.00  0.00    +0.000 A 
ATOM      8  C   UNL     1       1.677  -1.668  -0.115  0.00  0.00    +0.000 C 
ENDROOT
BRANCH   4   9
ATOM      9  O   UNL     1      -0.900  -2.780   0.498  0.00  0.00    +0.000 OA
BRANCH   9  10
ATOM     10  C   UNL     1      -1.306  -3.460  -0.651  0.00  0.00    +0.000 C 
ATOM     11  O   UNL     1      -1.566  -2.934  -1.728  0.00  0.00    +0.000 OA
BRANCH  10  12
ATOM     12  C   UNL     1      -1.363  -4.883  -0.357  0.00  0.00    +0.000 A 
ATOM     13  C   UNL     1      -1.073  -5.556   0.818  0.00  0.00    +0.000 A 
ATOM     14  C   UNL     1      -1.254  -6.966   0.701  0.00  0.00    +0.000 A 
ATOM     15  C   UNL     1      -1.677  -7.327  -0.557  0.00  0.00    +0.000 A 
ATOM     16  S   UNL     1      -1.852  -5.975  -1.587  0.00  0.00    +0.000 S 
ENDBRANCH  10  12
ENDBRANCH   9  10
ENDBRANCH   4   9
TORSDOF 3
