REMARK  Name = *****
REMARK  5 active torsions:
REMARK  status: ('A' for Active; 'I' for Inactive)
REMARK    1  A    between atoms: C_1  and  C_2
REMARK    2  A    between atoms: C_2  and  P_3
REMARK    3  A    between atoms: C_2  and  P_10
REMARK    4  A    between atoms: P_3  and  C_4
REMARK    5  A    between atoms: P_10  and  C_11
REMARK                            x       y       z     vdW  Elec       q    Type
REMARK                         _______ _______ _______ _____ _____    ______ ____
ROOT
ATOM      1  C   UNL     1       0.893  -0.243  -0.058  0.00  0.00    +0.000 C 
ATOM      2  C   UNL     1       2.377   0.005   0.229  0.00  0.00    +0.000 C 
ENDROOT
BRANCH   2   3
ATOM      3  P   UNL     1       2.660   1.876   0.324  0.00  0.00    +0.000 P 
ATOM      4  H   UNL     1       2.164   2.406   1.498  0.00  0.00    +0.000 HD
BRANCH   3   5
ATOM      5  C   UNL     1       4.477   1.950   0.272  0.00  0.00    +0.000 A 
ATOM      6  C   UNL     1       5.158   1.743  -0.935  0.00  0.00    +0.000 A 
ATOM      7  C   UNL     1       6.553   1.801  -0.984  0.00  0.00    +0.000 A 
ATOM      8  C   UNL     1       7.281   2.072   0.172  0.00  0.00    +0.000 A 
ATOM      9  C   UNL     1       6.615   2.288   1.376  0.00  0.00    +0.000 A 
ATOM     10  C   UNL     1       5.219   2.231   1.426  0.00  0.00    +0.000 A 
ENDBRANCH   3   5
ENDBRANCH   2   3
BRANCH   2  11
ATOM     11  P   UNL     1       2.925  -0.881   1.797  0.00  0.00    +0.000 P 
ATOM     12  H   UNL     1       2.120  -0.555   2.870  0.00  0.00    +0.000 HD
BRANCH  11  13
ATOM     13  C   UNL     1       2.718  -2.618   1.312  0.00  0.00    +0.000 A 
ATOM     14  C   UNL     1       3.590  -3.202   0.383  0.00  0.00    +0.000 A 
ATOM     15  C   UNL     1       3.435  -4.538   0.006  0.00  0.00    +0.000 A 
ATOM     16  C   UNL     1       2.412  -5.305   0.559  0.00  0.00    +0.000 A 
ATOM     17  C   UNL     1       1.546  -4.738   1.492  0.00  0.00    +0.000 A 
ATOM     18  C   UNL     1       1.700  -3.402   1.870  0.00  0.00    +0.000 A 
ENDBRANCH  11  13
ENDBRANCH   2  11
TORSDOF 4
