REMARK  Name = *****
REMARK  4 active torsions:
REMARK  status: ('A' for Active; 'I' for Inactive)
REMARK    1  A    between atoms: C_1  and  C_2
REMARK    2  A    between atoms: C_5  and  C_7
REMARK    3  A    between atoms: C_7  and  S_8
REMARK    4  A    between atoms: S_8  and  C_9
REMARK                            x       y       z     vdW  Elec       q    Type
REMARK                         _______ _______ _______ _____ _____    ______ ____
ROOT
ATOM      1  C   UNL     1      -3.084   0.550  -0.045  0.00  0.00    +0.000 C 
ENDROOT
BRANCH   1   6
ATOM      2  C   UNL     1       1.725  -1.264  -1.501  0.00  0.00    +0.000 C 
ATOM      3  C   UNL     1       0.535  -0.842  -0.711  0.00  0.00    +0.000 A 
ATOM      4  C   UNL     1       0.365  -0.854   0.657  0.00  0.00    +0.000 A 
ATOM      5  C   UNL     1      -0.918  -0.371   1.045  0.00  0.00    +0.000 A 
ATOM      6  C   UNL     1      -1.694  -0.009  -0.040  0.00  0.00    +0.000 A 
ATOM      7  S   UNL     1      -0.854  -0.251  -1.514  0.00  0.00    +0.000 S 
ENDBRANCH   1   6
BRANCH   1   8
ATOM      8  S   UNL     1      -4.306  -0.758   0.313  0.00  0.00    +0.000 S 
BRANCH   8   9
ATOM      9  C   UNL     1      -5.818   0.137   0.007  0.00  0.00    +0.000 A 
ATOM     10  C   UNL     1      -6.738  -0.384  -0.909  0.00  0.00    +0.000 A 
ATOM     11  C   UNL     1      -7.936   0.287  -1.167  0.00  0.00    +0.000 A 
ATOM     12  C   UNL     1      -8.224   1.478  -0.504  0.00  0.00    +0.000 A 
ATOM     13  C   UNL     1      -7.319   1.996   0.421  0.00  0.00    +0.000 A 
ATOM     14  C   UNL     1      -6.122   1.325   0.680  0.00  0.00    +0.000 A 
ENDBRANCH   8   9
ENDBRANCH   1   8
TORSDOF 3
