REMARK  Name = *****
REMARK  6 active torsions:
REMARK  status: ('A' for Active; 'I' for Inactive)
REMARK    1  A    between atoms: C_1  and  C_2
REMARK    2  A    between atoms: C_4  and  C_17
REMARK    3  A    between atoms: C_5  and  C_8
REMARK    4  A    between atoms: C_8  and  C_10
REMARK    5  A    between atoms: C_10  and  C_11
REMARK    6  A    between atoms: C_11  and  C_12
REMARK                            x       y       z     vdW  Elec       q    Type
REMARK                         _______ _______ _______ _____ _____    ______ ____
ROOT
ATOM      1  C   UNL     1      -2.658  -1.668   0.122  0.00  0.00    +0.000 C 
ATOM      2  O   UNL     1      -3.552  -0.997   0.631  0.00  0.00    +0.000 OA
ENDROOT
BRANCH   1   7
ATOM      3  C   UNL     1       1.484   0.858  -3.052  0.00  0.00    +0.000 C 
ATOM      4  C   UNL     1       0.398   0.221  -2.235  0.00  0.00    +0.000 A 
ATOM      5  C   UNL     1       0.044   0.756  -0.989  0.00  0.00    +0.000 A 
ATOM      6  C   UNL     1      -0.945   0.156  -0.191  0.00  0.00    +0.000 A 
ATOM      7  C   UNL     1      -1.585  -1.004  -0.667  0.00  0.00    +0.000 A 
ATOM      8  C   UNL     1      -1.229  -1.545  -1.910  0.00  0.00    +0.000 A 
ATOM      9  C   UNL     1      -0.237  -0.941  -2.684  0.00  0.00    +0.000 A 
ATOM     10  C   UNL     1      -1.299   0.784   1.129  0.00  0.00    +0.000 C 
ENDBRANCH   1   7
BRANCH   1  11
ATOM     11  C   UNL     1      -2.594  -3.175   0.291  0.00  0.00    +0.000 C 
BRANCH  11  12
ATOM     12  C   UNL     1      -3.839  -3.837  -0.293  0.00  0.00    +0.000 C 
BRANCH  12  13
ATOM     13  C   UNL     1      -3.841  -5.354  -0.097  0.00  0.00    +0.000 C 
ATOM     14  C   UNL     1      -2.741  -6.089  -0.864  0.00  0.00    +0.000 C 
ATOM     15  C   UNL     1      -3.248  -7.523  -1.010  0.00  0.00    +0.000 C 
ATOM     16  C   UNL     1      -4.741  -7.488  -0.687  0.00  0.00    +0.000 C 
ATOM     17  C   UNL     1      -5.110  -6.013  -0.632  0.00  0.00    +0.000 C 
ENDBRANCH  12  13
ENDBRANCH  11  12
ENDBRANCH   1  11
TORSDOF 4
