REMARK  Name = *****
REMARK  3 active torsions:
REMARK  status: ('A' for Active; 'I' for Inactive)
REMARK    1  A    between atoms: C_1  and  C_2
REMARK    2  A    between atoms: C_5  and  C_8
REMARK    3  A    between atoms: C_9  and  C_11
REMARK                            x       y       z     vdW  Elec       q    Type
REMARK                         _______ _______ _______ _____ _____    ______ ____
ROOT
ATOM      1  C   UNL     1      -3.995  -0.291   0.040  0.00  0.00    +0.000 C 
ATOM      2  C   UNL     1      -5.194   0.642   0.129  0.00  0.00    +0.000 C 
ATOM      3  O   UNL     1      -4.850  -0.040  -1.088  0.00  0.00    +0.000 OA
ENDROOT
BRANCH   1   8
ATOM      4  C   UNL     1       1.506   1.687  -0.122  0.00  0.00    +0.000 C 
ATOM      5  C   UNL     1       0.087   1.206  -0.085  0.00  0.00    +0.000 A 
ATOM      6  C   UNL     1      -0.567   1.015   1.134  0.00  0.00    +0.000 A 
ATOM      7  C   UNL     1      -1.881   0.537   1.165  0.00  0.00    +0.000 A 
ATOM      8  C   UNL     1      -2.581   0.231  -0.013  0.00  0.00    +0.000 A 
ATOM      9  C   UNL     1      -1.899   0.407  -1.228  0.00  0.00    +0.000 A 
ATOM     10  C   UNL     1      -0.585   0.885  -1.267  0.00  0.00    +0.000 A 
ENDBRANCH   1   8
BRANCH   2  11
ATOM     11  C   UNL     1      -5.037   2.143   0.164  0.00  0.00    +0.000 A 
ATOM     12  C   UNL     1      -5.162   2.929  -0.996  0.00  0.00    +0.000 A 
ATOM     13  C   UNL     1      -5.021   4.319  -0.956  0.00  0.00    +0.000 A 
ATOM     14  C   UNL     1      -4.755   4.950   0.254  0.00  0.00    +0.000 A 
ATOM     15  C   UNL     1      -4.633   4.203   1.421  0.00  0.00    +0.000 A 
ATOM     16  C   UNL     1      -4.776   2.813   1.373  0.00  0.00    +0.000 A 
ATOM     17 CL   UNL     1      -4.580   6.660   0.310  0.00  0.00    +0.000 Cl
ENDBRANCH   2  11
TORSDOF 2
