REMARK  Name = *****
REMARK  2 active torsions:
REMARK  status: ('A' for Active; 'I' for Inactive)
REMARK    1  A    between atoms: C_4  and  C_7
REMARK    2  A    between atoms: C_8  and  C_9
REMARK                            x       y       z     vdW  Elec       q    Type
REMARK                         _______ _______ _______ _____ _____    ______ ____
ROOT
ATOM      1  C   UNL     1       2.900   0.153  -0.271  0.00  0.00    +0.000 C 
ATOM      2  C   UNL     1       4.096   0.207  -0.376  0.00  0.00    +0.000 C 
ENDROOT
BRANCH   1   6
ATOM      3  C   UNL     1      -1.303  -0.046   0.088  0.00  0.00    +0.000 A 
ATOM      4  C   UNL     1      -0.667   1.194   0.028  0.00  0.00    +0.000 A 
ATOM      5  C   UNL     1       0.723   1.260  -0.091  0.00  0.00    +0.000 A 
ATOM      6  C   UNL     1       1.477   0.086  -0.148  0.00  0.00    +0.000 A 
ATOM      7  C   UNL     1       0.838  -1.155  -0.087  0.00  0.00    +0.000 A 
ATOM      8  C   UNL     1      -0.552  -1.220   0.031  0.00  0.00    +0.000 A 
ENDBRANCH   1   6
BRANCH   2   9
ATOM      9  C   UNL     1       5.511   0.268  -0.502  0.00  0.00    +0.000 A 
ATOM     10  C   UNL     1       6.261   1.418  -0.565  0.00  0.00    +0.000 A 
ATOM     11  O   UNL     1       7.581   1.114  -0.684  0.00  0.00    +0.000 OA
ATOM     12  C   UNL     1       7.672  -0.242  -0.697  0.00  0.00    +0.000 A 
ATOM     13  C   UNL     1       6.423  -0.810  -0.587  0.00  0.00    +0.000 A 
ENDBRANCH   2   9
TORSDOF 2
