REMARK  Name = *****
REMARK  1 active torsions:
REMARK  status: ('A' for Active; 'I' for Inactive)
REMARK    1  A    between atoms: C_4  and  C_7
REMARK                            x       y       z     vdW  Elec       q    Type
REMARK                         _______ _______ _______ _____ _____    ______ ____
ROOT
ATOM      1  C   UNL     1      -3.060   0.142  -0.545  0.00  0.00    +0.000 A 
ATOM      2  N   UNL     1      -3.851   0.925  -1.261  0.00  0.00    +0.000 NA
ATOM      3  C   UNL     1      -5.113   0.480  -0.962  0.00  0.00    +0.000 A 
ATOM      4  C   UNL     1      -5.039  -0.570  -0.062  0.00  0.00    +0.000 A 
ATOM      5  O   UNL     1      -3.721  -0.794   0.212  0.00  0.00    +0.000 OA
ATOM      6  C   UNL     1      -6.149  -1.236   0.435  0.00  0.00    +0.000 A 
ATOM      7  C   UNL     1      -7.401  -0.809  -0.011  0.00  0.00    +0.000 A 
ATOM      8  C   UNL     1      -7.514   0.249  -0.920  0.00  0.00    +0.000 A 
ATOM      9  C   UNL     1      -6.372   0.907  -1.408  0.00  0.00    +0.000 A 
ATOM     10  F   UNL     1      -6.044  -2.248   1.304  0.00  0.00    +0.000 F 
ENDROOT
BRANCH   1  14
ATOM     11  C   UNL     1       1.209   0.192  -0.334  0.00  0.00    +0.000 A 
ATOM     12  C   UNL     1       0.531   1.105  -1.139  0.00  0.00    +0.000 A 
ATOM     13  C   UNL     1      -0.865   1.080  -1.200  0.00  0.00    +0.000 A 
ATOM     14  C   UNL     1      -1.602   0.144  -0.458  0.00  0.00    +0.000 A 
ATOM     15  C   UNL     1      -0.903  -0.768   0.349  0.00  0.00    +0.000 A 
ATOM     16  C   UNL     1       0.493  -0.744   0.410  0.00  0.00    +0.000 A 
ENDBRANCH   1  14
TORSDOF 1
