REMARK  Name = *****
REMARK  4 active torsions:
REMARK  status: ('A' for Active; 'I' for Inactive)
REMARK    1  A    between atoms: C_1  and  O_2
REMARK    2  A    between atoms: O_2  and  C_3
REMARK    3  A    between atoms: C_7  and  C_9
REMARK    4  A    between atoms: C_10  and  C_11
REMARK                            x       y       z     vdW  Elec       q    Type
REMARK                         _______ _______ _______ _____ _____    ______ ____
ROOT
ATOM      1  C   UNL     1       3.383   1.077   0.645  0.00  0.00    +0.000 A 
ATOM      2  C   UNL     1       2.646   2.147   1.150  0.00  0.00    +0.000 A 
ATOM      3  C   UNL     1       3.153   3.445   1.068  0.00  0.00    +0.000 A 
ATOM      4  C   UNL     1       4.401   3.678   0.485  0.00  0.00    +0.000 A 
ATOM      5  C   UNL     1       5.163   2.614  -0.011  0.00  0.00    +0.000 A 
ATOM      6  C   UNL     1       4.633   1.319   0.063  0.00  0.00    +0.000 A 
ENDROOT
BRANCH   1   8
ATOM      7  C   UNL     1       1.747  -0.540   1.249  0.00  0.00    +0.000 C 
ATOM      8  O   UNL     1       3.001  -0.237   0.652  0.00  0.00    +0.000 OA
ENDBRANCH   1   8
BRANCH   5   9
ATOM      9  C   UNL     1       6.468   2.811  -0.660  0.00  0.00    +0.000 C 
ATOM     10  C   UNL     1       7.356   3.753  -0.300  0.00  0.00    +0.000 C 
BRANCH  10  11
ATOM     11  C   UNL     1       8.670   3.938  -0.936  0.00  0.00    +0.000 A 
ATOM     12  C   UNL     1       8.882   3.723  -2.304  0.00  0.00    +0.000 A 
ATOM     13  C   UNL     1      10.140   3.943  -2.873  0.00  0.00    +0.000 A 
ATOM     14  C   UNL     1      11.196   4.391  -2.083  0.00  0.00    +0.000 A 
ATOM     15  C   UNL     1      10.994   4.626  -0.725  0.00  0.00    +0.000 A 
ATOM     16  C   UNL     1       9.737   4.405  -0.156  0.00  0.00    +0.000 A 
ENDBRANCH  10  11
ENDBRANCH   5   9
TORSDOF 3
