REMARK  Name = *****
REMARK  3 active torsions:
REMARK  status: ('A' for Active; 'I' for Inactive)
REMARK    1  A    between atoms: C_4  and  C_7
REMARK    2  A    between atoms: C_7  and  O_8
REMARK    3  A    between atoms: O_8  and  C_9
REMARK                            x       y       z     vdW  Elec       q    Type
REMARK                         _______ _______ _______ _____ _____    ______ ____
ROOT
ATOM      1  O   UNL     1      -3.577  -0.738  -0.141  0.00  0.00    +0.000 OA
ENDROOT
BRANCH   1   2
ATOM      2  C   UNL     1      -4.941  -0.582  -0.273  0.00  0.00    +0.000 A 
ATOM      3  N   UNL     1      -5.470   0.651  -0.427  0.00  0.00    +0.000 NA
ATOM      4  C   UNL     1      -6.818   0.719  -0.549  0.00  0.00    +0.000 A 
ATOM      5  C   UNL     1      -7.652  -0.389  -0.525  0.00  0.00    +0.000 A 
ATOM      6  C   UNL     1      -7.080  -1.646  -0.365  0.00  0.00    +0.000 A 
ATOM      7  C   UNL     1      -5.696  -1.746  -0.236  0.00  0.00    +0.000 A 
ATOM      8 BR   UNL     1      -9.518  -0.198  -0.703  0.00  0.00    +0.000 Br
ENDBRANCH   1   2
BRANCH   1   9
ATOM      9  C   UNL     1      -2.864   0.498  -0.206  0.00  0.00    +0.000 C 
BRANCH   9  13
ATOM     10  C   UNL     1       1.382  -0.241   0.101  0.00  0.00    +0.000 A 
ATOM     11  C   UNL     1       0.604  -1.001  -0.770  0.00  0.00    +0.000 A 
ATOM     12  C   UNL     1      -0.769  -0.769  -0.865  0.00  0.00    +0.000 A 
ATOM     13  C   UNL     1      -1.382   0.221  -0.081  0.00  0.00    +0.000 A 
ATOM     14  C   UNL     1      -0.586   0.986   0.783  0.00  0.00    +0.000 A 
ATOM     15  C   UNL     1       0.788   0.753   0.876  0.00  0.00    +0.000 A 
ENDBRANCH   9  13
ENDBRANCH   1   9
TORSDOF 3
