REMARK  Name = *****
REMARK  3 active torsions:
REMARK  status: ('A' for Active; 'I' for Inactive)
REMARK    1  A    between atoms: C_1  and  C_2
REMARK    2  A    between atoms: C_3  and  C_9
REMARK    3  A    between atoms: N_10  and  C_11
REMARK                            x       y       z     vdW  Elec       q    Type
REMARK                         _______ _______ _______ _____ _____    ______ ____
ROOT
ATOM      1  C   UNL     1      -2.959   1.428  -0.054  0.00  0.00    +0.000 C 
ATOM      2  C   UNL     1      -1.758   0.520  -0.010  0.00  0.00    +0.000 A 
ATOM      3  C   UNL     1      -0.437   0.987   0.193  0.00  0.00    +0.000 A 
ATOM      4  C   UNL     1       0.621   0.058   0.238  0.00  0.00    +0.000 A 
ATOM      5  C   UNL     1       0.375  -1.309   0.074  0.00  0.00    +0.000 A 
ATOM      6  C   UNL     1      -0.920  -1.767  -0.138  0.00  0.00    +0.000 A 
ATOM      7  C   UNL     1      -1.976  -0.860  -0.181  0.00  0.00    +0.000 A 
ATOM      8 CL   UNL     1       2.278   0.514   0.462  0.00  0.00    +0.000 Cl
ENDROOT
BRANCH   3   9
ATOM      9  C   UNL     1      -0.126   2.430   0.372  0.00  0.00    +0.000 C 
ATOM     10  N   UNL     1      -0.919   3.382  -0.012  0.00  0.00    +0.000 NA
BRANCH  10  11
ATOM     11  C   UNL     1      -0.470   4.688   0.227  0.00  0.00    +0.000 A 
ATOM     12  C   UNL     1       0.249   5.374  -0.754  0.00  0.00    +0.000 A 
ATOM     13  C   UNL     1       0.688   6.680  -0.525  0.00  0.00    +0.000 A 
ATOM     14  C   UNL     1       0.399   7.309   0.686  0.00  0.00    +0.000 A 
ATOM     15  C   UNL     1      -0.332   6.635   1.664  0.00  0.00    +0.000 A 
ATOM     16  C   UNL     1      -0.769   5.330   1.431  0.00  0.00    +0.000 A 
ENDBRANCH  10  11
ENDBRANCH   3   9
TORSDOF 2
