REMARK  Name = *****
REMARK  4 active torsions:
REMARK  status: ('A' for Active; 'I' for Inactive)
REMARK    1  A    between atoms: C_1  and  C_2
REMARK    2  A    between atoms: C_2  and  C_4
REMARK    3  A    between atoms: C_7  and  C_9
REMARK    4  A    between atoms: C_10  and  C_11
REMARK                            x       y       z     vdW  Elec       q    Type
REMARK                         _______ _______ _______ _____ _____    ______ ____
ROOT
ATOM      1  C   UNL     1       3.380   0.276   1.289  0.00  0.00    +0.000 A 
ATOM      2  C   UNL     1       3.060  -0.259   2.524  0.00  0.00    +0.000 A 
ATOM      3  C   UNL     1       3.910   0.216   3.565  0.00  0.00    +0.000 A 
ATOM      4  C   UNL     1       4.854   1.101   3.096  0.00  0.00    +0.000 A 
ATOM      5  S   UNL     1       4.709   1.348   1.414  0.00  0.00    +0.000 S 
ENDROOT
BRANCH   1   7
ATOM      6  C   UNL     1       3.197   0.676  -1.234  0.00  0.00    +0.000 C 
ATOM      7  C   UNL     1       2.707  -0.002   0.025  0.00  0.00    +0.000 C 
ATOM      8  O   UNL     1       1.750  -0.777  -0.046  0.00  0.00    +0.000 OA
ENDBRANCH   1   7
BRANCH   4   9
ATOM      9  C   UNL     1       5.841   1.744   3.898  0.00  0.00    +0.000 C 
ATOM     10  C   UNL     1       6.673   2.289   4.571  0.00  0.00    +0.000 C 
BRANCH  10  11
ATOM     11  C   UNL     1       7.665   2.943   5.367  0.00  0.00    +0.000 A 
ATOM     12  C   UNL     1       8.552   3.846   4.776  0.00  0.00    +0.000 A 
ATOM     13  C   UNL     1       9.519   4.486   5.554  0.00  0.00    +0.000 A 
ATOM     14  C   UNL     1       9.602   4.223   6.921  0.00  0.00    +0.000 A 
ATOM     15  C   UNL     1       8.718   3.321   7.513  0.00  0.00    +0.000 A 
ATOM     16  C   UNL     1       7.749   2.680   6.737  0.00  0.00    +0.000 A 
ENDBRANCH  10  11
ENDBRANCH   4   9
TORSDOF 3
