REMARK  Name = *****
REMARK  4 active torsions:
REMARK  status: ('A' for Active; 'I' for Inactive)
REMARK    1  A    between atoms: C_1  and  N_2
REMARK    2  A    between atoms: N_2  and  C_3
REMARK    3  A    between atoms: N_2  and  C_11
REMARK    4  A    between atoms: C_3  and  C_4
REMARK                            x       y       z     vdW  Elec       q    Type
REMARK                         _______ _______ _______ _____ _____    ______ ____
ROOT
ATOM      1  C   UNL     1       1.107  -0.017  -0.023  0.00  0.00    +0.000 C 
ATOM      2  N   UNL     1       2.551  -0.037  -0.232  0.00  0.00    +0.000 N 
ENDROOT
BRANCH   2   3
ATOM      3  C   UNL     1       3.146   0.885  -1.096  0.00  0.00    +0.000 A 
ATOM      4  C   UNL     1       2.414   1.897  -1.742  0.00  0.00    +0.000 A 
ATOM      5  C   UNL     1       3.014   2.812  -2.618  0.00  0.00    +0.000 A 
ATOM      6  C   UNL     1       4.375   2.733  -2.885  0.00  0.00    +0.000 A 
ATOM      7  C   UNL     1       5.128   1.736  -2.279  0.00  0.00    +0.000 A 
ATOM      8  C   UNL     1       4.518   0.828  -1.403  0.00  0.00    +0.000 A 
ENDBRANCH   2   3
BRANCH   2   9
ATOM      9  C   UNL     1       3.345  -0.625   0.857  0.00  0.00    +0.000 C 
BRANCH   9  10
ATOM     10  C   UNL     1       3.954  -1.972   0.504  0.00  0.00    +0.000 A 
ATOM     11  C   UNL     1       5.023  -2.457   1.277  0.00  0.00    +0.000 A 
ATOM     12  C   UNL     1       5.594  -3.703   1.005  0.00  0.00    +0.000 A 
ATOM     13  C   UNL     1       5.095  -4.480  -0.037  0.00  0.00    +0.000 A 
ATOM     14  C   UNL     1       4.029  -4.023  -0.807  0.00  0.00    +0.000 A 
ATOM     15  C   UNL     1       3.458  -2.777  -0.533  0.00  0.00    +0.000 A 
ATOM     16 CL   UNL     1       5.798  -6.014  -0.372  0.00  0.00    +0.000 Cl
ENDBRANCH   9  10
ENDBRANCH   2   9
TORSDOF 3
