REMARK  Name = *****
REMARK  2 active torsions:
REMARK  status: ('A' for Active; 'I' for Inactive)
REMARK    1  A    between atoms: C_1  and  C_2
REMARK    2  A    between atoms: C_7  and  N_8
REMARK                            x       y       z     vdW  Elec       q    Type
REMARK                         _______ _______ _______ _____ _____    ______ ____
ROOT
ATOM      1  N   UNL     1       1.888  -0.894   0.927  0.00  0.00    +0.000 N 
ATOM      2  C   UNL     1       1.846  -1.798   2.087  0.00  0.00    +0.000 C 
ATOM      3  C   UNL     1       3.185  -1.681   2.745  0.00  0.00    +0.000 A 
ATOM      4  C   UNL     1       3.718  -2.520   3.716  0.00  0.00    +0.000 A 
ATOM      5  C   UNL     1       4.995  -2.247   4.211  0.00  0.00    +0.000 A 
ATOM      6  C   UNL     1       5.723  -1.145   3.737  0.00  0.00    +0.000 A 
ATOM      7  C   UNL     1       5.177  -0.302   2.768  0.00  0.00    +0.000 A 
ATOM      8  C   UNL     1       3.905  -0.580   2.289  0.00  0.00    +0.000 A 
ATOM      9  S   UNL     1       3.006   0.380   1.080  0.00  0.00    +0.000 S 
ATOM     10  O   UNL     1       3.898   0.446  -0.122  0.00  0.00    +0.000 OA
ENDROOT
BRANCH   1  17
ATOM     11  C   UNL     1       1.387  -1.603  -1.824  0.00  0.00    +0.000 C 
ATOM     12  C   UNL     1       0.353  -0.921  -0.968  0.00  0.00    +0.000 A 
ATOM     13  C   UNL     1      -0.894  -0.592  -1.525  0.00  0.00    +0.000 A 
ATOM     14  C   UNL     1      -1.862   0.064  -0.766  0.00  0.00    +0.000 A 
ATOM     15  C   UNL     1      -1.593   0.408   0.554  0.00  0.00    +0.000 A 
ATOM     16  C   UNL     1      -0.354   0.095   1.116  0.00  0.00    +0.000 A 
ATOM     17  C   UNL     1       0.633  -0.574   0.370  0.00  0.00    +0.000 A 
ENDBRANCH   1  17
TORSDOF 1
