REMARK  Name = *****
REMARK  5 active torsions:
REMARK  status: ('A' for Active; 'I' for Inactive)
REMARK    1  A    between atoms: C_1  and  O_2
REMARK    2  A    between atoms: O_2  and  C_3
REMARK    3  A    between atoms: C_8  and  S_9
REMARK    4  A    between atoms: S_9  and  C_10
REMARK    5  A    between atoms: C_10  and  C_11
REMARK                            x       y       z     vdW  Elec       q    Type
REMARK                         _______ _______ _______ _____ _____    ______ ____
ROOT
ATOM      1  C   UNL     1       3.020  -0.415   1.028  0.00  0.00    +0.000 A 
ATOM      2  C   UNL     1       2.648  -1.357   1.996  0.00  0.00    +0.000 A 
ATOM      3  C   UNL     1       3.449  -1.578   3.120  0.00  0.00    +0.000 A 
ATOM      4  C   UNL     1       4.630  -0.863   3.288  0.00  0.00    +0.000 A 
ATOM      5  C   UNL     1       5.008   0.082   2.336  0.00  0.00    +0.000 A 
ATOM      6  C   UNL     1       4.206   0.325   1.211  0.00  0.00    +0.000 A 
ENDROOT
BRANCH   1   8
ATOM      7  C   UNL     1       1.208  -1.025  -0.406  0.00  0.00    +0.000 C 
ATOM      8  O   UNL     1       2.293  -0.157  -0.106  0.00  0.00    +0.000 OA
ENDBRANCH   1   8
BRANCH   6   9
ATOM      9  S   UNL     1       4.802   1.562   0.054  0.00  0.00    +0.000 S 
BRANCH   9  10
ATOM     10  C   UNL     1       3.399   2.726   0.092  0.00  0.00    +0.000 C 
BRANCH  10  11
ATOM     11  C   UNL     1       3.783   4.066  -0.486  0.00  0.00    +0.000 A 
ATOM     12  C   UNL     1       3.685   4.302  -1.865  0.00  0.00    +0.000 A 
ATOM     13  C   UNL     1       4.049   5.539  -2.400  0.00  0.00    +0.000 A 
ATOM     14  C   UNL     1       4.518   6.550  -1.564  0.00  0.00    +0.000 A 
ATOM     15  C   UNL     1       4.629   6.325  -0.193  0.00  0.00    +0.000 A 
ATOM     16  C   UNL     1       4.266   5.089   0.344  0.00  0.00    +0.000 A 
ENDBRANCH  10  11
ENDBRANCH   9  10
ENDBRANCH   6   9
TORSDOF 4
