REMARK  Name = *****
REMARK  6 active torsions:
REMARK  status: ('A' for Active; 'I' for Inactive)
REMARK    1  A    between atoms: C_1  and  O_2
REMARK    2  A    between atoms: O_2  and  C_3
REMARK    3  A    between atoms: C_3  and  C_5
REMARK    4  A    between atoms: C_6  and  S_10
REMARK    5  A    between atoms: S_10  and  C_11
REMARK    6  A    between atoms: C_11  and  C_12
REMARK                            x       y       z     vdW  Elec       q    Type
REMARK                         _______ _______ _______ _____ _____    ______ ____
ROOT
ATOM      1  C   UNL     1       4.795   0.778  -0.642  0.00  0.00    +0.000 C 
ATOM      2  C   UNL     1       5.499  -0.326  -0.940  0.00  0.00    +0.000 C 
ATOM      3  C   UNL     1       6.993  -0.127  -0.905  0.00  0.00    +0.000 C 
ATOM      4  C   UNL     1       7.268   1.374  -0.967  0.00  0.00    +0.000 C 
ATOM      5  S   UNL     1       5.785   2.166  -0.280  0.00  0.00    +0.000 S 
ENDROOT
BRANCH   1   6
ATOM      6  C   UNL     1       3.318   0.900  -0.574  0.00  0.00    +0.000 C 
ATOM      7  O   UNL     1       2.584   0.111   0.001  0.00  0.00    +0.000 OA
BRANCH   6   9
ATOM      8  C   UNL     1       1.505   2.219  -1.234  0.00  0.00    +0.000 C 
ATOM      9  O   UNL     1       2.916   2.012  -1.247  0.00  0.00    +0.000 OA
ENDBRANCH   6   9
ENDBRANCH   1   6
BRANCH   2  10
ATOM     10  S   UNL     1       4.824  -1.844  -1.423  0.00  0.00    +0.000 S 
BRANCH  10  11
ATOM     11  C   UNL     1       5.683  -2.983  -0.297  0.00  0.00    +0.000 C 
BRANCH  11  12
ATOM     12  C   UNL     1       5.197  -4.402  -0.452  0.00  0.00    +0.000 A 
ATOM     13  C   UNL     1       5.701  -5.223  -1.471  0.00  0.00    +0.000 A 
ATOM     14  C   UNL     1       5.251  -6.537  -1.612  0.00  0.00    +0.000 A 
ATOM     15  C   UNL     1       4.291  -7.042  -0.738  0.00  0.00    +0.000 A 
ATOM     16  C   UNL     1       3.775  -6.233   0.273  0.00  0.00    +0.000 A 
ATOM     17  C   UNL     1       4.222  -4.918   0.414  0.00  0.00    +0.000 A 
ENDBRANCH  11  12
ENDBRANCH  10  11
ENDBRANCH   2  10
TORSDOF 5
