REMARK  Name = *****
REMARK  5 active torsions:
REMARK  status: ('A' for Active; 'I' for Inactive)
REMARK    1  A    between atoms: C_1  and  C_2
REMARK    2  A    between atoms: C_5  and  C_7
REMARK    3  A    between atoms: C_7  and  C_8
REMARK    4  A    between atoms: C_8  and  C_10
REMARK    5  A    between atoms: C_12  and  C_15
REMARK                            x       y       z     vdW  Elec       q    Type
REMARK                         _______ _______ _______ _____ _____    ______ ____
ROOT
ATOM      1  C   UNL     1      -1.619   2.567   0.065  0.00  0.00    +0.000 C 
ATOM      2 CL   UNL     1      -3.401   2.390   0.232  0.00  0.00    +0.000 Cl
ENDROOT
BRANCH   1   7
ATOM      3  C   UNL     1      -0.352  -2.372  -0.763  0.00  0.00    +0.000 C 
ATOM      4  C   UNL     1      -0.339  -1.022  -0.128  0.00  0.00    +0.000 A 
ATOM      5  C   UNL     1       0.430  -0.666   0.961  0.00  0.00    +0.000 A 
ATOM      6  S   UNL     1       0.187   0.954   1.442  0.00  0.00    +0.000 S 
ATOM      7  C   UNL     1      -0.961   1.222   0.198  0.00  0.00    +0.000 A 
ATOM      8  C   UNL     1      -1.140   0.081  -0.565  0.00  0.00    +0.000 A 
ENDBRANCH   1   7
BRANCH   1   9
ATOM      9  C   UNL     1      -1.302   3.175  -1.308  0.00  0.00    +0.000 C 
ATOM     10  O   UNL     1      -1.914   2.810  -2.319  0.00  0.00    +0.000 OA
BRANCH   9  11
ATOM     11  C   UNL     1      -0.251   4.191  -1.414  0.00  0.00    +0.000 A 
ATOM     12  C   UNL     1       0.057   4.924  -2.549  0.00  0.00    +0.000 A 
ATOM     13  C   UNL     1       1.129   5.852  -2.358  0.00  0.00    +0.000 A 
ATOM     14  C   UNL     1       1.611   5.776  -1.066  0.00  0.00    +0.000 A 
ATOM     15  S   UNL     1       0.787   4.615  -0.125  0.00  0.00    +0.000 S 
ATOM     16  C   UNL     1       1.654   6.776  -3.404  0.00  0.00    +0.000 C 
ENDBRANCH   9  11
ENDBRANCH   1   9
TORSDOF 3
