REMARK  Name = *****
REMARK  7 active torsions:
REMARK  status: ('A' for Active; 'I' for Inactive)
REMARK    1  A    between atoms: C_1  and  C_2
REMARK    2  A    between atoms: C_4  and  C_17
REMARK    3  A    between atoms: C_5  and  P_9
REMARK    4  A    between atoms: C_6  and  C_8
REMARK    5  A    between atoms: P_9  and  C_10
REMARK    6  A    between atoms: C_10  and  C_11
REMARK    7  A    between atoms: C_11  and  C_12
REMARK                            x       y       z     vdW  Elec       q    Type
REMARK                         _______ _______ _______ _____ _____    ______ ____
ROOT
ATOM      1  C   UNL     1       2.146   1.808   0.293  0.00  0.00    +0.000 C 
ATOM      2  C   UNL     1       1.114   0.728   0.151  0.00  0.00    +0.000 A 
ATOM      3  C   UNL     1       1.381  -0.413  -0.605  0.00  0.00    +0.000 A 
ATOM      4  C   UNL     1       0.418  -1.426  -0.777  0.00  0.00    +0.000 A 
ATOM      5  C   UNL     1      -0.857  -1.291  -0.170  0.00  0.00    +0.000 A 
ATOM      6  C   UNL     1      -1.146  -0.105   0.557  0.00  0.00    +0.000 A 
ATOM      7  C   UNL     1      -0.154   0.882   0.710  0.00  0.00    +0.000 A 
ATOM      8  C   UNL     1      -2.497   0.170   1.175  0.00  0.00    +0.000 C 
ATOM      9  C   UNL     1       0.805  -2.599  -1.643  0.00  0.00    +0.000 C 
ENDROOT
BRANCH   5  10
ATOM     10  P   UNL     1      -2.151  -2.599  -0.321  0.00  0.00    +0.000 P 
ATOM     11  H   UNL     1      -2.173  -3.147  -1.587  0.00  0.00    +0.000 HD
BRANCH  10  12
ATOM     12  C   UNL     1      -1.563  -3.824   0.943  0.00  0.00    +0.000 C 
BRANCH  12  13
ATOM     13  C   UNL     1      -1.814  -3.374   2.382  0.00  0.00    +0.000 C 
BRANCH  13  14
ATOM     14  C   UNL     1      -1.339  -4.414   3.406  0.00  0.00    +0.000 C 
ATOM     15  C   UNL     1      -2.184  -5.664   3.443  0.00  0.00    +0.000 C 
ATOM     16  C   UNL     1      -2.722  -5.819   4.663  0.00  0.00    +0.000 C 
ATOM     17  C   UNL     1      -2.299  -4.736   5.513  0.00  0.00    +0.000 C 
ATOM     18  C   UNL     1      -1.501  -3.912   4.821  0.00  0.00    +0.000 C 
ENDBRANCH  13  14
ENDBRANCH  12  13
ENDBRANCH  10  12
ENDBRANCH   5  10
TORSDOF 4
