REMARK  Name = *****
REMARK  4 active torsions:
REMARK  status: ('A' for Active; 'I' for Inactive)
REMARK    1  A    between atoms: C_4  and  C_7
REMARK    2  A    between atoms: C_7  and  O_8
REMARK    3  A    between atoms: O_8  and  S_9
REMARK    4  A    between atoms: S_9  and  C_10
REMARK                            x       y       z     vdW  Elec       q    Type
REMARK                         _______ _______ _______ _____ _____    ______ ____
ROOT
ATOM      1  O   UNL     1      -3.837  -0.376   0.800  0.00  0.00    +0.000 OA
ENDROOT
BRANCH   1   2
ATOM      2  C   UNL     1      -3.221   0.328  -0.276  0.00  0.00    +0.000 C 
BRANCH   2   6
ATOM      3  C   UNL     1       1.011  -0.478  -0.102  0.00  0.00    +0.000 A 
ATOM      4  C   UNL     1       0.180  -1.281  -0.880  0.00  0.00    +0.000 A 
ATOM      5  C   UNL     1      -1.190  -1.019  -0.940  0.00  0.00    +0.000 A 
ATOM      6  C   UNL     1      -1.739   0.056  -0.228  0.00  0.00    +0.000 A 
ATOM      7  C   UNL     1      -0.896   0.849   0.564  0.00  0.00    +0.000 A 
ATOM      8  C   UNL     1       0.473   0.585   0.623  0.00  0.00    +0.000 A 
ENDBRANCH   2   6
ENDBRANCH   1   2
BRANCH   1   9
ATOM      9  S   UNL     1      -5.502  -0.291   0.812  0.00  0.00    +0.000 S 
BRANCH   9  10
ATOM     10  C   UNL     1      -5.873  -1.826  -0.027  0.00  0.00    +0.000 A 
ATOM     11  C   UNL     1      -5.059  -2.957   0.103  0.00  0.00    +0.000 A 
ATOM     12  C   UNL     1      -5.382  -4.141  -0.564  0.00  0.00    +0.000 A 
ATOM     13  C   UNL     1      -6.523  -4.205  -1.361  0.00  0.00    +0.000 A 
ATOM     14  C   UNL     1      -7.344  -3.086  -1.490  0.00  0.00    +0.000 A 
ATOM     15  C   UNL     1      -7.021  -1.901  -0.824  0.00  0.00    +0.000 A 
ENDBRANCH   9  10
ENDBRANCH   1   9
TORSDOF 4
