REMARK  Name = *****
REMARK  4 active torsions:
REMARK  status: ('A' for Active; 'I' for Inactive)
REMARK    1  A    between atoms: C_1  and  O_2
REMARK    2  A    between atoms: O_2  and  C_3
REMARK    3  A    between atoms: C_8  and  C_9
REMARK    4  A    between atoms: C_10  and  C_11
REMARK                            x       y       z     vdW  Elec       q    Type
REMARK                         _______ _______ _______ _____ _____    ______ ____
ROOT
ATOM      1  C   UNL     1       4.554  -0.965  -1.675  0.00  0.00    +0.000 C 
ATOM      2  C   UNL     1       4.968  -2.091  -1.612  0.00  0.00    +0.000 C 
ENDROOT
BRANCH   2   3
ATOM      3  C   UNL     1       5.452  -3.434  -1.535  0.00  0.00    +0.000 A 
ATOM      4  C   UNL     1       6.815  -3.698  -1.704  0.00  0.00    +0.000 A 
ATOM      5  C   UNL     1       7.285  -5.011  -1.629  0.00  0.00    +0.000 A 
ATOM      6  C   UNL     1       6.389  -6.047  -1.387  0.00  0.00    +0.000 A 
ATOM      7  C   UNL     1       5.031  -5.796  -1.217  0.00  0.00    +0.000 A 
ATOM      8  C   UNL     1       4.560  -4.484  -1.291  0.00  0.00    +0.000 A 
ATOM      9  F   UNL     1       6.840  -7.306  -1.316  0.00  0.00    +0.000 F 
ENDBRANCH   2   3
BRANCH   1  15
ATOM     10  C   UNL     1       2.943   0.793  -1.000  0.00  0.00    +0.000 A 
ATOM     11  C   UNL     1       2.504   2.118  -1.112  0.00  0.00    +0.000 A 
ATOM     12  C   UNL     1       3.164   3.015  -1.958  0.00  0.00    +0.000 A 
ATOM     13  C   UNL     1       4.266   2.600  -2.700  0.00  0.00    +0.000 A 
ATOM     14  C   UNL     1       4.713   1.284  -2.597  0.00  0.00    +0.000 A 
ATOM     15  C   UNL     1       4.059   0.379  -1.751  0.00  0.00    +0.000 A 
BRANCH  10  17
ATOM     16  C   UNL     1       1.228   0.238   0.567  0.00  0.00    +0.000 C 
ATOM     17  O   UNL     1       2.359  -0.155  -0.199  0.00  0.00    +0.000 OA
ENDBRANCH  10  17
ENDBRANCH   1  15
TORSDOF 3
