REMARK  Name = *****
REMARK  3 active torsions:
REMARK  status: ('A' for Active; 'I' for Inactive)
REMARK    1  A    between atoms: C_3  and  C_15
REMARK    2  A    between atoms: C_6  and  C_7
REMARK    3  A    between atoms: C_8  and  C_9
REMARK                            x       y       z     vdW  Elec       q    Type
REMARK                         _______ _______ _______ _____ _____    ______ ____
ROOT
ATOM      1  C   UNL     1       1.105  -0.133  -0.861  0.00  0.00    +0.000 A 
ATOM      2  C   UNL     1       0.208  -1.192  -0.679  0.00  0.00    +0.000 A 
ATOM      3  C   UNL     1      -0.917  -1.039   0.142  0.00  0.00    +0.000 A 
ATOM      4  C   UNL     1      -1.130   0.196   0.772  0.00  0.00    +0.000 A 
ATOM      5  C   UNL     1      -0.233   1.253   0.587  0.00  0.00    +0.000 A 
ATOM      6  C   UNL     1       0.900   1.094  -0.220  0.00  0.00    +0.000 A 
ENDROOT
BRANCH   3   7
ATOM      7  C   UNL     1      -1.896  -2.169   0.347  0.00  0.00    +0.000 C 
ATOM      8  F   UNL     1      -1.550  -3.317  -0.301  0.00  0.00    +0.000 F 
ATOM      9  F   UNL     1      -2.033  -2.509   1.659  0.00  0.00    +0.000 F 
ATOM     10  F   UNL     1      -3.148  -1.858  -0.090  0.00  0.00    +0.000 F 
ENDBRANCH   3   7
BRANCH   6  11
ATOM     11  C   UNL     1       1.800   2.240  -0.414  0.00  0.00    +0.000 C 
ATOM     12  C   UNL     1       3.138   2.134  -0.468  0.00  0.00    +0.000 C 
BRANCH  12  13
ATOM     13  C   UNL     1       4.044   3.274  -0.667  0.00  0.00    +0.000 A 
ATOM     14  C   UNL     1       3.812   4.526  -0.094  0.00  0.00    +0.000 A 
ATOM     15  C   UNL     1       4.736   5.536  -0.310  0.00  0.00    +0.000 A 
ATOM     16  N   UNL     1       5.861   5.384  -1.038  0.00  0.00    +0.000 NA
ATOM     17  C   UNL     1       6.075   4.162  -1.570  0.00  0.00    +0.000 A 
ATOM     18  C   UNL     1       5.212   3.089  -1.409  0.00  0.00    +0.000 A 
ENDBRANCH  12  13
ENDBRANCH   6  11
TORSDOF 3
