REMARK  Name = *****
REMARK  2 active torsions:
REMARK  status: ('A' for Active; 'I' for Inactive)
REMARK    1  A    between atoms: C_4  and  C_7
REMARK    2  A    between atoms: C_8  and  C_9
REMARK                            x       y       z     vdW  Elec       q    Type
REMARK                         _______ _______ _______ _____ _____    ______ ____
ROOT
ATOM      1  C   UNL     1      -0.647   2.884  -0.056  0.00  0.00    +0.000 C 
ATOM      2  C   UNL     1      -0.882   4.062  -0.062  0.00  0.00    +0.000 C 
ENDROOT
BRANCH   1   6
ATOM      3  C   UNL     1       0.334  -1.328   0.181  0.00  0.00    +0.000 C 
ATOM      4  C   UNL     1      -1.132  -0.891   0.002  0.00  0.00    +0.000 C 
ATOM      5  C   UNL     1      -1.366   0.593   0.013  0.00  0.00    +0.000 C 
ATOM      6  C   UNL     1      -0.367   1.488  -0.051  0.00  0.00    +0.000 C 
ATOM      7  C   UNL     1       1.009   1.049  -0.146  0.00  0.00    +0.000 C 
ATOM      8  C   UNL     1       1.349  -0.244  -0.038  0.00  0.00    +0.000 C 
ENDBRANCH   1   6
BRANCH   2   9
ATOM      9  C   UNL     1      -1.162   5.465  -0.070  0.00  0.00    +0.000 A 
ATOM     10  C   UNL     1      -2.335   5.941  -0.660  0.00  0.00    +0.000 A 
ATOM     11  C   UNL     1      -2.608   7.310  -0.668  0.00  0.00    +0.000 A 
ATOM     12  C   UNL     1      -1.709   8.204  -0.086  0.00  0.00    +0.000 A 
ATOM     13  C   UNL     1      -0.537   7.731   0.504  0.00  0.00    +0.000 A 
ATOM     14  C   UNL     1      -0.263   6.361   0.513  0.00  0.00    +0.000 A 
ENDBRANCH   2   9
TORSDOF 2
