REMARK  Name = *****
REMARK  3 active torsions:
REMARK  status: ('A' for Active; 'I' for Inactive)
REMARK    1  A    between atoms: C_1  and  C_2
REMARK    2  A    between atoms: C_7  and  C_8
REMARK    3  A    between atoms: C_9  and  C_10
REMARK                            x       y       z     vdW  Elec       q    Type
REMARK                         _______ _______ _______ _____ _____    ______ ____
ROOT
ATOM      1  C   UNL     1       2.504  -2.454  -0.307  0.00  0.00    +0.000 C 
ATOM      2  C   UNL     1       1.923  -3.504  -0.374  0.00  0.00    +0.000 C 
ENDROOT
BRANCH   1   9
ATOM      3  C   UNL     1       0.999   0.064  -0.049  0.00  0.00    +0.000 C 
ATOM      4  C   UNL     1       2.502   0.015  -0.099  0.00  0.00    +0.000 A 
ATOM      5  C   UNL     1       3.235   1.210  -0.033  0.00  0.00    +0.000 A 
ATOM      6  C   UNL     1       4.630   1.196  -0.088  0.00  0.00    +0.000 A 
ATOM      7  C   UNL     1       5.310  -0.012  -0.211  0.00  0.00    +0.000 A 
ATOM      8  C   UNL     1       4.596  -1.208  -0.281  0.00  0.00    +0.000 A 
ATOM      9  C   UNL     1       3.197  -1.201  -0.227  0.00  0.00    +0.000 A 
ENDBRANCH   1   9
BRANCH   2  10
ATOM     10  C   UNL     1       1.233  -4.758  -0.452  0.00  0.00    +0.000 A 
ATOM     11  C   UNL     1       1.942  -5.925  -0.138  0.00  0.00    +0.000 A 
ATOM     12  C   UNL     1       1.316  -7.172  -0.199  0.00  0.00    +0.000 A 
ATOM     13  C   UNL     1      -0.022  -7.262  -0.575  0.00  0.00    +0.000 A 
ATOM     14  C   UNL     1      -0.738  -6.106  -0.889  0.00  0.00    +0.000 A 
ATOM     15  C   UNL     1      -0.113  -4.855  -0.828  0.00  0.00    +0.000 A 
ATOM     16 BR   UNL     1      -1.157  -3.328  -1.269  0.00  0.00    +0.000 Br
ENDBRANCH   2  10
TORSDOF 2
