REMARK  Name = *****
REMARK  3 active torsions:
REMARK  status: ('A' for Active; 'I' for Inactive)
REMARK    1  A    between atoms: C_4  and  O_7
REMARK    2  A    between atoms: O_7  and  C_8
REMARK    3  A    between atoms: C_8  and  C_10
REMARK                            x       y       z     vdW  Elec       q    Type
REMARK                         _______ _______ _______ _____ _____    ______ ____
ROOT
ATOM      1  C   UNL     1       3.389  -1.782   0.229  0.00  0.00    +0.000 C 
ATOM      2  O   UNL     1       3.062  -2.368   1.248  0.00  0.00    +0.000 OA
ENDROOT
BRANCH   1   3
ATOM      3  C   UNL     1       4.657  -2.052  -0.503  0.00  0.00    +0.000 A 
ATOM      4  C   UNL     1       5.514  -3.041   0.000  0.00  0.00    +0.000 A 
ATOM      5  C   UNL     1       6.714  -3.333  -0.651  0.00  0.00    +0.000 A 
ATOM      6  C   UNL     1       7.065  -2.639  -1.809  0.00  0.00    +0.000 A 
ATOM      7  C   UNL     1       6.219  -1.654  -2.317  0.00  0.00    +0.000 A 
ATOM      8  C   UNL     1       5.017  -1.359  -1.667  0.00  0.00    +0.000 A 
ENDBRANCH   1   3
BRANCH   1   9
ATOM      9  O   UNL     1       2.675  -0.815  -0.399  0.00  0.00    +0.000 OA
BRANCH   9  13
ATOM     10  C   UNL     1      -1.388   0.390  -0.204  0.00  0.00    +0.000 C 
ATOM     11  C   UNL     1      -1.052  -1.035   0.228  0.00  0.00    +0.000 C 
ATOM     12  C   UNL     1       0.333  -1.455  -0.252  0.00  0.00    +0.000 C 
ATOM     13  C   UNL     1       1.413  -0.469   0.202  0.00  0.00    +0.000 C 
ATOM     14  C   UNL     1       1.070   0.954  -0.246  0.00  0.00    +0.000 C 
ATOM     15  C   UNL     1      -0.313   1.380   0.235  0.00  0.00    +0.000 C 
ENDBRANCH   9  13
ENDBRANCH   1   9
TORSDOF 3
