REMARK  Name = *****
REMARK  4 active torsions:
REMARK  status: ('A' for Active; 'I' for Inactive)
REMARK    1  A    between atoms: C_1  and  C_2
REMARK    2  A    between atoms: C_5  and  C_8
REMARK    3  A    between atoms: C_9  and  O_10
REMARK    4  A    between atoms: O_10  and  C_11
REMARK                            x       y       z     vdW  Elec       q    Type
REMARK                         _______ _______ _______ _____ _____    ______ ____
ROOT
ATOM      1  C   UNL     1      -3.266   0.042  -0.259  0.00  0.00    +0.000 C 
ATOM      2  C   UNL     1      -4.035   1.131  -0.371  0.00  0.00    +0.000 C 
ENDROOT
BRANCH   1   7
ATOM      3  C   UNL     1       2.505  -0.027   0.206  0.00  0.00    +0.000 C 
ATOM      4  C   UNL     1       1.010   0.010   0.097  0.00  0.00    +0.000 A 
ATOM      5  C   UNL     1       0.270   1.044   0.680  0.00  0.00    +0.000 A 
ATOM      6  C   UNL     1      -1.124   1.069   0.567  0.00  0.00    +0.000 A 
ATOM      7  C   UNL     1      -1.803   0.069  -0.139  0.00  0.00    +0.000 A 
ATOM      8  C   UNL     1      -1.059  -0.972  -0.708  0.00  0.00    +0.000 A 
ATOM      9  C   UNL     1       0.334  -0.999  -0.597  0.00  0.00    +0.000 A 
ENDBRANCH   1   7
BRANCH   2  10
ATOM     10  O   UNL     1      -5.404   1.038  -0.483  0.00  0.00    +0.000 OA
BRANCH  10  11
ATOM     11  C   UNL     1      -6.082   2.194  -0.786  0.00  0.00    +0.000 A 
ATOM     12  C   UNL     1      -5.817   2.918  -1.951  0.00  0.00    +0.000 A 
ATOM     13  C   UNL     1      -6.559   4.065  -2.235  0.00  0.00    +0.000 A 
ATOM     14  C   UNL     1      -7.571   4.475  -1.365  0.00  0.00    +0.000 A 
ATOM     15  C   UNL     1      -7.848   3.735  -0.214  0.00  0.00    +0.000 A 
ATOM     16  C   UNL     1      -7.107   2.588   0.072  0.00  0.00    +0.000 A 
ENDBRANCH  10  11
ENDBRANCH   2  10
TORSDOF 3
