REMARK  Name = *****
REMARK  1 active torsions:
REMARK  status: ('A' for Active; 'I' for Inactive)
REMARK    1  A    between atoms: C_4  and  C_7
REMARK                            x       y       z     vdW  Elec       q    Type
REMARK                         _______ _______ _______ _____ _____    ______ ____
ROOT
ATOM      1  C   UNL     1      -3.154  -0.890  -0.416  0.00  0.00    +0.000 A 
ATOM      2  C   UNL     1      -3.858  -2.036  -0.069  0.00  0.00    +0.000 A 
ATOM      3  C   UNL     1      -5.198  -2.176  -0.456  0.00  0.00    +0.000 A 
ATOM      4  C   UNL     1      -5.947  -3.321  -0.128  0.00  0.00    +0.000 A 
ATOM      5  C   UNL     1      -7.278  -3.435  -0.530  0.00  0.00    +0.000 A 
ATOM      6  C   UNL     1      -7.867  -2.407  -1.257  0.00  0.00    +0.000 A 
ATOM      7  C   UNL     1      -7.122  -1.269  -1.578  0.00  0.00    +0.000 A 
ATOM      8  C   UNL     1      -5.793  -1.136  -1.188  0.00  0.00    +0.000 A 
ATOM      9  N   UNL     1      -5.090  -0.039  -1.499  0.00  0.00    +0.000 NA
ATOM     10  N   UNL     1      -3.771   0.088  -1.114  0.00  0.00    +0.000 NA
ENDROOT
BRANCH   1  14
ATOM     11  C   UNL     1       0.963  -0.163   0.618  0.00  0.00    +0.000 A 
ATOM     12  C   UNL     1       0.522  -1.465   0.400  0.00  0.00    +0.000 A 
ATOM     13  C   UNL     1      -0.815  -1.706   0.063  0.00  0.00    +0.000 A 
ATOM     14  C   UNL     1      -1.742  -0.654  -0.062  0.00  0.00    +0.000 A 
ATOM     15  C   UNL     1      -1.264   0.653   0.157  0.00  0.00    +0.000 A 
ATOM     16  C   UNL     1       0.070   0.897   0.495  0.00  0.00    +0.000 A 
ENDBRANCH   1  14
TORSDOF 1
