REMARK  Name = *****
REMARK  3 active torsions:
REMARK  status: ('A' for Active; 'I' for Inactive)
REMARK    1  A    between atoms: C_1  and  C_2
REMARK    2  A    between atoms: C_5  and  N_8
REMARK    3  A    between atoms: C_9  and  C_10
REMARK                            x       y       z     vdW  Elec       q    Type
REMARK                         _______ _______ _______ _____ _____    ______ ____
ROOT
ATOM      1  N   UNL     1      -3.263   0.096   0.293  0.00  0.00    +0.000 NA
ATOM      2  C   UNL     1      -3.905   0.756  -0.618  0.00  0.00    +0.000 C 
ENDROOT
BRANCH   1   7
ATOM      3  C   UNL     1       2.435   0.048  -0.127  0.00  0.00    +0.000 C 
ATOM      4  C   UNL     1       0.938   0.078  -0.045  0.00  0.00    +0.000 A 
ATOM      5  C   UNL     1       0.286   1.116   0.632  0.00  0.00    +0.000 A 
ATOM      6  C   UNL     1      -1.107   1.123   0.740  0.00  0.00    +0.000 A 
ATOM      7  C   UNL     1      -1.867   0.096   0.175  0.00  0.00    +0.000 A 
ATOM      8  C   UNL     1      -1.216  -0.955  -0.473  0.00  0.00    +0.000 A 
ATOM      9  C   UNL     1       0.177  -0.967  -0.583  0.00  0.00    +0.000 A 
ENDBRANCH   1   7
BRANCH   2  10
ATOM     10  C   UNL     1      -5.378   0.844  -0.624  0.00  0.00    +0.000 A 
ATOM     11  C   UNL     1      -6.138   0.200   0.358  0.00  0.00    +0.000 A 
ATOM     12  C   UNL     1      -7.531   0.297   0.334  0.00  0.00    +0.000 A 
ATOM     13  C   UNL     1      -8.156   1.036  -0.670  0.00  0.00    +0.000 A 
ATOM     14  C   UNL     1      -7.401   1.680  -1.651  0.00  0.00    +0.000 A 
ATOM     15  C   UNL     1      -6.007   1.585  -1.630  0.00  0.00    +0.000 A 
ATOM     16 CL   UNL     1      -9.872   1.156  -0.700  0.00  0.00    +0.000 Cl
ENDBRANCH   2  10
TORSDOF 2
