REMARK  Name = *****
REMARK  5 active torsions:
REMARK  status: ('A' for Active; 'I' for Inactive)
REMARK    1  A    between atoms: C_1  and  C_2
REMARK    2  A    between atoms: C_4  and  C_17
REMARK    3  A    between atoms: C_6  and  N_8
REMARK    4  A    between atoms: C_9  and  C_10
REMARK    5  A    between atoms: C_9  and  C_11
REMARK                            x       y       z     vdW  Elec       q    Type
REMARK                         _______ _______ _______ _____ _____    ______ ____
ROOT
ATOM      1  N   UNL     1       0.279  -3.139   0.417  0.00  0.00    +0.000 NA
ATOM      2  C   UNL     1       0.884  -3.861  -0.483  0.00  0.00    +0.000 C 
ATOM      3  C   UNL     1       1.557  -3.287  -1.718  0.00  0.00    +0.000 C 
ENDROOT
BRANCH   1   9
ATOM      4  C   UNL     1       2.388   1.279   1.116  0.00  0.00    +0.000 C 
ATOM      5  C   UNL     1       1.234   0.441   0.653  0.00  0.00    +0.000 A 
ATOM      6  C   UNL     1       0.106   1.040   0.075  0.00  0.00    +0.000 A 
ATOM      7  C   UNL     1      -0.965   0.262  -0.382  0.00  0.00    +0.000 A 
ATOM      8  C   UNL     1      -0.900  -1.131  -0.250  0.00  0.00    +0.000 A 
ATOM      9  C   UNL     1       0.233  -1.746   0.289  0.00  0.00    +0.000 A 
ATOM     10  C   UNL     1       1.289  -0.955   0.748  0.00  0.00    +0.000 A 
ATOM     11  C   UNL     1      -2.194   0.913  -0.943  0.00  0.00    +0.000 C 
ENDBRANCH   1   9
BRANCH   2  12
ATOM     12  C   UNL     1       0.933  -5.343  -0.285  0.00  0.00    +0.000 A 
ATOM     13  C   UNL     1      -0.085  -5.963   0.452  0.00  0.00    +0.000 A 
ATOM     14  C   UNL     1      -0.065  -7.344   0.656  0.00  0.00    +0.000 A 
ATOM     15  C   UNL     1       0.975  -8.111   0.134  0.00  0.00    +0.000 A 
ATOM     16  C   UNL     1       2.000  -7.498  -0.587  0.00  0.00    +0.000 A 
ATOM     17  C   UNL     1       1.983  -6.116  -0.795  0.00  0.00    +0.000 A 
ENDBRANCH   2  12
TORSDOF 2
