REMARK  Name = *****
REMARK  0 active torsions:
REMARK  status: ('A' for Active; 'I' for Inactive)
REMARK                            x       y       z     vdW  Elec       q    Type
REMARK                         _______ _______ _______ _____ _____    ______ ____
ROOT
ATOM      1  C   UNL     1       0.835   1.473  -0.116  0.00  0.00    +0.000 C 
ATOM      2  C   UNL     1       1.561   0.191   0.277  0.00  0.00    +0.000 C 
ATOM      3  S   UNL     1       0.949  -1.267  -0.611  0.00  0.00    +0.000 S 
ATOM      4  C   UNL     1      -0.740  -1.226  -0.121  0.00  0.00    +0.000 C 
ATOM      5  C   UNL     1      -1.343  -2.260   0.522  0.00  0.00    +0.000 C 
ATOM      6  S   UNL     1      -3.052  -2.231   0.985  0.00  0.00    +0.000 S 
ATOM      7  C   UNL     1      -3.023  -3.813   1.660  0.00  0.00    +0.000 A 
ATOM      8  C   UNL     1      -1.869  -4.486   1.660  0.00  0.00    +0.000 A 
ATOM      9  S   UNL     1      -0.477  -3.733   0.985  0.00  0.00    +0.000 S 
ATOM     10  S   UNL     1      -1.864  -6.070   2.347  0.00  0.00    +0.000 S 
ATOM     11  C   UNL     1      -3.569  -6.074   2.779  0.00  0.00    +0.000 A 
ATOM     12  O   UNL     1      -4.118  -7.016   3.329  0.00  0.00    +0.000 OA
ATOM     13  S   UNL     1      -4.404  -4.587   2.347  0.00  0.00    +0.000 S 
ATOM     14  S   UNL     1      -1.606   0.224  -0.612  0.00  0.00    +0.000 S 
ATOM     15  C   UNL     1      -0.638   1.475   0.277  0.00  0.00    +0.000 C 
ENDROOT
TORSDOF 0
