REMARK  Name = *****
REMARK  2 active torsions:
REMARK  status: ('A' for Active; 'I' for Inactive)
REMARK    1  A    between atoms: C_5  and  N_7
REMARK    2  A    between atoms: C_8  and  C_9
REMARK                            x       y       z     vdW  Elec       q    Type
REMARK                         _______ _______ _______ _____ _____    ______ ____
ROOT
ATOM      1  N   UNL     1      -0.391  -2.468   0.047  0.00  0.00    +0.000 NA
ATOM      2  C   UNL     1      -1.679  -2.519  -0.086  0.00  0.00    +0.000 C 
ENDROOT
BRANCH   1   7
ATOM      3  C   UNL     1       1.205   0.599   1.364  0.00  0.00    +0.000 A 
ATOM      4  C   UNL     1       1.390   1.354   0.208  0.00  0.00    +0.000 A 
ATOM      5  C   UNL     1       0.986   0.847  -1.027  0.00  0.00    +0.000 A 
ATOM      6  C   UNL     1       0.391  -0.417  -1.104  0.00  0.00    +0.000 A 
ATOM      7  C   UNL     1       0.184  -1.182   0.058  0.00  0.00    +0.000 A 
ATOM      8  C   UNL     1       0.610  -0.663   1.286  0.00  0.00    +0.000 A 
ATOM      9 CL   UNL     1      -0.081  -0.997  -2.664  0.00  0.00    +0.000 Cl
ENDBRANCH   1   7
BRANCH   2  10
ATOM     10  C   UNL     1      -2.408  -3.801  -0.125  0.00  0.00    +0.000 A 
ATOM     11  C   UNL     1      -1.722  -5.018  -0.027  0.00  0.00    +0.000 A 
ATOM     12  C   UNL     1      -2.433  -6.218  -0.066  0.00  0.00    +0.000 A 
ATOM     13  C   UNL     1      -3.817  -6.191  -0.203  0.00  0.00    +0.000 A 
ATOM     14  C   UNL     1      -4.506  -4.985  -0.302  0.00  0.00    +0.000 A 
ATOM     15  C   UNL     1      -3.800  -3.781  -0.264  0.00  0.00    +0.000 A 
ATOM     16  F   UNL     1      -4.499  -7.343  -0.239  0.00  0.00    +0.000 F 
ENDBRANCH   2  10
TORSDOF 2
