REMARK  Name = *****
REMARK  3 active torsions:
REMARK  status: ('A' for Active; 'I' for Inactive)
REMARK    1  A    between atoms: C_6  and  C_7
REMARK    2  A    between atoms: C_8  and  C_9
REMARK    3  A    between atoms: C_10  and  C_16
REMARK                            x       y       z     vdW  Elec       q    Type
REMARK                         _______ _______ _______ _____ _____    ______ ____
ROOT
ATOM      1  C   UNL     1      -3.397  -0.002   0.150  0.00  0.00    +0.000 C 
ATOM      2  C   UNL     1      -4.177   1.077  -0.022  0.00  0.00    +0.000 C 
ENDROOT
BRANCH   1   8
ATOM      3  C   UNL     1      -1.242   0.834  -0.841  0.00  0.00    +0.000 A 
ATOM      4  C   UNL     1       0.155   0.815  -0.895  0.00  0.00    +0.000 A 
ATOM      5  C   UNL     1       0.863  -0.016  -0.037  0.00  0.00    +0.000 A 
ATOM      6  C   UNL     1       0.201  -0.833   0.872  0.00  0.00    +0.000 A 
ATOM      7  C   UNL     1      -1.194  -0.813   0.927  0.00  0.00    +0.000 A 
ATOM      8  C   UNL     1      -1.930   0.031   0.082  0.00  0.00    +0.000 A 
ATOM      9  F   UNL     1       2.201  -0.036  -0.090  0.00  0.00    +0.000 F 
ENDBRANCH   1   8
BRANCH   2  10
ATOM     10  C   UNL     1      -5.645   1.004   0.037  0.00  0.00    +0.000 A 
ATOM     11  C   UNL     1      -6.448   1.407  -1.049  0.00  0.00    +0.000 A 
ATOM     12  C   UNL     1      -7.844   1.337  -0.952  0.00  0.00    +0.000 A 
ATOM     13  C   UNL     1      -8.431   0.875   0.219  0.00  0.00    +0.000 A 
ATOM     14  C   UNL     1      -7.656   0.481   1.302  0.00  0.00    +0.000 A 
ATOM     15  C   UNL     1      -6.264   0.547   1.213  0.00  0.00    +0.000 A 
ATOM     16  F   UNL     1      -9.765   0.811   0.306  0.00  0.00    +0.000 F 
BRANCH  11  17
ATOM     17  C   UNL     1      -5.869   1.887  -2.272  0.00  0.00    +0.000 C 
ATOM     18  N   UNL     1      -5.409   2.284  -3.261  0.00  0.00    +0.000 NA
ENDBRANCH  11  17
ENDBRANCH   2  10
TORSDOF 3
