REMARK  Name = *****
REMARK  4 active torsions:
REMARK  status: ('A' for Active; 'I' for Inactive)
REMARK    1  A    between atoms: C_1  and  C_2
REMARK    2  A    between atoms: C_2  and  C_3
REMARK    3  A    between atoms: C_2  and  S_9
REMARK    4  A    between atoms: S_9  and  C_11
REMARK                            x       y       z     vdW  Elec       q    Type
REMARK                         _______ _______ _______ _____ _____    ______ ____
ROOT
ATOM      1  C   UNL     1       1.414   0.316   0.418  0.00  0.00    +0.000 C 
ATOM      2  C   UNL     1       2.795   0.044  -0.190  0.00  0.00    +0.000 C 
ENDROOT
BRANCH   2   3
ATOM      3  C   UNL     1       3.048  -1.391  -0.642  0.00  0.00    +0.000 C 
ATOM      4  C   UNL     1       2.072  -2.263  -0.974  0.00  0.00    +0.000 C 
ATOM      5  C   UNL     1       2.311  -3.690  -1.374  0.00  0.00    +0.000 C 
ATOM      6  C   UNL     1       3.718  -4.183  -1.048  0.00  0.00    +0.000 C 
ATOM      7  C   UNL     1       4.757  -3.131  -1.407  0.00  0.00    +0.000 C 
ATOM      8  C   UNL     1       4.502  -1.824  -0.653  0.00  0.00    +0.000 C 
ENDBRANCH   2   3
BRANCH   2   9
ATOM      9  S   UNL     1       3.153   1.324  -1.478  0.00  0.00    +0.000 S 
ATOM     10  O   UNL     1       4.627   1.313  -1.759  0.00  0.00    +0.000 OA
BRANCH   9  11
ATOM     11  C   UNL     1       2.356   0.583  -2.918  0.00  0.00    +0.000 A 
ATOM     12  C   UNL     1       0.988   0.782  -3.137  0.00  0.00    +0.000 A 
ATOM     13  C   UNL     1       0.364   0.219  -4.253  0.00  0.00    +0.000 A 
ATOM     14  C   UNL     1       1.107  -0.533  -5.163  0.00  0.00    +0.000 A 
ATOM     15  C   UNL     1       2.474  -0.717  -4.963  0.00  0.00    +0.000 A 
ATOM     16  C   UNL     1       3.097  -0.155  -3.848  0.00  0.00    +0.000 A 
ENDBRANCH   9  11
ENDBRANCH   2   9
TORSDOF 3
