REMARK  Name = *****
REMARK  2 active torsions:
REMARK  status: ('A' for Active; 'I' for Inactive)
REMARK    1  A    between atoms: C_3  and  C_6
REMARK    2  A    between atoms: C_7  and  C_8
REMARK                            x       y       z     vdW  Elec       q    Type
REMARK                         _______ _______ _______ _____ _____    ______ ____
ROOT
ATOM      1  C   UNL     1      -2.159  -0.921   1.015  0.00  0.00    +0.000 C 
ATOM      2  C   UNL     1      -2.701  -2.148   1.093  0.00  0.00    +0.000 C 
ENDROOT
BRANCH   2   3
ATOM      3  C   UNL     1      -3.674  -2.561   2.114  0.00  0.00    +0.000 A 
ATOM      4  C   UNL     1      -4.665  -1.698   2.599  0.00  0.00    +0.000 A 
ATOM      5  C   UNL     1      -5.593  -2.140   3.546  0.00  0.00    +0.000 A 
ATOM      6  C   UNL     1      -5.546  -3.452   4.011  0.00  0.00    +0.000 A 
ATOM      7  C   UNL     1      -4.576  -4.326   3.524  0.00  0.00    +0.000 A 
ATOM      8  C   UNL     1      -3.649  -3.884   2.576  0.00  0.00    +0.000 A 
ENDBRANCH   2   3
BRANCH   1  11
ATOM      9  C   UNL     1       0.608   1.158  -0.302  0.00  0.00    +0.000 C 
ATOM     10  C   UNL     1       0.155  -0.006   0.580  0.00  0.00    +0.000 C 
ATOM     11  C   UNL     1      -1.159  -0.519  -0.032  0.00  0.00    +0.000 C 
ATOM     12  C   UNL     1      -1.620   0.661  -0.833  0.00  0.00    +0.000 C 
ATOM     13  C   UNL     1      -0.654   1.574  -0.982  0.00  0.00    +0.000 C 
ENDBRANCH   1  11
TORSDOF 2
