REMARK  Name = *****
REMARK  4 active torsions:
REMARK  status: ('A' for Active; 'I' for Inactive)
REMARK    1  A    between atoms: C_1  and  O_2
REMARK    2  A    between atoms: O_2  and  C_3
REMARK    3  A    between atoms: C_8  and  C_9
REMARK    4  A    between atoms: C_10  and  C_11
REMARK                            x       y       z     vdW  Elec       q    Type
REMARK                         _______ _______ _______ _____ _____    ______ ____
ROOT
ATOM      1  C   UNL     1       4.257  -1.296   1.274  0.00  0.00    +0.000 C 
ATOM      2  C   UNL     1       3.343  -0.922   2.183  0.00  0.00    +0.000 C 
ENDROOT
BRANCH   2   3
ATOM      3  C   UNL     1       3.656  -0.612   3.584  0.00  0.00    +0.000 A 
ATOM      4  C   UNL     1       4.825   0.065   3.957  0.00  0.00    +0.000 A 
ATOM      5  C   UNL     1       5.075   0.370   5.298  0.00  0.00    +0.000 A 
ATOM      6  C   UNL     1       4.150   0.007   6.274  0.00  0.00    +0.000 A 
ATOM      7  C   UNL     1       2.975  -0.652   5.919  0.00  0.00    +0.000 A 
ATOM      8  C   UNL     1       2.727  -0.954   4.577  0.00  0.00    +0.000 A 
ATOM      9 CL   UNL     1       4.455   0.382   7.925  0.00  0.00    +0.000 Cl
ENDBRANCH   2   3
BRANCH   1  15
ATOM     10  C   UNL     1       3.257  -0.723  -0.990  0.00  0.00    +0.000 A 
ATOM     11  C   UNL     1       2.975  -1.123  -2.302  0.00  0.00    +0.000 A 
ATOM     12  C   UNL     1       3.339  -2.396  -2.751  0.00  0.00    +0.000 A 
ATOM     13  C   UNL     1       3.990  -3.280  -1.897  0.00  0.00    +0.000 A 
ATOM     14  C   UNL     1       4.275  -2.894  -0.588  0.00  0.00    +0.000 A 
ATOM     15  C   UNL     1       3.905  -1.624  -0.118  0.00  0.00    +0.000 A 
BRANCH  10  17
ATOM     16  C   UNL     1       2.296   1.439  -1.334  0.00  0.00    +0.000 C 
ATOM     17  O   UNL     1       2.955   0.515  -0.480  0.00  0.00    +0.000 OA
ENDBRANCH  10  17
ENDBRANCH   1  15
TORSDOF 3
