REMARK  Name = *****
REMARK  3 active torsions:
REMARK  status: ('A' for Active; 'I' for Inactive)
REMARK    1  A    between atoms: C_4  and  C_7
REMARK    2  A    between atoms: C_7  and  C_9
REMARK    3  A    between atoms: C_10  and  C_11
REMARK                            x       y       z     vdW  Elec       q    Type
REMARK                         _______ _______ _______ _____ _____    ______ ____
ROOT
ATOM      1  C   UNL     1       6.322   0.116  -0.947  0.00  0.00    +0.000 C 
ATOM      2  O   UNL     1       6.916   1.152  -1.230  0.00  0.00    +0.000 OA
ENDROOT
BRANCH   1   6
ATOM      3  C   UNL     1       2.117   0.313  -0.142  0.00  0.00    +0.000 A 
ATOM      4  C   UNL     1       2.938   1.416   0.086  0.00  0.00    +0.000 A 
ATOM      5  C   UNL     1       4.305   1.335  -0.183  0.00  0.00    +0.000 A 
ATOM      6  C   UNL     1       4.861   0.145  -0.671  0.00  0.00    +0.000 A 
ATOM      7  C   UNL     1       4.028  -0.956  -0.914  0.00  0.00    +0.000 A 
ATOM      8  C   UNL     1       2.660  -0.870  -0.644  0.00  0.00    +0.000 A 
ENDBRANCH   1   6
BRANCH   1   9
ATOM      9  C   UNL     1       7.031  -1.187  -0.822  0.00  0.00    +0.000 C 
ATOM     10  C   UNL     1       8.303  -1.291  -1.237  0.00  0.00    +0.000 C 
BRANCH  10  11
ATOM     11  C   UNL     1       9.106  -2.516  -1.133  0.00  0.00    +0.000 A 
ATOM     12  C   UNL     1       8.562  -3.792  -1.332  0.00  0.00    +0.000 A 
ATOM     13  C   UNL     1       9.370  -4.930  -1.252  0.00  0.00    +0.000 A 
ATOM     14  C   UNL     1      10.732  -4.803  -0.983  0.00  0.00    +0.000 A 
ATOM     15  C   UNL     1      11.287  -3.539  -0.801  0.00  0.00    +0.000 A 
ATOM     16  C   UNL     1      10.480  -2.401  -0.881  0.00  0.00    +0.000 A 
ENDBRANCH  10  11
ENDBRANCH   1   9
TORSDOF 3
