REMARK  Name = *****
REMARK  3 active torsions:
REMARK  status: ('A' for Active; 'I' for Inactive)
REMARK    1  A    between atoms: C_1  and  P_2
REMARK    2  A    between atoms: P_2  and  C_4
REMARK    3  A    between atoms: P_2  and  C_10
REMARK                            x       y       z     vdW  Elec       q    Type
REMARK                         _______ _______ _______ _____ _____    ______ ____
ROOT
ATOM      1  C   UNL     1       0.901  -0.012   0.005  0.00  0.00    +0.000 C 
ATOM      2  P   UNL     1       2.731  -0.012   0.005  0.00  0.00    +0.000 P 
ATOM      3  S   UNL     1       2.631   2.045  -0.168  0.00  0.00    +0.000 S 
ENDROOT
BRANCH   2   4
ATOM      4  C   UNL     1       2.737  -0.621   1.932  0.00  0.00    +0.000 C 
ATOM      5  C   UNL     1       2.081  -2.001   2.085  0.00  0.00    +0.000 C 
ATOM      6  C   UNL     1       2.239  -2.520   3.513  0.00  0.00    +0.000 C 
ATOM      7  C   UNL     1       1.698  -1.518   4.532  0.00  0.00    +0.000 C 
ATOM      8  C   UNL     1       2.335  -0.139   4.371  0.00  0.00    +0.000 C 
ATOM      9  C   UNL     1       2.195   0.393   2.944  0.00  0.00    +0.000 C 
ENDBRANCH   2   4
BRANCH   2  10
ATOM     10  C   UNL     1       4.561  -0.012   0.005  0.00  0.00    +0.000 C 
ATOM     11  C   UNL     1       5.415   0.914   0.895  0.00  0.00    +0.000 C 
ATOM     12  C   UNL     1       6.892   0.516   0.854  0.00  0.00    +0.000 C 
ATOM     13  C   UNL     1       7.430   0.525  -0.574  0.00  0.00    +0.000 C 
ATOM     14  C   UNL     1       6.593  -0.353  -1.497  0.00  0.00    +0.000 C 
ATOM     15  C   UNL     1       5.111   0.011  -1.442  0.00  0.00    +0.000 C 
ENDBRANCH   2  10
TORSDOF 2
