REMARK  Name = *****
REMARK  3 active torsions:
REMARK  status: ('A' for Active; 'I' for Inactive)
REMARK    1  A    between atoms: C_4  and  C_7
REMARK    2  A    between atoms: C_7  and  S_9
REMARK    3  A    between atoms: S_9  and  C_10
REMARK                            x       y       z     vdW  Elec       q    Type
REMARK                         _______ _______ _______ _____ _____    ______ ____
ROOT
ATOM      1  C   UNL     1       2.810  -0.664  -0.528  0.00  0.00    +0.000 C 
ATOM      2  O   UNL     1       2.940  -1.165  -1.638  0.00  0.00    +0.000 OA
ENDROOT
BRANCH   1   6
ATOM      3  C   UNL     1      -1.402   0.333  -0.140  0.00  0.00    +0.000 C 
ATOM      4  C   UNL     1      -0.957  -1.067   0.270  0.00  0.00    +0.000 C 
ATOM      5  C   UNL     1       0.424  -1.401  -0.290  0.00  0.00    +0.000 C 
ATOM      6  C   UNL     1       1.466  -0.349   0.113  0.00  0.00    +0.000 C 
ATOM      7  C   UNL     1       1.014   1.056  -0.300  0.00  0.00    +0.000 C 
ATOM      8  C   UNL     1      -0.371   1.388   0.250  0.00  0.00    +0.000 C 
ENDBRANCH   1   6
BRANCH   1   9
ATOM      9  S   UNL     1       4.211  -0.239   0.461  0.00  0.00    +0.000 S 
BRANCH   9  10
ATOM     10  C   UNL     1       4.996   0.974  -0.583  0.00  0.00    +0.000 A 
ATOM     11  C   UNL     1       5.126   2.290  -0.124  0.00  0.00    +0.000 A 
ATOM     12  C   UNL     1       5.752   3.257  -0.918  0.00  0.00    +0.000 A 
ATOM     13  C   UNL     1       6.255   2.906  -2.168  0.00  0.00    +0.000 A 
ATOM     14  C   UNL     1       6.142   1.596  -2.630  0.00  0.00    +0.000 A 
ATOM     15  C   UNL     1       5.518   0.631  -1.835  0.00  0.00    +0.000 A 
ATOM     16 CL   UNL     1       7.024   4.095  -3.145  0.00  0.00    +0.000 Cl
ENDBRANCH   9  10
ENDBRANCH   1   9
TORSDOF 3
