REMARK  Name = *****
REMARK  4 active torsions:
REMARK  status: ('A' for Active; 'I' for Inactive)
REMARK    1  A    between atoms: C_4  and  C_7
REMARK    2  A    between atoms: C_8  and  C_9
REMARK    3  A    between atoms: C_10  and  S_16
REMARK    4  A    between atoms: C_11  and  S_15
REMARK                            x       y       z     vdW  Elec       q    Type
REMARK                         _______ _______ _______ _____ _____    ______ ____
ROOT
ATOM      1  C   UNL     1      -5.119  -0.043  -0.571  0.00  0.00    +0.000 A 
ATOM      2  C   UNL     1      -6.123  -0.327   0.387  0.00  0.00    +0.000 A 
ATOM      3  C   UNL     1      -7.463   0.029   0.106  0.00  0.00    +0.000 A 
ATOM      4  C   UNL     1      -7.779   0.660  -1.106  0.00  0.00    +0.000 A 
ATOM      5  C   UNL     1      -6.787   0.938  -2.043  0.00  0.00    +0.000 A 
ATOM      6  C   UNL     1      -5.467   0.587  -1.777  0.00  0.00    +0.000 A 
ENDROOT
BRANCH   1   8
ATOM      7  C   UNL     1      -2.741   0.520  -0.267  0.00  0.00    +0.000 C 
ATOM      8  C   UNL     1      -3.706  -0.407  -0.372  0.00  0.00    +0.000 C 
BRANCH   7  12
ATOM      9  C   UNL     1       1.402  -0.310   0.393  0.00  0.00    +0.000 A 
ATOM     10  C   UNL     1       0.661  -1.143  -0.442  0.00  0.00    +0.000 A 
ATOM     11  C   UNL     1      -0.696  -0.888  -0.661  0.00  0.00    +0.000 A 
ATOM     12  C   UNL     1      -1.325   0.199  -0.040  0.00  0.00    +0.000 A 
ATOM     13  C   UNL     1      -0.565   1.039   0.784  0.00  0.00    +0.000 A 
ATOM     14  C   UNL     1       0.791   0.782   1.005  0.00  0.00    +0.000 A 
ENDBRANCH   7  12
ENDBRANCH   1   8
BRANCH   3  15
ATOM     15  S   UNL     1      -8.836  -0.270   1.224  0.00  0.00    +0.000 S 
ATOM     16  H   UNL     1      -8.380  -0.884   2.348  0.00  0.00    +0.000 HD
ENDBRANCH   3  15
BRANCH   2  17
ATOM     17  S   UNL     1      -5.698  -1.135   1.945  0.00  0.00    +0.000 S 
ATOM     18  H   UNL     1      -4.360  -1.374   1.981  0.00  0.00    +0.000 HD
ENDBRANCH   2  17
TORSDOF 4
