REMARK  Name = *****
REMARK  3 active torsions:
REMARK  status: ('A' for Active; 'I' for Inactive)
REMARK    1  A    between atoms: C_1  and  C_2
REMARK    2  A    between atoms: C_5  and  C_8
REMARK    3  A    between atoms: C_10  and  C_11
REMARK                            x       y       z     vdW  Elec       q    Type
REMARK                         _______ _______ _______ _____ _____    ______ ____
ROOT
ATOM      1  C   UNL     1      -3.101   0.650  -0.122  0.00  0.00    +0.000 C 
ATOM      2  C   UNL     1      -3.997   1.349   0.867  0.00  0.00    +0.000 C 
ATOM      3  C   UNL     1      -3.764   1.976  -0.487  0.00  0.00    +0.000 C 
ATOM      4 CL   UNL     1      -2.814   3.480  -0.473  0.00  0.00    +0.000 Cl
ENDROOT
BRANCH   1   9
ATOM      5  C   UNL     1       2.647   0.062   0.806  0.00  0.00    +0.000 C 
ATOM      6  C   UNL     1       1.176   0.242   0.581  0.00  0.00    +0.000 A 
ATOM      7  C   UNL     1       0.261  -0.027   1.601  0.00  0.00    +0.000 A 
ATOM      8  C   UNL     1      -1.113   0.114   1.377  0.00  0.00    +0.000 A 
ATOM      9  C   UNL     1      -1.616   0.525   0.132  0.00  0.00    +0.000 A 
ATOM     10  C   UNL     1      -0.682   0.761  -0.890  0.00  0.00    +0.000 A 
ATOM     11  C   UNL     1       0.692   0.623  -0.673  0.00  0.00    +0.000 A 
ENDBRANCH   1   9
BRANCH   3  12
ATOM     12  C   UNL     1      -4.872   1.984  -1.520  0.00  0.00    +0.000 A 
ATOM     13  C   UNL     1      -6.146   2.506  -1.230  0.00  0.00    +0.000 A 
ATOM     14  C   UNL     1      -7.166   2.516  -2.185  0.00  0.00    +0.000 A 
ATOM     15  C   UNL     1      -6.932   2.007  -3.459  0.00  0.00    +0.000 A 
ATOM     16  C   UNL     1      -5.679   1.494  -3.778  0.00  0.00    +0.000 A 
ATOM     17  C   UNL     1      -4.662   1.486  -2.820  0.00  0.00    +0.000 A 
ENDBRANCH   3  12
TORSDOF 2
