REMARK  Name = *****
REMARK  2 active torsions:
REMARK  status: ('A' for Active; 'I' for Inactive)
REMARK    1  A    between atoms: C_4  and  C_8
REMARK    2  A    between atoms: N_9  and  C_10
REMARK                            x       y       z     vdW  Elec       q    Type
REMARK                         _______ _______ _______ _____ _____    ______ ____
ROOT
ATOM      1  C   UNL     1       0.191   2.462  -0.128  0.00  0.00    +0.000 C 
ATOM      2  N   UNL     1       1.124   3.162   0.435  0.00  0.00    +0.000 NA
ENDROOT
BRANCH   1   6
ATOM      3  C   UNL     1      -0.041  -1.807  -0.001  0.00  0.00    +0.000 A 
ATOM      4  C   UNL     1      -1.009  -1.054  -0.663  0.00  0.00    +0.000 A 
ATOM      5  C   UNL     1      -0.909   0.336  -0.688  0.00  0.00    +0.000 A 
ATOM      6  C   UNL     1       0.148   0.993  -0.059  0.00  0.00    +0.000 A 
ATOM      7  C   UNL     1       1.112   0.233   0.602  0.00  0.00    +0.000 A 
ATOM      8  C   UNL     1       1.021  -1.160   0.632  0.00  0.00    +0.000 A 
ATOM      9  F   UNL     1       2.151   0.801   1.229  0.00  0.00    +0.000 F 
ATOM     10  F   UNL     1      -1.859   1.032  -1.331  0.00  0.00    +0.000 F 
ENDBRANCH   1   6
BRANCH   2  11
ATOM     11  C   UNL     1       1.071   4.560   0.288  0.00  0.00    +0.000 A 
ATOM     12  C   UNL     1       1.012   5.207  -0.958  0.00  0.00    +0.000 A 
ATOM     13  C   UNL     1       0.995   6.595  -1.056  0.00  0.00    +0.000 A 
ATOM     14  C   UNL     1       1.049   7.349   0.106  0.00  0.00    +0.000 A 
ATOM     15  C   UNL     1       1.124   6.741   1.355  0.00  0.00    +0.000 A 
ATOM     16  C   UNL     1       1.140   5.346   1.443  0.00  0.00    +0.000 A 
ATOM     17  F   UNL     1       1.034   8.686   0.026  0.00  0.00    +0.000 F 
ATOM     18  F   UNL     1       0.963   4.486  -2.090  0.00  0.00    +0.000 F 
ENDBRANCH   2  11
TORSDOF 2
