REMARK  Name = *****
REMARK  3 active torsions:
REMARK  status: ('A' for Active; 'I' for Inactive)
REMARK    1  A    between atoms: C_4  and  S_7
REMARK    2  A    between atoms: S_7  and  N_8
REMARK    3  A    between atoms: N_8  and  C_9
REMARK                            x       y       z     vdW  Elec       q    Type
REMARK                         _______ _______ _______ _____ _____    ______ ____
ROOT
ATOM      1  N   UNL     1      -4.397  -0.393   0.028  0.00  0.00    +0.000 N 
ATOM      2  H   UNL     1      -3.867  -1.038   0.550  0.00  0.00    +0.000 HD
ENDROOT
BRANCH   1   3
ATOM      3  C   UNL     1      -5.633  -0.818  -0.504  0.00  0.00    +0.000 A 
ATOM      4  C   UNL     1      -6.638   0.062  -0.936  0.00  0.00    +0.000 A 
ATOM      5  C   UNL     1      -7.875  -0.414  -1.387  0.00  0.00    +0.000 A 
ATOM      6  C   UNL     1      -8.131  -1.780  -1.391  0.00  0.00    +0.000 A 
ATOM      7  C   UNL     1      -7.164  -2.673  -0.940  0.00  0.00    +0.000 A 
ATOM      8  C   UNL     1      -5.930  -2.192  -0.491  0.00  0.00    +0.000 A 
ATOM      9 CL   UNL     1      -9.652  -2.367  -1.938  0.00  0.00    +0.000 Cl
ENDBRANCH   1   3
BRANCH   1  10
ATOM     10  S   UNL     1      -3.787   1.140  -0.179  0.00  0.00    +0.000 S 
BRANCH  10  14
ATOM     11  C   UNL     1      -2.880   2.360   4.153  0.00  0.00    +0.000 A 
ATOM     12  C   UNL     1      -4.037   1.636   3.873  0.00  0.00    +0.000 A 
ATOM     13  C   UNL     1      -4.321   1.253   2.560  0.00  0.00    +0.000 A 
ATOM     14  C   UNL     1      -3.446   1.585   1.518  0.00  0.00    +0.000 A 
ATOM     15  C   UNL     1      -2.291   2.318   1.809  0.00  0.00    +0.000 A 
ATOM     16  C   UNL     1      -2.007   2.703   3.122  0.00  0.00    +0.000 A 
ENDBRANCH  10  14
ENDBRANCH   1  10
TORSDOF 3
