REMARK  Name = *****
REMARK  6 active torsions:
REMARK  status: ('A' for Active; 'I' for Inactive)
REMARK    1  A    between atoms: C_1  and  C_2
REMARK    2  A    between atoms: C_5  and  S_8
REMARK    3  A    between atoms: S_8  and  C_9
REMARK    4  A    between atoms: C_9  and  C_11
REMARK    5  A    between atoms: C_16  and  O_17
REMARK    6  A    between atoms: O_17  and  C_18
REMARK                            x       y       z     vdW  Elec       q    Type
REMARK                         _______ _______ _______ _____ _____    ______ ____
ROOT
ATOM      1  C   UNL     1      -3.948   1.837   1.217  0.00  0.00    +0.000 C 
ATOM      2  O   UNL     1      -4.895   2.153   1.929  0.00  0.00    +0.000 OA
ENDROOT
BRANCH   1   3
ATOM      3  C   UNL     1      -3.160   2.869   0.513  0.00  0.00    +0.000 A 
ATOM      4  C   UNL     1      -3.868   3.761  -0.307  0.00  0.00    +0.000 A 
ATOM      5  C   UNL     1      -3.187   4.756  -1.004  0.00  0.00    +0.000 A 
ATOM      6  C   UNL     1      -1.805   4.865  -0.874  0.00  0.00    +0.000 A 
ATOM      7  C   UNL     1      -1.100   3.993  -0.036  0.00  0.00    +0.000 A 
ATOM      8  C   UNL     1      -1.771   2.993   0.677  0.00  0.00    +0.000 A 
BRANCH   8   9
ATOM      9  O   UNL     1      -1.166   2.125   1.544  0.00  0.00    +0.000 OA
ATOM     10  C   UNL     1       0.191   2.373   1.889  0.00  0.00    +0.000 C 
ENDBRANCH   8   9
ENDBRANCH   1   3
BRANCH   1  11
ATOM     11  S   UNL     1      -3.607   0.168   0.778  0.00  0.00    +0.000 S 
BRANCH  11  16
ATOM     12  C   UNL     1      -2.152  -2.387   6.120  0.00  0.00    +0.000 C 
ATOM     13  C   UNL     1      -2.502  -1.722   4.822  0.00  0.00    +0.000 A 
ATOM     14  C   UNL     1      -3.750  -1.112   4.653  0.00  0.00    +0.000 A 
ATOM     15  C   UNL     1      -4.094  -0.524   3.432  0.00  0.00    +0.000 A 
ATOM     16  C   UNL     1      -3.196  -0.537   2.362  0.00  0.00    +0.000 A 
ATOM     17  C   UNL     1      -1.958  -1.167   2.522  0.00  0.00    +0.000 A 
ATOM     18  C   UNL     1      -1.614  -1.758   3.742  0.00  0.00    +0.000 A 
ENDBRANCH  11  16
ENDBRANCH   1  11
TORSDOF 4
