REMARK  Name = *****
REMARK  5 active torsions:
REMARK  status: ('A' for Active; 'I' for Inactive)
REMARK    1  A    between atoms: C_1  and  C_2
REMARK    2  A    between atoms: C_5  and  C_8
REMARK    3  A    between atoms: C_8  and  O_9
REMARK    4  A    between atoms: O_9  and  C_10
REMARK    5  A    between atoms: C_10  and  C_11
REMARK                            x       y       z     vdW  Elec       q    Type
REMARK                         _______ _______ _______ _____ _____    ______ ____
ROOT
ATOM      1  C   UNL     1      -3.322   0.000  -0.038  0.00  0.00    +0.000 C 
ENDROOT
BRANCH   1   6
ATOM      2  C   UNL     1       2.507   0.014   0.005  0.00  0.00    +0.000 C 
ATOM      3  C   UNL     1       1.008   0.038  -0.030  0.00  0.00    +0.000 A 
ATOM      4  C   UNL     1       0.292   0.923   0.782  0.00  0.00    +0.000 A 
ATOM      5  C   UNL     1      -1.105   0.922   0.771  0.00  0.00    +0.000 A 
ATOM      6  C   UNL     1      -1.815   0.037  -0.051  0.00  0.00    +0.000 A 
ATOM      7  C   UNL     1      -1.094  -0.868  -0.842  0.00  0.00    +0.000 A 
ATOM      8  C   UNL     1       0.304  -0.868  -0.831  0.00  0.00    +0.000 A 
ENDBRANCH   1   6
BRANCH   1   9
ATOM      9  O   UNL     1      -3.840   1.330   0.026  0.00  0.00    +0.000 OA
BRANCH   9  10
ATOM     10  C   UNL     1      -5.265   1.345   0.043  0.00  0.00    +0.000 C 
BRANCH  10  11
ATOM     11  C   UNL     1      -5.768   2.795   0.119  0.00  0.00    +0.000 C 
ATOM     12  C   UNL     1      -5.307   3.568  -1.123  0.00  0.00    +0.000 C 
ATOM     13  S   UNL     1      -6.075   5.211  -1.255  0.00  0.00    +0.000 S 
ATOM     14  C   UNL     1      -5.432   5.938   0.267  0.00  0.00    +0.000 C 
ATOM     15  S   UNL     1      -6.032   5.067   1.731  0.00  0.00    +0.000 S 
ATOM     16  C   UNL     1      -5.273   3.445   1.418  0.00  0.00    +0.000 C 
ENDBRANCH  10  11
ENDBRANCH   9  10
ENDBRANCH   1   9
TORSDOF 4
