REMARK  Name = *****
REMARK  4 active torsions:
REMARK  status: ('A' for Active; 'I' for Inactive)
REMARK    1  A    between atoms: C_1  and  C_2
REMARK    2  A    between atoms: C_5  and  O_8
REMARK    3  A    between atoms: O_8  and  C_9
REMARK    4  A    between atoms: C_9  and  C_11
REMARK                            x       y       z     vdW  Elec       q    Type
REMARK                         _______ _______ _______ _____ _____    ______ ____
ROOT
ATOM      1  O   UNL     1       4.619  -0.648  -2.703  0.00  0.00    +0.000 OA
ENDROOT
BRANCH   1   6
ATOM      2  C   UNL     1       0.942  -0.119   0.242  0.00  0.00    +0.000 C 
ATOM      3  C   UNL     1       2.459  -0.083   0.070  0.00  0.00    +0.000 C 
ATOM      4  C   UNL     1       2.900   1.010  -0.908  0.00  0.00    +0.000 C 
ATOM      5  C   UNL     1       2.595   0.661  -2.365  0.00  0.00    +0.000 C 
ATOM      6  C   UNL     1       3.179  -0.700  -2.764  0.00  0.00    +0.000 C 
ATOM      7  C   UNL     1       2.722  -1.800  -1.799  0.00  0.00    +0.000 C 
ATOM      8  C   UNL     1       3.022  -1.447  -0.341  0.00  0.00    +0.000 C 
ATOM      9  F   UNL     1       2.983   0.225   1.295  0.00  0.00    +0.000 F 
ENDBRANCH   1   6
BRANCH   1  10
ATOM     10  C   UNL     1       5.248  -0.138  -3.791  0.00  0.00    +0.000 C 
ATOM     11  O   UNL     1       4.705   0.262  -4.808  0.00  0.00    +0.000 OA
BRANCH  10  12
ATOM     12  C   UNL     1       6.721  -0.121  -3.580  0.00  0.00    +0.000 A 
ATOM     13  C   UNL     1       7.531   0.367  -4.614  0.00  0.00    +0.000 A 
ATOM     14  C   UNL     1       8.919   0.407  -4.463  0.00  0.00    +0.000 A 
ATOM     15  C   UNL     1       9.504  -0.040  -3.279  0.00  0.00    +0.000 A 
ATOM     16  C   UNL     1       8.705  -0.526  -2.245  0.00  0.00    +0.000 A 
ATOM     17  C   UNL     1       7.316  -0.568  -2.392  0.00  0.00    +0.000 A 
ENDBRANCH  10  12
ENDBRANCH   1  10
TORSDOF 3
