REMARK  Name = *****
REMARK  4 active torsions:
REMARK  status: ('A' for Active; 'I' for Inactive)
REMARK    1  A    between atoms: C_1  and  C_2
REMARK    2  A    between atoms: C_5  and  C_8
REMARK    3  A    between atoms: C_5  and  C_9
REMARK    4  A    between atoms: C_10  and  C_11
REMARK                            x       y       z     vdW  Elec       q    Type
REMARK                         _______ _______ _______ _____ _____    ______ ____
ROOT
ATOM      1  C   UNL     1       0.847  -0.197   0.797  0.00  0.00    +0.000 C 
ATOM      2  C   UNL     1       2.274  -0.147   0.345  0.00  0.00    +0.000 C 
ATOM      3  C   UNL     1       2.857   0.989  -0.063  0.00  0.00    +0.000 C 
ATOM      4  O   UNL     1       4.160   1.131  -0.454  0.00  0.00    +0.000 OA
ATOM      5  C   UNL     1       5.035   0.004  -0.248  0.00  0.00    +0.000 C 
ATOM      6  C   UNL     1       4.305  -1.331  -0.485  0.00  0.00    +0.000 C 
ATOM      7  C   UNL     1       3.034  -1.440   0.351  0.00  0.00    +0.000 C 
ATOM      8  C   UNL     1       5.615   0.103   1.174  0.00  0.00    +0.000 C 
ENDROOT
BRANCH   5   9
ATOM      9  C   UNL     1       6.197   0.090  -1.230  0.00  0.00    +0.000 C 
ATOM     10  C   UNL     1       6.365   1.026  -2.181  0.00  0.00    +0.000 C 
BRANCH  10  11
ATOM     11  C   UNL     1       7.511   1.073  -3.100  0.00  0.00    +0.000 A 
ATOM     12  C   UNL     1       8.069  -0.083  -3.662  0.00  0.00    +0.000 A 
ATOM     13  C   UNL     1       9.139   0.006  -4.556  0.00  0.00    +0.000 A 
ATOM     14  C   UNL     1       9.655   1.253  -4.905  0.00  0.00    +0.000 A 
ATOM     15  C   UNL     1       9.098   2.410  -4.366  0.00  0.00    +0.000 A 
ATOM     16  C   UNL     1       8.028   2.320  -3.472  0.00  0.00    +0.000 A 
ENDBRANCH  10  11
ENDBRANCH   5   9
TORSDOF 2
