REMARK  Name = *****
REMARK  3 active torsions:
REMARK  status: ('A' for Active; 'I' for Inactive)
REMARK    1  A    between atoms: C_2  and  C_9
REMARK    2  A    between atoms: C_9  and  C_10
REMARK    3  A    between atoms: C_10  and  C_11
REMARK                            x       y       z     vdW  Elec       q    Type
REMARK                         _______ _______ _______ _____ _____    ______ ____
ROOT
ATOM      1  C   UNL     1      -2.095   0.629  -0.697  0.00  0.00    +0.000 C 
ENDROOT
BRANCH   1   3
ATOM      2  C   UNL     1       0.341   1.111   0.166  0.00  0.00    +0.000 C 
ATOM      3  C   UNL     1      -0.935   0.236   0.218  0.00  0.00    +0.000 C 
ATOM      4  C   UNL     1      -0.052  -0.941  -0.293  0.00  0.00    +0.000 C 
ATOM      5  C   UNL     1       1.168  -0.186   0.336  0.00  0.00    +0.000 C 
ATOM      6  F   UNL     1       2.330  -0.226  -0.355  0.00  0.00    +0.000 F 
ATOM      7  F   UNL     1       1.467  -0.502   1.619  0.00  0.00    +0.000 F 
ATOM      8  F   UNL     1      -0.352  -2.154   0.227  0.00  0.00    +0.000 F 
ATOM      9  F   UNL     1      -0.020  -1.095  -1.640  0.00  0.00    +0.000 F 
ENDBRANCH   1   3
BRANCH   1  10
ATOM     10  C   UNL     1      -2.791   1.910  -0.218  0.00  0.00    +0.000 C 
ATOM     11 BR   UNL     1      -3.897   1.528   1.358  0.00  0.00    +0.000 Br
BRANCH  10  12
ATOM     12  C   UNL     1      -3.683   2.554  -1.256  0.00  0.00    +0.000 A 
ATOM     13  C   UNL     1      -3.619   3.942  -1.459  0.00  0.00    +0.000 A 
ATOM     14  C   UNL     1      -4.436   4.551  -2.408  0.00  0.00    +0.000 A 
ATOM     15  C   UNL     1      -5.329   3.809  -3.169  0.00  0.00    +0.000 A 
ATOM     16  C   UNL     1      -5.412   2.433  -2.975  0.00  0.00    +0.000 A 
ATOM     17  C   UNL     1      -4.597   1.810  -2.024  0.00  0.00    +0.000 A 
ATOM     18  F   UNL     1      -4.357   5.876  -2.589  0.00  0.00    +0.000 F 
ENDBRANCH  10  12
ENDBRANCH   1  10
TORSDOF 3
