REMARK  Name = *****
REMARK  6 active torsions:
REMARK  status: ('A' for Active; 'I' for Inactive)
REMARK    1  A    between atoms: C_1  and  C_2
REMARK    2  A    between atoms: C_2  and  O_4
REMARK    3  A    between atoms: O_4  and  C_5
REMARK    4  A    between atoms: C_10  and  S_11
REMARK    5  A    between atoms: S_11  and  C_12
REMARK    6  A    between atoms: C_12  and  C_13
REMARK                            x       y       z     vdW  Elec       q    Type
REMARK                         _______ _______ _______ _____ _____    ______ ____
ROOT
ATOM      1  C   UNL     1       5.041   0.846  -1.036  0.00  0.00    +0.000 C 
ATOM      2  C   UNL     1       5.747   1.643  -2.140  0.00  0.00    +0.000 C 
ATOM      3  C   UNL     1       7.239   1.372  -2.280  0.00  0.00    +0.000 C 
ATOM      4  C   UNL     1       7.537  -0.118  -2.331  0.00  0.00    +0.000 C 
ATOM      5  C   UNL     1       7.034  -0.828  -1.079  0.00  0.00    +0.000 C 
ATOM      6  C   UNL     1       5.542  -0.601  -0.791  0.00  0.00    +0.000 C 
ENDROOT
BRANCH   1   7
ATOM      7  O   UNL     1       4.877   1.629   0.181  0.00  0.00    +0.000 OA
BRANCH   7   9
ATOM      8  C   UNL     1       5.437   2.765   2.140  0.00  0.00    +0.000 C 
ATOM      9  C   UNL     1       5.910   1.904   1.009  0.00  0.00    +0.000 C 
ATOM     10  O   UNL     1       7.059   1.514   0.885  0.00  0.00    +0.000 OA
ENDBRANCH   7   9
ENDBRANCH   1   7
BRANCH   6  11
ATOM     11  S   UNL     1       4.552  -1.756  -1.852  0.00  0.00    +0.000 S 
BRANCH  11  12
ATOM     12  C   UNL     1       4.687  -3.271  -0.850  0.00  0.00    +0.000 C 
BRANCH  12  13
ATOM     13  C   UNL     1       3.985  -4.431  -1.511  0.00  0.00    +0.000 A 
ATOM     14  C   UNL     1       4.667  -5.247  -2.426  0.00  0.00    +0.000 A 
ATOM     15  C   UNL     1       4.016  -6.316  -3.044  0.00  0.00    +0.000 A 
ATOM     16  C   UNL     1       2.678  -6.578  -2.758  0.00  0.00    +0.000 A 
ATOM     17  C   UNL     1       1.987  -5.768  -1.858  0.00  0.00    +0.000 A 
ATOM     18  C   UNL     1       2.635  -4.698  -1.240  0.00  0.00    +0.000 A 
ENDBRANCH  12  13
ENDBRANCH  11  12
ENDBRANCH   6  11
TORSDOF 5
