REMARK  Name = *****
REMARK  2 active torsions:
REMARK  status: ('A' for Active; 'I' for Inactive)
REMARK    1  A    between atoms: C_5  and  C_7
REMARK    2  A    between atoms: C_8  and  C_9
REMARK                            x       y       z     vdW  Elec       q    Type
REMARK                         _______ _______ _______ _____ _____    ______ ____
ROOT
ATOM      1  C   UNL     1       0.908  -2.396   0.053  0.00  0.00    +0.000 C 
ATOM      2  C   UNL     1       2.236  -2.601   0.074  0.00  0.00    +0.000 C 
ENDROOT
BRANCH   1   7
ATOM      3  C   UNL     1       0.168   1.275   0.700  0.00  0.00    +0.000 A 
ATOM      4  C   UNL     1      -1.067   1.412   0.068  0.00  0.00    +0.000 A 
ATOM      5  C   UNL     1      -1.648   0.313  -0.560  0.00  0.00    +0.000 A 
ATOM      6  C   UNL     1      -0.985  -0.913  -0.558  0.00  0.00    +0.000 A 
ATOM      7  C   UNL     1       0.266  -1.071   0.054  0.00  0.00    +0.000 A 
ATOM      8  C   UNL     1       0.828   0.041   0.698  0.00  0.00    +0.000 A 
ATOM      9  F   UNL     1      -1.575  -1.955  -1.167  0.00  0.00    +0.000 F 
ENDBRANCH   1   7
BRANCH   2  10
ATOM     10  C   UNL     1       2.874  -3.929   0.076  0.00  0.00    +0.000 A 
ATOM     11  C   UNL     1       2.326  -5.029  -0.598  0.00  0.00    +0.000 A 
ATOM     12  C   UNL     1       2.982  -6.266  -0.596  0.00  0.00    +0.000 A 
ATOM     13  C   UNL     1       4.198  -6.416   0.069  0.00  0.00    +0.000 A 
ATOM     14  C   UNL     1       4.764  -5.327   0.727  0.00  0.00    +0.000 A 
ATOM     15  C   UNL     1       4.106  -4.098   0.721  0.00  0.00    +0.000 A 
ATOM     16  F   UNL     1       4.682  -3.065   1.358  0.00  0.00    +0.000 F 
ENDBRANCH   2  10
TORSDOF 2
