REMARK  Name = *****
REMARK  2 active torsions:
REMARK  status: ('A' for Active; 'I' for Inactive)
REMARK    1  A    between atoms: C_4  and  C_7
REMARK    2  A    between atoms: N_8  and  C_9
REMARK                            x       y       z     vdW  Elec       q    Type
REMARK                         _______ _______ _______ _____ _____    ______ ____
ROOT
ATOM      1  C   UNL     1      -2.808   0.338  -0.492  0.00  0.00    +0.000 C 
ATOM      2  N   UNL     1      -3.707  -0.465  -0.019  0.00  0.00    +0.000 NA
ENDROOT
BRANCH   2   3
ATOM      3  C   UNL     1      -5.051  -0.157  -0.344  0.00  0.00    +0.000 A 
ATOM      4  C   UNL     1      -5.912   0.009   0.755  0.00  0.00    +0.000 A 
ATOM      5  C   UNL     1      -7.266   0.305   0.591  0.00  0.00    +0.000 A 
ATOM      6  C   UNL     1      -7.790   0.433  -0.691  0.00  0.00    +0.000 A 
ATOM      7  C   UNL     1      -6.962   0.260  -1.802  0.00  0.00    +0.000 A 
ATOM      8  C   UNL     1      -5.600  -0.039  -1.647  0.00  0.00    +0.000 A 
ATOM      9  S   UNL     1      -4.697  -0.249  -3.116  0.00  0.00    +0.000 S 
ENDBRANCH   2   3
BRANCH   1  13
ATOM     10  C   UNL     1       1.365  -0.227   0.183  0.00  0.00    +0.000 A 
ATOM     11  C   UNL     1       0.450  -1.125   0.736  0.00  0.00    +0.000 A 
ATOM     12  C   UNL     1      -0.918  -0.951   0.517  0.00  0.00    +0.000 A 
ATOM     13  C   UNL     1      -1.367   0.124  -0.255  0.00  0.00    +0.000 A 
ATOM     14  C   UNL     1      -0.452   1.020  -0.813  0.00  0.00    +0.000 A 
ATOM     15  C   UNL     1       0.915   0.843  -0.593  0.00  0.00    +0.000 A 
ENDBRANCH   1  13
TORSDOF 2
