REMARK  Name = *****
REMARK  2 active torsions:
REMARK  status: ('A' for Active; 'I' for Inactive)
REMARK    1  A    between atoms: C_4  and  C_7
REMARK    2  A    between atoms: C_9  and  C_10
REMARK                            x       y       z     vdW  Elec       q    Type
REMARK                         _______ _______ _______ _____ _____    ______ ____
ROOT
ATOM      1  C   UNL     1      -2.775  -0.097   0.269  0.00  0.00    +0.000 C 
ATOM      2  N   UNL     1      -3.511  -0.939   0.904  0.00  0.00    +0.000 NA
ATOM      3  C   UNL     1      -3.886  -0.670  -0.454  0.00  0.00    +0.000 C 
ENDROOT
BRANCH   3   4
ATOM      4  C   UNL     1      -5.259  -0.073  -0.595  0.00  0.00    +0.000 A 
ATOM      5  C   UNL     1      -5.480   1.192  -1.168  0.00  0.00    +0.000 A 
ATOM      6  C   UNL     1      -6.775   1.702  -1.316  0.00  0.00    +0.000 A 
ATOM      7  C   UNL     1      -7.864   0.949  -0.895  0.00  0.00    +0.000 A 
ATOM      8  C   UNL     1      -7.685  -0.302  -0.327  0.00  0.00    +0.000 A 
ATOM      9  C   UNL     1      -6.391  -0.805  -0.180  0.00  0.00    +0.000 A 
ATOM     10  F   UNL     1      -9.103   1.437  -1.041  0.00  0.00    +0.000 F 
ENDBRANCH   3   4
BRANCH   1  14
ATOM     11  C   UNL     1       1.436  -0.156  -0.050  0.00  0.00    +0.000 A 
ATOM     12  C   UNL     1       0.737  -1.359   0.058  0.00  0.00    +0.000 A 
ATOM     13  C   UNL     1      -0.653  -1.350   0.167  0.00  0.00    +0.000 A 
ATOM     14  C   UNL     1      -1.338  -0.132   0.168  0.00  0.00    +0.000 A 
ATOM     15  C   UNL     1      -0.645   1.075   0.058  0.00  0.00    +0.000 A 
ATOM     16  C   UNL     1       0.748   1.060  -0.051  0.00  0.00    +0.000 A 
ENDBRANCH   1  14
TORSDOF 2
