REMARK  Name = *****
REMARK  5 active torsions:
REMARK  status: ('A' for Active; 'I' for Inactive)
REMARK    1  A    between atoms: C_1  and  C_2
REMARK    2  A    between atoms: C_2  and  N_3
REMARK    3  A    between atoms: N_3  and  C_4
REMARK    4  A    between atoms: N_3  and  C_10
REMARK    5  A    between atoms: C_10  and  C_12
REMARK                            x       y       z     vdW  Elec       q    Type
REMARK                         _______ _______ _______ _____ _____    ______ ____
ROOT
ATOM      1  N   UNL     1       3.152  -0.442  -1.358  0.00  0.00    +0.000 N 
ENDROOT
BRANCH   1   2
ATOM      2  C   UNL     1       2.135  -0.564  -2.359  0.00  0.00    +0.000 A 
ATOM      3  C   UNL     1       0.880   0.068  -2.261  0.00  0.00    +0.000 A 
ATOM      4  C   UNL     1      -0.095  -0.062  -3.260  0.00  0.00    +0.000 A 
ATOM      5  C   UNL     1       0.158  -0.827  -4.391  0.00  0.00    +0.000 A 
ATOM      6  C   UNL     1       1.388  -1.458  -4.525  0.00  0.00    +0.000 A 
ATOM      7  C   UNL     1       2.358  -1.325  -3.524  0.00  0.00    +0.000 A 
ENDBRANCH   1   2
BRANCH   1   9
ATOM      8  C   UNL     1       3.627  -0.237   1.090  0.00  0.00    +0.000 C 
ATOM      9  C   UNL     1       2.734   0.173  -0.078  0.00  0.00    +0.000 C 
ENDBRANCH   1   9
BRANCH   1  10
ATOM     10  C   UNL     1       4.507  -0.419  -1.728  0.00  0.00    +0.000 C 
ATOM     11  C   UNL     1       5.250  -1.532  -1.855  0.00  0.00    +0.000 C 
BRANCH  10  12
ATOM     12  C   UNL     1       5.154   0.905  -1.938  0.00  0.00    +0.000 A 
ATOM     13  C   UNL     1       4.582   1.851  -2.801  0.00  0.00    +0.000 A 
ATOM     14  C   UNL     1       5.179   3.100  -2.990  0.00  0.00    +0.000 A 
ATOM     15  C   UNL     1       6.355   3.422  -2.316  0.00  0.00    +0.000 A 
ATOM     16  C   UNL     1       6.934   2.496  -1.452  0.00  0.00    +0.000 A 
ATOM     17  C   UNL     1       6.337   1.247  -1.263  0.00  0.00    +0.000 A 
ENDBRANCH  10  12
ENDBRANCH   1  10
TORSDOF 4
