REMARK  Name = *****
REMARK  3 active torsions:
REMARK  status: ('A' for Active; 'I' for Inactive)
REMARK    1  A    between atoms: C_4  and  C_7
REMARK    2  A    between atoms: C_7  and  C_8
REMARK    3  A    between atoms: C_8  and  C_11
REMARK                            x       y       z     vdW  Elec       q    Type
REMARK                         _______ _______ _______ _____ _____    ______ ____
ROOT
ATOM      1  C   UNL     1      -3.681  -0.901  -0.315  0.00  0.00    +0.000 C 
ATOM      2  C   UNL     1      -3.869  -1.477  -1.472  0.00  0.00    +0.000 C 
ATOM      3  O   UNL     1      -4.044  -1.992  -2.514  0.00  0.00    +0.000 OA
ENDROOT
BRANCH   1   4
ATOM      4  C   UNL     1      -4.441  -1.350   0.877  0.00  0.00    +0.000 A 
ATOM      5  C   UNL     1      -3.865  -1.326   2.157  0.00  0.00    +0.000 A 
ATOM      6  C   UNL     1      -4.591  -1.734   3.280  0.00  0.00    +0.000 A 
ATOM      7  C   UNL     1      -5.907  -2.169   3.142  0.00  0.00    +0.000 A 
ATOM      8  C   UNL     1      -6.495  -2.203   1.881  0.00  0.00    +0.000 A 
ATOM      9  C   UNL     1      -5.767  -1.802   0.757  0.00  0.00    +0.000 A 
ENDBRANCH   1   4
BRANCH   1  10
ATOM     10  C   UNL     1      -2.810   0.326  -0.189  0.00  0.00    +0.000 C 
BRANCH  10  14
ATOM     11  C   UNL     1       1.485  -0.095   0.184  0.00  0.00    +0.000 A 
ATOM     12  C   UNL     1       0.702  -1.239   0.058  0.00  0.00    +0.000 A 
ATOM     13  C   UNL     1      -0.688  -1.135  -0.058  0.00  0.00    +0.000 A 
ATOM     14  C   UNL     1      -1.313   0.120  -0.049  0.00  0.00    +0.000 A 
ATOM     15  C   UNL     1      -0.506   1.264   0.081  0.00  0.00    +0.000 A 
ATOM     16  C   UNL     1       0.881   1.159   0.197  0.00  0.00    +0.000 A 
ENDBRANCH  10  14
ENDBRANCH   1  10
TORSDOF 3
