REMARK  Name = *****
REMARK  4 active torsions:
REMARK  status: ('A' for Active; 'I' for Inactive)
REMARK    1  A    between atoms: C_1  and  C_2
REMARK    2  A    between atoms: C_3  and  C_4
REMARK    3  A    between atoms: C_3  and  C_11
REMARK    4  A    between atoms: C_4  and  C_5
REMARK                            x       y       z     vdW  Elec       q    Type
REMARK                         _______ _______ _______ _____ _____    ______ ____
ROOT
ATOM      1  C   UNL     1       0.330   0.457  -0.215  0.00  0.00    +0.000 C 
ATOM      2  C   UNL     1       1.811   0.252  -0.284  0.00  0.00    +0.000 C 
ATOM      3  C   UNL     1       2.745   0.751   0.550  0.00  0.00    +0.000 C 
ENDROOT
BRANCH   3   4
ATOM      4  C   UNL     1       2.413   1.577   1.699  0.00  0.00    +0.000 C 
ATOM      5  C   UNL     1       2.271   2.909   1.610  0.00  0.00    +0.000 C 
ATOM      6  C   UNL     1       1.900   3.544   2.908  0.00  0.00    +0.000 C 
ATOM      7  C   UNL     1       1.827   2.373   3.888  0.00  0.00    +0.000 C 
ATOM      8  C   UNL     1       2.135   1.152   3.063  0.00  0.00    +0.000 C 
ATOM      9  C   UNL     1       2.141  -0.104   3.524  0.00  0.00    +0.000 C 
ENDBRANCH   3   4
BRANCH   3  10
ATOM     10  C   UNL     1       4.217   0.426   0.381  0.00  0.00    +0.000 C 
BRANCH  10  11
ATOM     11  C   UNL     1       5.042   1.582  -0.143  0.00  0.00    +0.000 A 
ATOM     12  C   UNL     1       5.006   1.924  -1.503  0.00  0.00    +0.000 A 
ATOM     13  C   UNL     1       5.757   2.998  -1.983  0.00  0.00    +0.000 A 
ATOM     14  C   UNL     1       6.547   3.743  -1.110  0.00  0.00    +0.000 A 
ATOM     15  C   UNL     1       6.586   3.417   0.244  0.00  0.00    +0.000 A 
ATOM     16  C   UNL     1       5.836   2.343   0.726  0.00  0.00    +0.000 A 
ENDBRANCH  10  11
ENDBRANCH   3  10
TORSDOF 3
