REMARK  Name = *****
REMARK  3 active torsions:
REMARK  status: ('A' for Active; 'I' for Inactive)
REMARK    1  A    between atoms: C_4  and  C_16
REMARK    2  A    between atoms: C_5  and  C_7
REMARK    3  A    between atoms: C_8  and  C_9
REMARK                            x       y       z     vdW  Elec       q    Type
REMARK                         _______ _______ _______ _____ _____    ______ ____
ROOT
ATOM      1  C   UNL     1      -0.742   2.391  -0.115  0.00  0.00    +0.000 C 
ATOM      2  C   UNL     1      -2.074   2.506  -0.237  0.00  0.00    +0.000 C 
ENDROOT
BRANCH   2   3
ATOM      3  C   UNL     1      -2.794   3.790  -0.256  0.00  0.00    +0.000 A 
ATOM      4  C   UNL     1      -3.927   3.906  -1.076  0.00  0.00    +0.000 A 
ATOM      5  C   UNL     1      -4.665   5.094  -1.113  0.00  0.00    +0.000 A 
ATOM      6  C   UNL     1      -4.289   6.178  -0.322  0.00  0.00    +0.000 A 
ATOM      7  C   UNL     1      -3.176   6.072   0.510  0.00  0.00    +0.000 A 
ATOM      8  C   UNL     1      -2.443   4.887   0.542  0.00  0.00    +0.000 A 
ATOM      9  F   UNL     1      -1.392   4.821   1.373  0.00  0.00    +0.000 F 
ENDBRANCH   2   3
BRANCH   1  14
ATOM     10  C   UNL     1       0.352  -1.069  -1.162  0.00  0.00    +0.000 A 
ATOM     11  C   UNL     1       1.282  -1.391  -0.178  0.00  0.00    +0.000 A 
ATOM     12  C   UNL     1       1.559  -0.477   0.838  0.00  0.00    +0.000 A 
ATOM     13  C   UNL     1       0.903   0.764   0.880  0.00  0.00    +0.000 A 
ATOM     14  C   UNL     1      -0.048   1.091  -0.104  0.00  0.00    +0.000 A 
ATOM     15  C   UNL     1      -0.304   0.163  -1.129  0.00  0.00    +0.000 A 
BRANCH  13  16
ATOM     16  C   UNL     1       1.229   1.665   1.951  0.00  0.00    +0.000 C 
ATOM     17  N   UNL     1       1.523   2.372   2.823  0.00  0.00    +0.000 NA
ENDBRANCH  13  16
ENDBRANCH   1  14
TORSDOF 3
