REMARK  Name = *****
REMARK  3 active torsions:
REMARK  status: ('A' for Active; 'I' for Inactive)
REMARK    1  A    between atoms: C_1  and  C_2
REMARK    2  A    between atoms: C_5  and  C_8
REMARK    3  A    between atoms: C_9  and  C_10
REMARK                            x       y       z     vdW  Elec       q    Type
REMARK                         _______ _______ _______ _____ _____    ______ ____
ROOT
ATOM      1  C   UNL     1       2.500  -0.030  -0.051  0.00  0.00    +0.000 C 
ATOM      2  C   UNL     1       1.000   0.009  -0.052  0.00  0.00    +0.000 A 
ATOM      3  C   UNL     1       0.319   1.217   0.132  0.00  0.00    +0.000 A 
ATOM      4  C   UNL     1      -1.078   1.247   0.162  0.00  0.00    +0.000 A 
ATOM      5  C   UNL     1      -1.820   0.069   0.009  0.00  0.00    +0.000 A 
ATOM      6  C   UNL     1      -1.135  -1.142  -0.143  0.00  0.00    +0.000 A 
ATOM      7  C   UNL     1       0.262  -1.173  -0.174  0.00  0.00    +0.000 A 
ENDROOT
BRANCH   5   8
ATOM      8  C   UNL     1      -3.289   0.055   0.068  0.00  0.00    +0.000 C 
ATOM      9  C   UNL     1      -4.058   0.978  -0.532  0.00  0.00    +0.000 C 
BRANCH   9  10
ATOM     10  C   UNL     1      -5.484   0.949  -0.471  0.00  0.00    +0.000 A 
ATOM     11  C   UNL     1      -6.355   0.085   0.176  0.00  0.00    +0.000 A 
ATOM     12  C   UNL     1      -7.729   0.414  -0.021  0.00  0.00    +0.000 A 
ATOM     13  C   UNL     1      -7.881   1.524  -0.816  0.00  0.00    +0.000 A 
ATOM     14  S   UNL     1      -6.380   2.162  -1.316  0.00  0.00    +0.000 S 
ENDBRANCH   9  10
ENDBRANCH   5   8
TORSDOF 2
