REMARK  Name = *****
REMARK  2 active torsions:
REMARK  status: ('A' for Active; 'I' for Inactive)
REMARK    1  A    between atoms: C_3  and  C_6
REMARK    2  A    between atoms: N_7  and  C_8
REMARK                            x       y       z     vdW  Elec       q    Type
REMARK                         _______ _______ _______ _____ _____    ______ ____
ROOT
ATOM      1  C   UNL     1       0.334  -2.141   1.224  0.00  0.00    +0.000 C 
ATOM      2  N   UNL     1       0.918  -3.299   1.197  0.00  0.00    +0.000 NA
ENDROOT
BRANCH   2   3
ATOM      3  C   UNL     1       1.044  -3.963   2.425  0.00  0.00    +0.000 A 
ATOM      4  C   UNL     1      -0.069  -4.496   3.081  0.00  0.00    +0.000 A 
ATOM      5  C   UNL     1       0.093  -5.170   4.290  0.00  0.00    +0.000 A 
ATOM      6  C   UNL     1       1.360  -5.332   4.849  0.00  0.00    +0.000 A 
ATOM      7  C   UNL     1       2.476  -4.820   4.188  0.00  0.00    +0.000 A 
ATOM      8  C   UNL     1       2.315  -4.142   2.978  0.00  0.00    +0.000 A 
ATOM      9 CL   UNL     1      -1.284  -5.810   5.101  0.00  0.00    +0.000 Cl
ENDBRANCH   2   3
BRANCH   1  12
ATOM     10  C   UNL     1      -0.569   0.875   0.035  0.00  0.00    +0.000 C 
ATOM     11  C   UNL     1       0.513   0.091   0.170  0.00  0.00    +0.000 C 
ATOM     12  C   UNL     1       0.129  -1.347  -0.048  0.00  0.00    +0.000 C 
ATOM     13  C   UNL     1      -1.344  -1.230  -0.332  0.00  0.00    +0.000 C 
ATOM     14  C   UNL     1      -1.716   0.057  -0.276  0.00  0.00    +0.000 C 
ENDBRANCH   1  12
TORSDOF 2
