REMARK  Name = *****
REMARK  4 active torsions:
REMARK  status: ('A' for Active; 'I' for Inactive)
REMARK    1  A    between atoms: C_1  and  C_2
REMARK    2  A    between atoms: C_7  and  S_9
REMARK    3  A    between atoms: S_9  and  C_10
REMARK    4  A    between atoms: C_10  and  C_11
REMARK                            x       y       z     vdW  Elec       q    Type
REMARK                         _______ _______ _______ _____ _____    ______ ____
ROOT
ATOM      1  S   UNL     1       0.021   3.383   0.015  0.00  0.00    +0.000 S 
ENDROOT
BRANCH   1   8
ATOM      2  C   UNL     1      -2.641  -0.960  -0.231  0.00  0.00    +0.000 C 
ATOM      3  C   UNL     1      -1.296  -0.309  -0.070  0.00  0.00    +0.000 A 
ATOM      4  C   UNL     1      -0.186  -1.042   0.096  0.00  0.00    +0.000 A 
ATOM      5  C   UNL     1       1.097  -0.339   0.250  0.00  0.00    +0.000 A 
ATOM      6  O   UNL     1       2.147  -0.950   0.400  0.00  0.00    +0.000 OA
ATOM      7  N   UNL     1       1.019   1.017   0.211  0.00  0.00    +0.000 N 
ATOM      8  C   UNL     1      -0.165   1.658   0.036  0.00  0.00    +0.000 A 
ATOM      9  N   UNL     1      -1.303   1.067  -0.107  0.00  0.00    +0.000 NA
ATOM     10  H   UNL     1       1.842   1.548   0.312  0.00  0.00    +0.000 HD
ENDBRANCH   1   8
BRANCH   1  11
ATOM     11  C   UNL     1      -1.723   3.888  -0.012  0.00  0.00    +0.000 C 
BRANCH  11  12
ATOM     12  C   UNL     1      -1.857   5.394  -0.003  0.00  0.00    +0.000 A 
ATOM     13  C   UNL     1      -1.903   6.148   1.184  0.00  0.00    +0.000 A 
ATOM     14  C   UNL     1      -2.010   7.541   1.142  0.00  0.00    +0.000 A 
ATOM     15  C   UNL     1      -2.065   8.194  -0.086  0.00  0.00    +0.000 A 
ATOM     16  C   UNL     1      -2.011   7.470  -1.273  0.00  0.00    +0.000 A 
ATOM     17  C   UNL     1      -1.905   6.078  -1.232  0.00  0.00    +0.000 A 
ATOM     18 CL   UNL     1      -2.196   9.908  -0.137  0.00  0.00    +0.000 Cl
ATOM     19 CL   UNL     1      -1.829   5.403   2.742  0.00  0.00    +0.000 Cl
ENDBRANCH  11  12
ENDBRANCH   1  11
TORSDOF 3
