REMARK  Name = *****
REMARK  3 active torsions:
REMARK  status: ('A' for Active; 'I' for Inactive)
REMARK    1  A    between atoms: C_3  and  C_14
REMARK    2  A    between atoms: C_6  and  C_7
REMARK    3  A    between atoms: C_8  and  C_9
REMARK                            x       y       z     vdW  Elec       q    Type
REMARK                         _______ _______ _______ _____ _____    ______ ____
ROOT
ATOM      1  C   UNL     1       1.640  -1.028  -0.656  0.00  0.00    +0.000 A 
ATOM      2  C   UNL     1       0.242  -1.024  -0.705  0.00  0.00    +0.000 A 
ATOM      3  C   UNL     1      -0.482  -0.062   0.004  0.00  0.00    +0.000 A 
ATOM      4  C   UNL     1       0.199   0.898   0.758  0.00  0.00    +0.000 A 
ATOM      5  C   UNL     1       1.597   0.892   0.805  0.00  0.00    +0.000 A 
ATOM      6  C   UNL     1       2.329  -0.079   0.111  0.00  0.00    +0.000 A 
ENDROOT
BRANCH   6   7
ATOM      7  C   UNL     1       3.797  -0.033   0.161  0.00  0.00    +0.000 C 
ATOM      8  C   UNL     1       4.573  -1.125   0.281  0.00  0.00    +0.000 C 
BRANCH   8   9
ATOM      9  C   UNL     1       6.006  -1.153   0.343  0.00  0.00    +0.000 A 
ATOM     10  C   UNL     1       6.835  -0.054   0.244  0.00  0.00    +0.000 A 
ATOM     11  S   UNL     1       8.494  -0.470   0.360  0.00  0.00    +0.000 S 
ATOM     12  C   UNL     1       8.120  -2.127   0.541  0.00  0.00    +0.000 A 
ATOM     13  C   UNL     1       6.761  -2.356   0.514  0.00  0.00    +0.000 A 
ENDBRANCH   8   9
ENDBRANCH   6   7
BRANCH   3  14
ATOM     14  C   UNL     1      -1.915  -0.056  -0.046  0.00  0.00    +0.000 C 
ATOM     15  N   UNL     1      -3.075  -0.052  -0.087  0.00  0.00    +0.000 NA
ENDBRANCH   3  14
TORSDOF 3
