REMARK  Name = *****
REMARK  4 active torsions:
REMARK  status: ('A' for Active; 'I' for Inactive)
REMARK    1  A    between atoms: C_1  and  N_2
REMARK    2  A    between atoms: N_2  and  C_3
REMARK    3  A    between atoms: C_7  and  C_9
REMARK    4  A    between atoms: C_10  and  C_11
REMARK                            x       y       z     vdW  Elec       q    Type
REMARK                         _______ _______ _______ _____ _____    ______ ____
ROOT
ATOM      1  C   UNL     1       1.328  -0.722  -0.021  0.00  0.00    +0.000 C 
ATOM      2  N   UNL     1       2.423   0.229   0.139  0.00  0.00    +0.000 N 
ATOM      3  C   UNL     1       3.190   0.521  -1.063  0.00  0.00    +0.000 C 
ATOM      4  C   UNL     1       3.039   0.241   1.364  0.00  0.00    +0.000 A 
ATOM      5  N   UNL     1       2.572  -0.407   2.411  0.00  0.00    +0.000 NA
ATOM      6  C   UNL     1       3.373  -0.210   3.517  0.00  0.00    +0.000 A 
ATOM      7  C   UNL     1       4.480   0.600   3.342  0.00  0.00    +0.000 A 
ATOM      8  S   UNL     1       4.487   1.132   1.703  0.00  0.00    +0.000 S 
ENDROOT
BRANCH   7   9
ATOM      9  C   UNL     1       5.513   1.024   4.227  0.00  0.00    +0.000 C 
ATOM     10  C   UNL     1       5.568   0.631   5.510  0.00  0.00    +0.000 C 
BRANCH  10  11
ATOM     11  C   UNL     1       6.628   1.050   6.438  0.00  0.00    +0.000 A 
ATOM     12  C   UNL     1       7.103   2.368   6.483  0.00  0.00    +0.000 A 
ATOM     13  C   UNL     1       8.090   2.736   7.401  0.00  0.00    +0.000 A 
ATOM     14  C   UNL     1       8.605   1.794   8.289  0.00  0.00    +0.000 A 
ATOM     15  C   UNL     1       8.129   0.485   8.265  0.00  0.00    +0.000 A 
ATOM     16  C   UNL     1       7.141   0.116   7.348  0.00  0.00    +0.000 A 
ENDBRANCH  10  11
ENDBRANCH   7   9
TORSDOF 2
