REMARK  Name = *****
REMARK  5 active torsions:
REMARK  status: ('A' for Active; 'I' for Inactive)
REMARK    1  A    between atoms: C_1  and  C_2
REMARK    2  A    between atoms: C_5  and  C_8
REMARK    3  A    between atoms: C_8  and  O_10
REMARK    4  A    between atoms: O_10  and  C_11
REMARK    5  A    between atoms: C_16  and  N_17
REMARK                            x       y       z     vdW  Elec       q    Type
REMARK                         _______ _______ _______ _____ _____    ______ ____
ROOT
ATOM      1  C   UNL     1      -3.104  -0.098   0.770  0.00  0.00    +0.000 C 
ATOM      2  O   UNL     1      -3.794  -1.093   0.602  0.00  0.00    +0.000 OA
ENDROOT
BRANCH   1   7
ATOM      3  C   UNL     1       2.480   0.062  -0.782  0.00  0.00    +0.000 C 
ATOM      4  C   UNL     1       1.025   0.038  -0.414  0.00  0.00    +0.000 A 
ATOM      5  C   UNL     1       0.348   1.228  -0.123  0.00  0.00    +0.000 A 
ATOM      6  C   UNL     1      -0.997   1.206   0.256  0.00  0.00    +0.000 A 
ATOM      7  C   UNL     1      -1.677  -0.013   0.362  0.00  0.00    +0.000 A 
ATOM      8  C   UNL     1      -1.002  -1.206   0.073  0.00  0.00    +0.000 A 
ATOM      9  C   UNL     1       0.344  -1.180  -0.303  0.00  0.00    +0.000 A 
ENDBRANCH   1   7
BRANCH   1  10
ATOM     10  O   UNL     1      -3.475   1.076   1.398  0.00  0.00    +0.000 OA
BRANCH  10  11
ATOM     11  C   UNL     1      -4.805   1.065   1.820  0.00  0.00    +0.000 A 
ATOM     12  C   UNL     1      -5.133   0.470   3.038  0.00  0.00    +0.000 A 
ATOM     13  C   UNL     1      -6.457   0.499   3.480  0.00  0.00    +0.000 A 
ATOM     14  C   UNL     1      -7.443   1.134   2.717  0.00  0.00    +0.000 A 
ATOM     15  C   UNL     1      -7.109   1.747   1.507  0.00  0.00    +0.000 A 
ATOM     16  C   UNL     1      -5.785   1.711   1.070  0.00  0.00    +0.000 A 
BRANCH  16  17
ATOM     17  N   UNL     1      -5.451   2.342  -0.120  0.00  0.00    +0.000 NA
ATOM     18  C   UNL     1      -5.172   2.884  -1.122  0.00  0.00    +0.000 C 
ENDBRANCH  16  17
ENDBRANCH  10  11
ENDBRANCH   1  10
TORSDOF 4
