REMARK  Name = *****
REMARK  5 active torsions:
REMARK  status: ('A' for Active; 'I' for Inactive)
REMARK    1  A    between atoms: C_1  and  O_2
REMARK    2  A    between atoms: O_2  and  C_3
REMARK    3  A    between atoms: C_6  and  C_9
REMARK    4  A    between atoms: C_10  and  C_11
REMARK    5  A    between atoms: C_16  and  C_17
REMARK                            x       y       z     vdW  Elec       q    Type
REMARK                         _______ _______ _______ _____ _____    ______ ____
ROOT
ATOM      1  C   UNL     1       5.677  -3.254   3.213  0.00  0.00    +0.000 C 
ATOM      2  C   UNL     1       5.380  -4.517   3.558  0.00  0.00    +0.000 C 
ENDROOT
BRANCH   1   6
ATOM      3  C   UNL     1       3.213  -0.737   0.768  0.00  0.00    +0.000 A 
ATOM      4  C   UNL     1       2.621  -1.595   1.693  0.00  0.00    +0.000 A 
ATOM      5  C   UNL     1       3.417  -2.425   2.494  0.00  0.00    +0.000 A 
ATOM      6  C   UNL     1       4.812  -2.417   2.373  0.00  0.00    +0.000 A 
ATOM      7  C   UNL     1       5.400  -1.538   1.458  0.00  0.00    +0.000 A 
ATOM      8  C   UNL     1       4.605  -0.711   0.659  0.00  0.00    +0.000 A 
BRANCH   3  10
ATOM      9  C   UNL     1       1.136   0.110  -0.017  0.00  0.00    +0.000 C 
ATOM     10  O   UNL     1       2.557   0.120  -0.072  0.00  0.00    +0.000 OA
ENDBRANCH   3  10
ENDBRANCH   1   6
BRANCH   2  11
ATOM     11  C   UNL     1       6.283  -5.312   4.394  0.00  0.00    +0.000 A 
ATOM     12  C   UNL     1       7.237  -6.113   3.748  0.00  0.00    +0.000 A 
ATOM     13  C   UNL     1       8.133  -6.885   4.487  0.00  0.00    +0.000 A 
ATOM     14  C   UNL     1       8.087  -6.862   5.877  0.00  0.00    +0.000 A 
ATOM     15  C   UNL     1       7.143  -6.067   6.529  0.00  0.00    +0.000 A 
ATOM     16  C   UNL     1       6.226  -5.285   5.800  0.00  0.00    +0.000 A 
BRANCH  16  17
ATOM     17  C   UNL     1       5.223  -4.430   6.536  0.00  0.00    +0.000 C 
ATOM     18  F   UNL     1       3.942  -4.603   6.102  0.00  0.00    +0.000 F 
ATOM     19  F   UNL     1       5.183  -4.688   7.877  0.00  0.00    +0.000 F 
ATOM     20  F   UNL     1       5.485  -3.097   6.434  0.00  0.00    +0.000 F 
ENDBRANCH  16  17
ENDBRANCH   2  11
TORSDOF 4
