REMARK  Name = *****
REMARK  3 active torsions:
REMARK  status: ('A' for Active; 'I' for Inactive)
REMARK    1  A    between atoms: C_7  and  O_8
REMARK    2  A    between atoms: O_8  and  C_9
REMARK    3  A    between atoms: C_9  and  C_11
REMARK                            x       y       z     vdW  Elec       q    Type
REMARK                         _______ _______ _______ _____ _____    ______ ____
ROOT
ATOM      1  C   UNL     1       3.613   0.151   0.513  0.00  0.00    +0.000 C 
ATOM      2  O   UNL     1       3.633   0.052   1.730  0.00  0.00    +0.000 OA
ENDROOT
BRANCH   1   3
ATOM      3  C   UNL     1       4.814   0.478  -0.304  0.00  0.00    +0.000 A 
ATOM      4  C   UNL     1       6.041   0.637   0.358  0.00  0.00    +0.000 A 
ATOM      5  C   UNL     1       7.198   0.946  -0.364  0.00  0.00    +0.000 A 
ATOM      6  C   UNL     1       7.130   1.096  -1.748  0.00  0.00    +0.000 A 
ATOM      7  C   UNL     1       5.917   0.941  -2.417  0.00  0.00    +0.000 A 
ATOM      8  C   UNL     1       4.758   0.632  -1.697  0.00  0.00    +0.000 A 
ATOM      9 CL   UNL     1       8.553   1.476  -2.637  0.00  0.00    +0.000 Cl
ENDBRANCH   1   3
BRANCH   1  10
ATOM     10  O   UNL     1       2.528  -0.014  -0.283  0.00  0.00    +0.000 OA
BRANCH  10  17
ATOM     11  C   UNL     1      -1.599  -0.098   0.720  0.00  0.00    +0.000 C 
ATOM     12  C   UNL     1      -0.960  -1.348   0.098  0.00  0.00    +0.000 C 
ATOM     13  C   UNL     1       0.262  -0.779  -0.640  0.00  0.00    +0.000 C 
ATOM     14  C   UNL     1      -0.281   0.559  -1.150  0.00  0.00    +0.000 C 
ATOM     15  C   UNL     1      -0.673   1.036   0.246  0.00  0.00    +0.000 C 
ATOM     16  C   UNL     1       0.666   0.939   1.000  0.00  0.00    +0.000 C 
ATOM     17  C   UNL     1       1.308  -0.330   0.404  0.00  0.00    +0.000 C 
ENDBRANCH  10  17
ENDBRANCH   1  10
TORSDOF 3
