REMARK  Name = *****
REMARK  5 active torsions:
REMARK  status: ('A' for Active; 'I' for Inactive)
REMARK    1  A    between atoms: C_1  and  C_2
REMARK    2  A    between atoms: C_2  and  C_3
REMARK    3  A    between atoms: C_2  and  C_10
REMARK    4  A    between atoms: C_3  and  C_4
REMARK    5  A    between atoms: C_10  and  C_11
REMARK                            x       y       z     vdW  Elec       q    Type
REMARK                         _______ _______ _______ _____ _____    ______ ____
ROOT
ATOM      1  C   UNL     1       1.044   0.090   0.081  0.00  0.00    +0.000 C 
ATOM      2  C   UNL     1       2.572  -0.030   0.006  0.00  0.00    +0.000 C 
ATOM      3 CL   UNL     1       3.250   1.024   1.328  0.00  0.00    +0.000 Cl
ENDROOT
BRANCH   2   4
ATOM      4  C   UNL     1       3.060  -1.491   0.207  0.00  0.00    +0.000 C 
BRANCH   4   5
ATOM      5  C   UNL     1       2.628  -2.201   1.473  0.00  0.00    +0.000 A 
ATOM      6  C   UNL     1       1.446  -2.957   1.496  0.00  0.00    +0.000 A 
ATOM      7  C   UNL     1       1.047  -3.615   2.661  0.00  0.00    +0.000 A 
ATOM      8  C   UNL     1       1.825  -3.529   3.813  0.00  0.00    +0.000 A 
ATOM      9  C   UNL     1       3.004  -2.787   3.800  0.00  0.00    +0.000 A 
ATOM     10  C   UNL     1       3.406  -2.129   2.637  0.00  0.00    +0.000 A 
ENDBRANCH   4   5
ENDBRANCH   2   4
BRANCH   2  11
ATOM     11  C   UNL     1       3.122   0.563  -1.323  0.00  0.00    +0.000 C 
BRANCH  11  12
ATOM     12  C   UNL     1       2.694  -0.124  -2.602  0.00  0.00    +0.000 A 
ATOM     13  C   UNL     1       1.506   0.246  -3.248  0.00  0.00    +0.000 A 
ATOM     14  C   UNL     1       1.111  -0.391  -4.426  0.00  0.00    +0.000 A 
ATOM     15  C   UNL     1       1.901  -1.398  -4.974  0.00  0.00    +0.000 A 
ATOM     16  C   UNL     1       3.090  -1.767  -4.348  0.00  0.00    +0.000 A 
ATOM     17  C   UNL     1       3.486  -1.131  -3.170  0.00  0.00    +0.000 A 
ENDBRANCH  11  12
ENDBRANCH   2  11
TORSDOF 4
