REMARK  Name = *****
REMARK  3 active torsions:
REMARK  status: ('A' for Active; 'I' for Inactive)
REMARK    1  A    between atoms: C_3  and  C_6
REMARK    2  A    between atoms: C_6  and  C_7
REMARK    3  A    between atoms: C_7  and  C_8
REMARK                            x       y       z     vdW  Elec       q    Type
REMARK                         _______ _______ _______ _____ _____    ______ ____
ROOT
ATOM      1  C   UNL     1      -1.714  -2.426  -1.723  0.00  0.00    +0.000 C 
ENDROOT
BRANCH   1   2
ATOM      2  C   UNL     1      -2.321  -2.666  -3.084  0.00  0.00    +0.000 A 
ATOM      3  C   UNL     1      -1.526  -2.616  -4.237  0.00  0.00    +0.000 A 
ATOM      4  C   UNL     1      -2.093  -2.821  -5.496  0.00  0.00    +0.000 A 
ATOM      5  C   UNL     1      -3.458  -3.074  -5.614  0.00  0.00    +0.000 A 
ATOM      6  C   UNL     1      -4.259  -3.119  -4.474  0.00  0.00    +0.000 A 
ATOM      7  C   UNL     1      -3.694  -2.914  -3.214  0.00  0.00    +0.000 A 
ENDBRANCH   1   2
BRANCH   1   8
ATOM      8  C   UNL     1      -1.792  -0.949  -1.324  0.00  0.00    +0.000 C 
BRANCH   8  11
ATOM      9  C   UNL     1      -2.308   1.007   1.366  0.00  0.00    +0.000 C 
ATOM     10  C   UNL     1      -1.150   0.831   0.383  0.00  0.00    +0.000 C 
ATOM     11  C   UNL     1      -1.112  -0.665   0.023  0.00  0.00    +0.000 C 
ATOM     12  C   UNL     1      -1.829  -1.280   1.189  0.00  0.00    +0.000 C 
ATOM     13  C   UNL     1      -2.480  -0.368   1.918  0.00  0.00    +0.000 C 
ENDBRANCH   8  11
ENDBRANCH   1   8
TORSDOF 3
