REMARK  Name = *****
REMARK  4 active torsions:
REMARK  status: ('A' for Active; 'I' for Inactive)
REMARK    1  A    between atoms: C_4  and  C_7
REMARK    2  A    between atoms: C_7  and  S_11
REMARK    3  A    between atoms: C_8  and  C_9
REMARK    4  A    between atoms: S_11  and  C_12
REMARK                            x       y       z     vdW  Elec       q    Type
REMARK                         _______ _______ _______ _____ _____    ______ ____
ROOT
ATOM      1  C   UNL     1      -2.932   0.499  -0.143  0.00  0.00    +0.000 C 
ATOM      2  C   UNL     1      -3.254   1.795  -0.000  0.00  0.00    +0.000 C 
ENDROOT
BRANCH   1   6
ATOM      3  C   UNL     1       1.072  -0.957   0.194  0.00  0.00    +0.000 A 
ATOM      4  C   UNL     1       0.311  -0.738   1.341  0.00  0.00    +0.000 A 
ATOM      5  C   UNL     1      -0.999  -0.269   1.231  0.00  0.00    +0.000 A 
ATOM      6  C   UNL     1      -1.558  -0.017  -0.030  0.00  0.00    +0.000 A 
ATOM      7  C   UNL     1      -0.784  -0.238  -1.177  0.00  0.00    +0.000 A 
ATOM      8  C   UNL     1       0.526  -0.707  -1.064  0.00  0.00    +0.000 A 
ENDBRANCH   1   6
BRANCH   2   9
ATOM      9  C   UNL     1      -2.318   2.821   0.292  0.00  0.00    +0.000 C 
ATOM     10  N   UNL     1      -1.576   3.682   0.526  0.00  0.00    +0.000 NA
ENDBRANCH   2   9
BRANCH   1  11
ATOM     11  S   UNL     1      -4.144  -0.692  -0.518  0.00  0.00    +0.000 S 
BRANCH  11  12
ATOM     12  C   UNL     1      -4.619  -1.177   1.137  0.00  0.00    +0.000 A 
ATOM     13  C   UNL     1      -4.962  -2.503   1.377  0.00  0.00    +0.000 A 
ATOM     14  C   UNL     1      -5.352  -2.873   2.662  0.00  0.00    +0.000 A 
ATOM     15  C   UNL     1      -5.392  -1.910   3.663  0.00  0.00    +0.000 A 
ATOM     16  C   UNL     1      -5.042  -0.612   3.336  0.00  0.00    +0.000 A 
ATOM     17  N   UNL     1      -4.661  -0.225   2.099  0.00  0.00    +0.000 NA
ENDBRANCH  11  12
ENDBRANCH   1  11
TORSDOF 4
