REMARK  Name = *****
REMARK  3 active torsions:
REMARK  status: ('A' for Active; 'I' for Inactive)
REMARK    1  A    between atoms: C_4  and  C_7
REMARK    2  A    between atoms: C_8  and  C_9
REMARK    3  A    between atoms: C_12  and  C_14
REMARK                            x       y       z     vdW  Elec       q    Type
REMARK                         _______ _______ _______ _____ _____    ______ ____
ROOT
ATOM      1  C   UNL     1      -5.176  -0.378  -0.470  0.00  0.00    +0.000 A 
ATOM      2  N   UNL     1      -6.139  -1.284  -0.388  0.00  0.00    +0.000 NA
ATOM      3  N   UNL     1      -7.339  -0.664  -0.647  0.00  0.00    +0.000 NA
ATOM      4  C   UNL     1      -7.064   0.603  -0.879  0.00  0.00    +0.000 A 
ATOM      5  O   UNL     1      -5.716   0.858  -0.783  0.00  0.00    +0.000 OA
ENDROOT
BRANCH   4   6
ATOM      6  C   UNL     1      -7.965   1.748  -1.210  0.00  0.00    +0.000 C 
ATOM      7 CL   UNL     1      -9.674   1.228  -1.342  0.00  0.00    +0.000 Cl
ATOM      8 CL   UNL     1      -7.858   3.002   0.069  0.00  0.00    +0.000 Cl
ATOM      9 CL   UNL     1      -7.482   2.482  -2.775  0.00  0.00    +0.000 Cl
ENDBRANCH   4   6
BRANCH   1  11
ATOM     10  C   UNL     1      -2.882   0.365  -0.387  0.00  0.00    +0.000 C 
ATOM     11  C   UNL     1      -3.790  -0.616  -0.272  0.00  0.00    +0.000 C 
BRANCH  10  15
ATOM     12  C   UNL     1       1.332  -0.106   0.182  0.00  0.00    +0.000 A 
ATOM     13  C   UNL     1       0.608  -1.117  -0.445  0.00  0.00    +0.000 A 
ATOM     14  C   UNL     1      -0.770  -0.980  -0.632  0.00  0.00    +0.000 A 
ATOM     15  C   UNL     1      -1.439   0.167  -0.183  0.00  0.00    +0.000 A 
ATOM     16  C   UNL     1      -0.697   1.184   0.431  0.00  0.00    +0.000 A 
ATOM     17  C   UNL     1       0.681   1.046   0.618  0.00  0.00    +0.000 A 
ENDBRANCH  10  15
ENDBRANCH   1  11
TORSDOF 3
