REMARK  Name = *****
REMARK  5 active torsions:
REMARK  status: ('A' for Active; 'I' for Inactive)
REMARK    1  A    between atoms: C_1  and  C_2
REMARK    2  A    between atoms: C_2  and  C_3
REMARK    3  A    between atoms: C_3  and  C_4
REMARK    4  A    between atoms: C_3  and  C_10
REMARK    5  A    between atoms: C_10  and  C_12
REMARK                            x       y       z     vdW  Elec       q    Type
REMARK                         _______ _______ _______ _____ _____    ______ ____
ROOT
ATOM      1  C   UNL     1       2.811   1.307   0.798  0.00  0.00    +0.000 C 
ATOM      2  F   UNL     1       4.139   1.669   0.761  0.00  0.00    +0.000 F 
ENDROOT
BRANCH   1   3
ATOM      3  C   UNL     1       2.480   0.260  -0.268  0.00  0.00    +0.000 A 
ATOM      4  C   UNL     1       1.221  -0.362  -0.323  0.00  0.00    +0.000 A 
ATOM      5  C   UNL     1       0.939  -1.313  -1.305  0.00  0.00    +0.000 A 
ATOM      6  C   UNL     1       1.906  -1.652  -2.248  0.00  0.00    +0.000 A 
ATOM      7  C   UNL     1       3.156  -1.039  -2.214  0.00  0.00    +0.000 A 
ATOM      8  C   UNL     1       3.441  -0.088  -1.233  0.00  0.00    +0.000 A 
ENDBRANCH   1   3
BRANCH   1  10
ATOM      9  C   UNL     1       2.406   3.326  -0.743  0.00  0.00    +0.000 C 
ATOM     10  C   UNL     1       2.024   2.616   0.551  0.00  0.00    +0.000 C 
ENDBRANCH   1  10
BRANCH   1  11
ATOM     11  C   UNL     1       2.457   0.773   2.207  0.00  0.00    +0.000 C 
ATOM     12  O   UNL     1       1.369   1.012   2.740  0.00  0.00    +0.000 OA
BRANCH  11  13
ATOM     13  C   UNL     1       3.422  -0.106   2.944  0.00  0.00    +0.000 A 
ATOM     14  C   UNL     1       4.592  -0.618   2.371  0.00  0.00    +0.000 A 
ATOM     15  C   UNL     1       5.444  -1.440   3.116  0.00  0.00    +0.000 A 
ATOM     16  C   UNL     1       5.135  -1.761   4.436  0.00  0.00    +0.000 A 
ATOM     17  C   UNL     1       3.972  -1.261   5.016  0.00  0.00    +0.000 A 
ATOM     18  C   UNL     1       3.120  -0.440   4.274  0.00  0.00    +0.000 A 
ENDBRANCH  11  13
ENDBRANCH   1  11
TORSDOF 4
