REMARK  Name = *****
REMARK  3 active torsions:
REMARK  status: ('A' for Active; 'I' for Inactive)
REMARK    1  A    between atoms: C_4  and  C_7
REMARK    2  A    between atoms: C_8  and  C_9
REMARK    3  A    between atoms: C_12  and  S_15
REMARK                            x       y       z     vdW  Elec       q    Type
REMARK                         _______ _______ _______ _____ _____    ______ ____
ROOT
ATOM      1  C   UNL     1      -2.817   0.430  -0.320  0.00  0.00    +0.000 C 
ATOM      2  C   UNL     1      -3.731  -0.547  -0.435  0.00  0.00    +0.000 C 
ENDROOT
BRANCH   1   6
ATOM      3  C   UNL     1       1.378  -0.167   0.270  0.00  0.00    +0.000 A 
ATOM      4  C   UNL     1       0.673  -1.032  -0.564  0.00  0.00    +0.000 A 
ATOM      5  C   UNL     1      -0.699  -0.853  -0.760  0.00  0.00    +0.000 A 
ATOM      6  C   UNL     1      -1.382   0.187  -0.114  0.00  0.00    +0.000 A 
ATOM      7  C   UNL     1      -0.658   1.060   0.708  0.00  0.00    +0.000 A 
ATOM      8  C   UNL     1       0.714   0.880   0.904  0.00  0.00    +0.000 A 
ENDBRANCH   1   6
BRANCH   2   9
ATOM      9  C   UNL     1      -5.169  -0.306  -0.625  0.00  0.00    +0.000 A 
ATOM     10  C   UNL     1      -5.654   0.724  -1.439  0.00  0.00    +0.000 A 
ATOM     11  C   UNL     1      -7.030   0.902  -1.621  0.00  0.00    +0.000 A 
ATOM     12  C   UNL     1      -7.939   0.046  -0.997  0.00  0.00    +0.000 A 
ATOM     13  C   UNL     1      -7.462  -0.998  -0.203  0.00  0.00    +0.000 A 
ATOM     14  C   UNL     1      -6.086  -1.175  -0.021  0.00  0.00    +0.000 A 
BRANCH  12  15
ATOM     15  S   UNL     1      -9.691   0.251  -1.229  0.00  0.00    +0.000 S 
ATOM     16  H   UNL     1      -9.919   1.324  -2.034  0.00  0.00    +0.000 HD
ENDBRANCH  12  15
ENDBRANCH   2   9
TORSDOF 3
