REMARK  Name = *****
REMARK  4 active torsions:
REMARK  status: ('A' for Active; 'I' for Inactive)
REMARK    1  A    between atoms: C_5  and  C_6
REMARK    2  A    between atoms: C_6  and  O_7
REMARK    3  A    between atoms: O_7  and  C_8
REMARK    4  A    between atoms: C_8  and  C_10
REMARK                            x       y       z     vdW  Elec       q    Type
REMARK                         _______ _______ _______ _____ _____    ______ ____
ROOT
ATOM      1  C   UNL     1       1.921  -2.233   2.922  0.00  0.00    +0.000 C 
ATOM      2  O   UNL     1       1.924  -1.045   3.204  0.00  0.00    +0.000 OA
ENDROOT
BRANCH   1   3
ATOM      3  C   UNL     1       2.980  -3.183   3.359  0.00  0.00    +0.000 A 
ATOM      4  C   UNL     1       4.016  -2.693   4.168  0.00  0.00    +0.000 A 
ATOM      5  C   UNL     1       5.033  -3.545   4.602  0.00  0.00    +0.000 A 
ATOM      6  C   UNL     1       5.023  -4.889   4.232  0.00  0.00    +0.000 A 
ATOM      7  C   UNL     1       3.998  -5.384   3.427  0.00  0.00    +0.000 A 
ATOM      8  C   UNL     1       2.977  -4.535   2.990  0.00  0.00    +0.000 A 
ENDBRANCH   1   3
BRANCH   1   9
ATOM      9  O   UNL     1       0.984  -2.872   2.179  0.00  0.00    +0.000 OA
BRANCH   9  10
ATOM     10  C   UNL     1      -0.099  -2.057   1.699  0.00  0.00    +0.000 C 
BRANCH  10  15
ATOM     11  C   UNL     1       0.504  -2.401  -0.749  0.00  0.00    +0.000 C 
ATOM     12  C   UNL     1      -0.786  -2.361  -1.503  0.00  0.00    +0.000 C 
ATOM     13  C   UNL     1      -1.528  -1.304  -1.160  0.00  0.00    +0.000 C 
ATOM     14  C   UNL     1      -0.853  -0.466  -0.124  0.00  0.00    +0.000 C 
ATOM     15  C   UNL     1       0.281  -1.374   0.376  0.00  0.00    +0.000 C 
ENDBRANCH  10  15
ENDBRANCH   9  10
ENDBRANCH   1   9
TORSDOF 4
