REMARK  Name = *****
REMARK  4 active torsions:
REMARK  status: ('A' for Active; 'I' for Inactive)
REMARK    1  A    between atoms: C_1  and  O_2
REMARK    2  A    between atoms: O_2  and  C_3
REMARK    3  A    between atoms: C_8  and  C_9
REMARK    4  A    between atoms: C_10  and  C_11
REMARK                            x       y       z     vdW  Elec       q    Type
REMARK                         _______ _______ _______ _____ _____    ______ ____
ROOT
ATOM      1  C   UNL     1       4.428   1.880   0.355  0.00  0.00    +0.000 C 
ATOM      2  C   UNL     1       3.594   2.555  -0.452  0.00  0.00    +0.000 C 
ENDROOT
BRANCH   2   3
ATOM      3  C   UNL     1       4.028   3.551  -1.441  0.00  0.00    +0.000 A 
ATOM      4  C   UNL     1       5.213   3.409  -2.176  0.00  0.00    +0.000 A 
ATOM      5  C   UNL     1       5.568   4.368  -3.126  0.00  0.00    +0.000 A 
ATOM      6  C   UNL     1       4.748   5.468  -3.366  0.00  0.00    +0.000 A 
ATOM      7  C   UNL     1       3.558   5.608  -2.653  0.00  0.00    +0.000 A 
ATOM      8  C   UNL     1       3.199   4.651  -1.701  0.00  0.00    +0.000 A 
ATOM      9 CL   UNL     1       7.031   4.187  -4.015  0.00  0.00    +0.000 Cl
ENDBRANCH   2   3
BRANCH   1  15
ATOM     10  C   UNL     1       3.168  -0.221   1.034  0.00  0.00    +0.000 A 
ATOM     11  C   UNL     1       2.781  -1.098   2.055  0.00  0.00    +0.000 A 
ATOM     12  C   UNL     1       3.176  -0.871   3.376  0.00  0.00    +0.000 A 
ATOM     13  C   UNL     1       3.965   0.231   3.691  0.00  0.00    +0.000 A 
ATOM     14  C   UNL     1       4.356   1.112   2.684  0.00  0.00    +0.000 A 
ATOM     15  C   UNL     1       3.956   0.905   1.354  0.00  0.00    +0.000 A 
BRANCH  10  17
ATOM     16  C   UNL     1       2.059  -1.519  -0.640  0.00  0.00    +0.000 C 
ATOM     17  O   UNL     1       2.842  -0.387  -0.289  0.00  0.00    +0.000 OA
ENDBRANCH  10  17
ENDBRANCH   1  15
TORSDOF 3
