REMARK  Name = *****
REMARK  2 active torsions:
REMARK  status: ('A' for Active; 'I' for Inactive)
REMARK    1  A    between atoms: C_5  and  C_7
REMARK    2  A    between atoms: C_10  and  C_12
REMARK                            x       y       z     vdW  Elec       q    Type
REMARK                         _______ _______ _______ _____ _____    ______ ____
ROOT
ATOM      1  C   UNL     1       0.891  -2.523  -0.070  0.00  0.00    +0.000 A 
ATOM      2  N   UNL     1       0.842  -3.433  -1.023  0.00  0.00    +0.000 NA
ATOM      3  N   UNL     1       1.664  -4.469  -0.621  0.00  0.00    +0.000 NA
ATOM      4  C   UNL     1       2.154  -4.124   0.554  0.00  0.00    +0.000 A 
ATOM      5  O   UNL     1       1.705  -2.898   0.963  0.00  0.00    +0.000 OA
ENDROOT
BRANCH   1  10
ATOM      6  C   UNL     1      -1.276   0.419  -0.966  0.00  0.00    +0.000 A 
ATOM      7  C   UNL     1      -1.070   1.271   0.117  0.00  0.00    +0.000 A 
ATOM      8  C   UNL     1      -0.225   0.880   1.152  0.00  0.00    +0.000 A 
ATOM      9  C   UNL     1       0.413  -0.360   1.099  0.00  0.00    +0.000 A 
ATOM     10  C   UNL     1       0.227  -1.231   0.020  0.00  0.00    +0.000 A 
ATOM     11  C   UNL     1      -0.632  -0.822  -1.014  0.00  0.00    +0.000 A 
ATOM     12  F   UNL     1       1.218  -0.684   2.122  0.00  0.00    +0.000 F 
ENDBRANCH   1  10
BRANCH   4  13
ATOM     13  C   UNL     1       3.067  -4.842   1.430  0.00  0.00    +0.000 A 
ATOM     14  C   UNL     1       3.598  -6.075   1.014  0.00  0.00    +0.000 A 
ATOM     15  C   UNL     1       4.470  -6.797   1.836  0.00  0.00    +0.000 A 
ATOM     16  C   UNL     1       4.826  -6.297   3.087  0.00  0.00    +0.000 A 
ATOM     17  C   UNL     1       4.311  -5.075   3.513  0.00  0.00    +0.000 A 
ATOM     18  C   UNL     1       3.443  -4.359   2.689  0.00  0.00    +0.000 A 
ATOM     19  F   UNL     1       2.975  -3.191   3.152  0.00  0.00    +0.000 F 
ENDBRANCH   4  13
TORSDOF 2
