REMARK  Name = *****
REMARK  4 active torsions:
REMARK  status: ('A' for Active; 'I' for Inactive)
REMARK    1  A    between atoms: C_4  and  C_7
REMARK    2  A    between atoms: C_7  and  O_8
REMARK    3  A    between atoms: O_8  and  C_9
REMARK    4  A    between atoms: C_9  and  C_11
REMARK                            x       y       z     vdW  Elec       q    Type
REMARK                         _______ _______ _______ _____ _____    ______ ____
ROOT
ATOM      1  O   UNL     1      -3.596  -0.780  -0.376  0.00  0.00    +0.000 OA
ENDROOT
BRANCH   1   2
ATOM      2  C   UNL     1      -4.944  -0.662  -0.307  0.00  0.00    +0.000 C 
ATOM      3  O   UNL     1      -5.573   0.380  -0.211  0.00  0.00    +0.000 OA
BRANCH   2   4
ATOM      4  C   UNL     1      -5.591  -2.001  -0.364  0.00  0.00    +0.000 A 
ATOM      5  C   UNL     1      -4.867  -3.179  -0.597  0.00  0.00    +0.000 A 
ATOM      6  C   UNL     1      -5.528  -4.409  -0.654  0.00  0.00    +0.000 A 
ATOM      7  C   UNL     1      -6.910  -4.470  -0.478  0.00  0.00    +0.000 A 
ATOM      8  C   UNL     1      -7.637  -3.303  -0.245  0.00  0.00    +0.000 A 
ATOM      9  C   UNL     1      -6.980  -2.072  -0.189  0.00  0.00    +0.000 A 
ENDBRANCH   2   4
ENDBRANCH   1   2
BRANCH   1  10
ATOM     10  C   UNL     1      -2.862   0.449  -0.330  0.00  0.00    +0.000 C 
BRANCH  10  14
ATOM     11  C   UNL     1      -1.444   1.150   3.681  0.00  0.00    +0.000 A 
ATOM     12  C   UNL     1      -0.666   0.417   2.787  0.00  0.00    +0.000 A 
ATOM     13  C   UNL     1      -1.123   0.187   1.488  0.00  0.00    +0.000 A 
ATOM     14  C   UNL     1      -2.360   0.697   1.069  0.00  0.00    +0.000 A 
ATOM     15  C   UNL     1      -3.139   1.421   1.982  0.00  0.00    +0.000 A 
ATOM     16  C   UNL     1      -2.682   1.649   3.281  0.00  0.00    +0.000 A 
ENDBRANCH  10  14
ENDBRANCH   1  10
TORSDOF 4
