REMARK  Name = *****
REMARK  3 active torsions:
REMARK  status: ('A' for Active; 'I' for Inactive)
REMARK    1  A    between atoms: C_1  and  C_2
REMARK    2  A    between atoms: C_7  and  C_8
REMARK    3  A    between atoms: C_9  and  C_10
REMARK                            x       y       z     vdW  Elec       q    Type
REMARK                         _______ _______ _______ _____ _____    ______ ____
ROOT
ATOM      1  C   UNL     1       2.534  -2.503  -0.319  0.00  0.00    +0.000 C 
ATOM      2  C   UNL     1       1.971  -3.562  -0.379  0.00  0.00    +0.000 C 
ENDROOT
BRANCH   1   9
ATOM      3  C   UNL     1       0.990  -0.012  -0.044  0.00  0.00    +0.000 C 
ATOM      4  C   UNL     1       2.492  -0.034  -0.119  0.00  0.00    +0.000 A 
ATOM      5  C   UNL     1       3.206   1.173  -0.057  0.00  0.00    +0.000 A 
ATOM      6  C   UNL     1       4.600   1.182  -0.122  0.00  0.00    +0.000 A 
ATOM      7  C   UNL     1       5.300  -0.014  -0.251  0.00  0.00    +0.000 A 
ATOM      8  C   UNL     1       4.605  -1.222  -0.314  0.00  0.00    +0.000 A 
ATOM      9  C   UNL     1       3.206  -1.239  -0.249  0.00  0.00    +0.000 A 
ENDBRANCH   1   9
BRANCH   2  10
ATOM     10  C   UNL     1       1.297  -4.822  -0.454  0.00  0.00    +0.000 A 
ATOM     11  C   UNL     1       1.983  -6.000  -0.151  0.00  0.00    +0.000 A 
ATOM     12  C   UNL     1       1.317  -7.222  -0.229  0.00  0.00    +0.000 A 
ATOM     13  C   UNL     1      -0.024  -7.278  -0.606  0.00  0.00    +0.000 A 
ATOM     14  C   UNL     1      -0.709  -6.100  -0.908  0.00  0.00    +0.000 A 
ATOM     15  C   UNL     1      -0.048  -4.873  -0.833  0.00  0.00    +0.000 A 
ATOM     16 CL   UNL     1       2.159  -8.677   0.143  0.00  0.00    +0.000 Cl
ENDBRANCH   2  10
TORSDOF 2
