REMARK  Name = *****
REMARK  3 active torsions:
REMARK  status: ('A' for Active; 'I' for Inactive)
REMARK    1  A    between atoms: C_1  and  C_2
REMARK    2  A    between atoms: C_5  and  C_8
REMARK    3  A    between atoms: C_9  and  C_10
REMARK                            x       y       z     vdW  Elec       q    Type
REMARK                         _______ _______ _______ _____ _____    ______ ____
ROOT
ATOM      1  C   UNL     1      -3.271   0.036  -0.064  0.00  0.00    +0.000 C 
ATOM      2  C   UNL     1      -4.046   1.132  -0.073  0.00  0.00    +0.000 C 
ENDROOT
BRANCH   2   3
ATOM      3  C   UNL     1      -5.517   1.104  -0.094  0.00  0.00    +0.000 A 
ATOM      4  C   UNL     1      -6.285   0.166   0.614  0.00  0.00    +0.000 A 
ATOM      5  C   UNL     1      -7.677   0.197   0.588  0.00  0.00    +0.000 A 
ATOM      6  C   UNL     1      -8.315   1.185  -0.146  0.00  0.00    +0.000 A 
ATOM      7  C   UNL     1      -7.586   2.140  -0.846  0.00  0.00    +0.000 A 
ATOM      8  C   UNL     1      -6.190   2.103  -0.816  0.00  0.00    +0.000 A 
ATOM      9  F   UNL     1      -9.653   1.225  -0.176  0.00  0.00    +0.000 F 
ATOM     10  F   UNL     1      -5.694  -0.787   1.351  0.00  0.00    +0.000 F 
ENDBRANCH   2   3
BRANCH   1  15
ATOM     11  C   UNL     1       2.520   0.020  -0.067  0.00  0.00    +0.000 C 
ATOM     12  C   UNL     1       1.020   0.056  -0.085  0.00  0.00    +0.000 A 
ATOM     13  C   UNL     1       0.321   0.993   0.684  0.00  0.00    +0.000 A 
ATOM     14  C   UNL     1      -1.077   1.003   0.691  0.00  0.00    +0.000 A 
ATOM     15  C   UNL     1      -1.802   0.077  -0.069  0.00  0.00    +0.000 A 
ATOM     16  C   UNL     1      -1.099  -0.880  -0.811  0.00  0.00    +0.000 A 
ATOM     17  C   UNL     1       0.299  -0.890  -0.820  0.00  0.00    +0.000 A 
ENDBRANCH   1  15
TORSDOF 2
