REMARK  Name = *****
REMARK  6 active torsions:
REMARK  status: ('A' for Active; 'I' for Inactive)
REMARK    1  A    between atoms: C_1  and  C_2
REMARK    2  A    between atoms: C_5  and  S_8
REMARK    3  A    between atoms: S_8  and  C_9
REMARK    4  A    between atoms: C_9  and  C_10
REMARK    5  A    between atoms: C_12  and  O_17
REMARK    6  A    between atoms: O_17  and  C_18
REMARK                            x       y       z     vdW  Elec       q    Type
REMARK                         _______ _______ _______ _____ _____    ______ ____
ROOT
ATOM      1  C   UNL     1      -6.145   1.332   1.374  0.00  0.00    +0.000 C 
ENDROOT
BRANCH   1   2
ATOM      2  C   UNL     1      -5.777   1.859  -0.026  0.00  0.00    +0.000 C 
ATOM      3  C   UNL     1      -6.129   0.855  -1.144  0.00  0.00    +0.000 C 
ATOM      4  C   UNL     1      -5.859   1.412  -2.548  0.00  0.00    +0.000 C 
ATOM      5  C   UNL     1      -6.599   2.736  -2.753  0.00  0.00    +0.000 C 
ATOM      6  C   UNL     1      -6.223   3.746  -1.670  0.00  0.00    +0.000 C 
ATOM      7  C   UNL     1      -6.501   3.196  -0.271  0.00  0.00    +0.000 C 
ATOM      8 CL   UNL     1      -7.153   5.257  -1.913  0.00  0.00    +0.000 Cl
BRANCH   4   9
ATOM      9  O   UNL     1      -4.446   1.602  -2.673  0.00  0.00    +0.000 OA
ATOM     10  C   UNL     1      -3.988   1.571  -4.019  0.00  0.00    +0.000 C 
ENDBRANCH   4   9
ENDBRANCH   1   2
BRANCH   1  11
ATOM     11  S   UNL     1      -5.114  -0.093   1.874  0.00  0.00    +0.000 S 
BRANCH  11  16
ATOM     12  C   UNL     1      -8.107  -2.121   6.787  0.00  0.00    +0.000 C 
ATOM     13  C   UNL     1      -7.399  -1.605   5.569  0.00  0.00    +0.000 A 
ATOM     14  C   UNL     1      -7.034  -0.257   5.479  0.00  0.00    +0.000 A 
ATOM     15  C   UNL     1      -6.343   0.218   4.360  0.00  0.00    +0.000 A 
ATOM     16  C   UNL     1      -6.006  -0.647   3.316  0.00  0.00    +0.000 A 
ATOM     17  C   UNL     1      -6.343  -2.000   3.420  0.00  0.00    +0.000 A 
ATOM     18  C   UNL     1      -7.033  -2.476   4.538  0.00  0.00    +0.000 A 
ENDBRANCH  11  16
ENDBRANCH   1  11
TORSDOF 4
