REMARK  Name = *****
REMARK  3 active torsions:
REMARK  status: ('A' for Active; 'I' for Inactive)
REMARK    1  A    between atoms: C_1  and  C_2
REMARK    2  A    between atoms: C_9  and  C_11
REMARK    3  A    between atoms: C_14  and  C_17
REMARK                            x       y       z     vdW  Elec       q    Type
REMARK                         _______ _______ _______ _____ _____    ______ ____
ROOT
ATOM      1  C   UNL     1       1.048   0.048  -0.042  0.00  0.00    +0.000 C 
ATOM      2  C   UNL     1       2.549   0.025  -0.002  0.00  0.00    +0.000 A 
ATOM      3  C   UNL     1       3.234  -1.204  -0.083  0.00  0.00    +0.000 A 
ATOM      4  C   UNL     1       4.635  -1.193  -0.074  0.00  0.00    +0.000 A 
ATOM      5  C   UNL     1       5.295   0.022   0.001  0.00  0.00    +0.000 A 
ATOM      6  C   UNL     1       4.670   1.259   0.068  0.00  0.00    +0.000 A 
ATOM      7  C   UNL     1       3.268   1.233   0.059  0.00  0.00    +0.000 A 
ATOM      8  O   UNL     1       6.635  -0.229  -0.009  0.00  0.00    +0.000 OA
ATOM      9  C   UNL     1       6.716  -1.599  -0.089  0.00  0.00    +0.000 A 
ATOM     10  N   UNL     1       5.547  -2.216  -0.133  0.00  0.00    +0.000 NA
ENDROOT
BRANCH   9  11
ATOM     11  C   UNL     1       8.058  -2.175  -0.116  0.00  0.00    +0.000 A 
ATOM     12  C   UNL     1       9.212  -1.379  -0.076  0.00  0.00    +0.000 A 
ATOM     13  C   UNL     1      10.485  -1.959  -0.103  0.00  0.00    +0.000 A 
ATOM     14  C   UNL     1      10.633  -3.351  -0.178  0.00  0.00    +0.000 A 
ATOM     15  C   UNL     1       9.484  -4.151  -0.207  0.00  0.00    +0.000 A 
ATOM     16  C   UNL     1       8.213  -3.568  -0.180  0.00  0.00    +0.000 A 
BRANCH  14  17
ATOM     17  C   UNL     1      12.000  -3.975  -0.194  0.00  0.00    +0.000 C 
ATOM     18 CL   UNL     1      12.573  -4.262   1.461  0.00  0.00    +0.000 Cl
ENDBRANCH  14  17
ENDBRANCH   9  11
TORSDOF 2
