REMARK  Name = *****
REMARK  3 active torsions:
REMARK  status: ('A' for Active; 'I' for Inactive)
REMARK    1  A    between atoms: C_1  and  C_2
REMARK    2  A    between atoms: C_2  and  C_10
REMARK    3  A    between atoms: C_3  and  C_4
REMARK                            x       y       z     vdW  Elec       q    Type
REMARK                         _______ _______ _______ _____ _____    ______ ____
ROOT
ATOM      1  C   UNL     1       0.958   0.032   0.051  0.00  0.00    +0.000 C 
ATOM      2  C   UNL     1       2.454   0.029  -0.100  0.00  0.00    +0.000 C 
ATOM      3  C   UNL     1       3.112  -0.279  -1.235  0.00  0.00    +0.000 C 
ENDROOT
BRANCH   3   4
ATOM      4  C   UNL     1       2.471  -0.582  -2.516  0.00  0.00    +0.000 A 
ATOM      5  C   UNL     1       2.059   0.454  -3.361  0.00  0.00    +0.000 A 
ATOM      6  C   UNL     1       1.446   0.162  -4.581  0.00  0.00    +0.000 A 
ATOM      7  C   UNL     1       1.241  -1.165  -4.959  0.00  0.00    +0.000 A 
ATOM      8  C   UNL     1       1.649  -2.201  -4.118  0.00  0.00    +0.000 A 
ATOM      9  C   UNL     1       2.264  -1.911  -2.899  0.00  0.00    +0.000 A 
ENDBRANCH   3   4
BRANCH   2  10
ATOM     10  C   UNL     1       3.278   0.291   1.123  0.00  0.00    +0.000 C 
ATOM     11  C   UNL     1       2.662   1.198   2.227  0.00  0.00    +0.000 C 
ATOM     12  C   UNL     1       4.085   1.741   2.470  0.00  0.00    +0.000 C 
ATOM     13  C   UNL     1       4.383   1.381   1.001  0.00  0.00    +0.000 C 
ENDBRANCH   2  10
TORSDOF 2
