REMARK  Name = *****
REMARK  5 active torsions:
REMARK  status: ('A' for Active; 'I' for Inactive)
REMARK    1  A    between atoms: C_4  and  C_6
REMARK    2  A    between atoms: C_6  and  N_7
REMARK    3  A    between atoms: N_7  and  C_8
REMARK    4  A    between atoms: N_7  and  C_15
REMARK    5  A    between atoms: C_8  and  C_9
REMARK                            x       y       z     vdW  Elec       q    Type
REMARK                         _______ _______ _______ _____ _____    ______ ____
ROOT
ATOM      1  N   UNL     1      -2.501   1.117   2.084  0.00  0.00    +0.000 NA
ENDROOT
BRANCH   1   2
ATOM      2  C   UNL     1      -3.673   0.599   1.370  0.00  0.00    +0.000 C 
ATOM      3  F   UNL     1      -4.764   0.520   2.163  0.00  0.00    +0.000 F 
ATOM      4  F   UNL     1      -3.983   1.388   0.321  0.00  0.00    +0.000 F 
ATOM      5  F   UNL     1      -3.424  -0.646   0.909  0.00  0.00    +0.000 F 
ENDBRANCH   1   2
BRANCH   1   6
ATOM      6  C   UNL     1      -1.336   1.260   1.550  0.00  0.00    +0.000 C 
BRANCH   6  10
ATOM      7  C   UNL     1       0.982   2.033  -0.633  0.00  0.00    +0.000 C 
ATOM      8  C   UNL     1       1.179   0.543  -0.841  0.00  0.00    +0.000 C 
ATOM      9  C   UNL     1       0.106  -0.096   0.033  0.00  0.00    +0.000 C 
ATOM     10  C   UNL     1      -1.044   0.923   0.107  0.00  0.00    +0.000 C 
ATOM     11  C   UNL     1      -0.532   2.179  -0.614  0.00  0.00    +0.000 C 
ENDBRANCH   6  10
ENDBRANCH   1   6
BRANCH   1  12
ATOM     12  C   UNL     1      -2.718   1.496   3.507  0.00  0.00    +0.000 C 
BRANCH  12  13
ATOM     13  C   UNL     1      -3.167   2.927   3.628  0.00  0.00    +0.000 A 
ATOM     14  C   UNL     1      -4.533   3.248   3.659  0.00  0.00    +0.000 A 
ATOM     15  C   UNL     1      -4.946   4.579   3.732  0.00  0.00    +0.000 A 
ATOM     16  C   UNL     1      -4.003   5.602   3.776  0.00  0.00    +0.000 A 
ATOM     17  C   UNL     1      -2.645   5.298   3.754  0.00  0.00    +0.000 A 
ATOM     18  C   UNL     1      -2.226   3.969   3.681  0.00  0.00    +0.000 A 
ENDBRANCH  12  13
ENDBRANCH   1  12
TORSDOF 5
