REMARK  Name = *****
REMARK  5 active torsions:
REMARK  status: ('A' for Active; 'I' for Inactive)
REMARK    1  A    between atoms: C_1  and  C_2
REMARK    2  A    between atoms: C_2  and  C_4
REMARK    3  A    between atoms: C_9  and  S_10
REMARK    4  A    between atoms: S_10  and  C_11
REMARK    5  A    between atoms: C_11  and  C_12
REMARK                            x       y       z     vdW  Elec       q    Type
REMARK                         _______ _______ _______ _____ _____    ______ ____
ROOT
ATOM      1  C   UNL     1       3.250  -0.697  -0.727  0.00  0.00    +0.000 A 
ATOM      2  C   UNL     1       2.872  -0.797  -2.074  0.00  0.00    +0.000 A 
ATOM      3  C   UNL     1       3.504  -1.716  -2.910  0.00  0.00    +0.000 A 
ATOM      4  C   UNL     1       4.507  -2.538  -2.402  0.00  0.00    +0.000 A 
ATOM      5  C   UNL     1       4.868  -2.455  -1.054  0.00  0.00    +0.000 A 
ATOM      6  C   UNL     1       4.234  -1.545  -0.196  0.00  0.00    +0.000 A 
ENDROOT
BRANCH   1   8
ATOM      7  C   UNL     1       3.368   1.433   0.691  0.00  0.00    +0.000 C 
ATOM      8  C   UNL     1       2.552   0.326   0.080  0.00  0.00    +0.000 C 
ATOM      9  O   UNL     1       1.330   0.268   0.190  0.00  0.00    +0.000 OA
ENDBRANCH   1   8
BRANCH   6  10
ATOM     10  S   UNL     1       4.716  -1.573   1.525  0.00  0.00    +0.000 S 
BRANCH  10  11
ATOM     11  C   UNL     1       3.262  -2.438   2.215  0.00  0.00    +0.000 C 
BRANCH  11  12
ATOM     12  C   UNL     1       3.369  -2.573   3.713  0.00  0.00    +0.000 A 
ATOM     13  C   UNL     1       2.817  -1.597   4.556  0.00  0.00    +0.000 A 
ATOM     14  C   UNL     1       2.925  -1.715   5.942  0.00  0.00    +0.000 A 
ATOM     15  C   UNL     1       3.589  -2.806   6.500  0.00  0.00    +0.000 A 
ATOM     16  C   UNL     1       4.149  -3.778   5.673  0.00  0.00    +0.000 A 
ATOM     17  C   UNL     1       4.042  -3.662   4.286  0.00  0.00    +0.000 A 
ENDBRANCH  11  12
ENDBRANCH  10  11
ENDBRANCH   6  10
TORSDOF 4
