REMARK  Name = *****
REMARK  4 active torsions:
REMARK  status: ('A' for Active; 'I' for Inactive)
REMARK    1  A    between atoms: C_1  and  C_2
REMARK    2  A    between atoms: C_4  and  C_11
REMARK    3  A    between atoms: C_6  and  C_10
REMARK    4  A    between atoms: C_12  and  C_13
REMARK                            x       y       z     vdW  Elec       q    Type
REMARK                         _______ _______ _______ _____ _____    ______ ____
ROOT
ATOM      1  C   UNL     1       1.420   0.498  -0.520  0.00  0.00    +0.000 C 
ATOM      2  C   UNL     1       2.757   0.213   0.147  0.00  0.00    +0.000 C 
ATOM      3  C   UNL     1       3.144  -1.293   0.105  0.00  0.00    +0.000 C 
ATOM      4  C   UNL     1       4.640  -1.517   0.358  0.00  0.00    +0.000 C 
ATOM      5  C   UNL     1       5.447  -0.440   0.500  0.00  0.00    +0.000 C 
ATOM      6  C   UNL     1       4.879   0.964   0.417  0.00  0.00    +0.000 C 
ATOM      7  O   UNL     1       3.806   0.920  -0.560  0.00  0.00    +0.000 OA
ATOM      8  C   UNL     1       4.116   1.282   1.671  0.00  0.00    +0.000 C 
ATOM      9  C   UNL     1       2.868   0.818   1.522  0.00  0.00    +0.000 C 
ATOM     10  C   UNL     1       5.881   2.023  -0.010  0.00  0.00    +0.000 C 
ENDROOT
BRANCH   4  11
ATOM     11  C   UNL     1       5.179  -2.865   0.451  0.00  0.00    +0.000 C 
ATOM     12  C   UNL     1       4.478  -4.002   0.310  0.00  0.00    +0.000 C 
BRANCH  12  13
ATOM     13  C   UNL     1       5.072  -5.343   0.418  0.00  0.00    +0.000 A 
ATOM     14  C   UNL     1       6.313  -5.658  -0.151  0.00  0.00    +0.000 A 
ATOM     15  C   UNL     1       6.830  -6.953  -0.055  0.00  0.00    +0.000 A 
ATOM     16  C   UNL     1       6.108  -7.947   0.601  0.00  0.00    +0.000 A 
ATOM     17  C   UNL     1       4.865  -7.650   1.156  0.00  0.00    +0.000 A 
ATOM     18  C   UNL     1       4.347  -6.356   1.060  0.00  0.00    +0.000 A 
ENDBRANCH  12  13
ENDBRANCH   4  11
TORSDOF 2
