REMARK  Name = *****
REMARK  5 active torsions:
REMARK  status: ('A' for Active; 'I' for Inactive)
REMARK    1  A    between atoms: C_1  and  C_2
REMARK    2  A    between atoms: C_2  and  C_9
REMARK    3  A    between atoms: C_9  and  O_11
REMARK    4  A    between atoms: O_11  and  C_12
REMARK    5  A    between atoms: C_12  and  C_13
REMARK                            x       y       z     vdW  Elec       q    Type
REMARK                         _______ _______ _______ _____ _____    ______ ____
ROOT
ATOM      1  C   UNL     1       0.771   0.119   0.006  0.00  0.00    +0.000 C 
ATOM      2  O   UNL     1       0.082  -0.107   0.993  0.00  0.00    +0.000 OA
ENDROOT
BRANCH   1   4
ATOM      3  C   UNL     1       2.716  -1.295  -0.526  0.00  0.00    +0.000 C 
ATOM      4  C   UNL     1       2.298   0.088  -0.006  0.00  0.00    +0.000 C 
ATOM      5  C   UNL     1       2.908   0.365   1.416  0.00  0.00    +0.000 C 
ATOM      6  C   UNL     1       3.766   1.632   1.191  0.00  0.00    +0.000 C 
ATOM      7  C   UNL     1       4.315   1.381  -0.215  0.00  0.00    +0.000 C 
ATOM      8  C   UNL     1       2.919   1.250  -0.842  0.00  0.00    +0.000 C 
ATOM      9  C   UNL     1       2.350   2.569  -0.354  0.00  0.00    +0.000 C 
ATOM     10  C   UNL     1       2.842   2.782   0.876  0.00  0.00    +0.000 C 
ENDBRANCH   1   4
BRANCH   1  11
ATOM     11  O   UNL     1       0.287   0.339  -1.248  0.00  0.00    +0.000 OA
BRANCH  11  12
ATOM     12  C   UNL     1      -1.138   0.388  -1.378  0.00  0.00    +0.000 C 
BRANCH  12  13
ATOM     13  C   UNL     1      -1.551   1.802  -1.691  0.00  0.00    +0.000 A 
ATOM     14  C   UNL     1      -1.689   2.231  -3.019  0.00  0.00    +0.000 A 
ATOM     15  C   UNL     1      -2.067   3.544  -3.303  0.00  0.00    +0.000 A 
ATOM     16  C   UNL     1      -2.300   4.443  -2.264  0.00  0.00    +0.000 A 
ATOM     17  C   UNL     1      -2.150   4.033  -0.941  0.00  0.00    +0.000 A 
ATOM     18  C   UNL     1      -1.773   2.719  -0.655  0.00  0.00    +0.000 A 
ENDBRANCH  12  13
ENDBRANCH  11  12
ENDBRANCH   1  11
TORSDOF 4
