REMARK  Name = *****
REMARK  3 active torsions:
REMARK  status: ('A' for Active; 'I' for Inactive)
REMARK    1  A    between atoms: C_3  and  C_8
REMARK    2  A    between atoms: C_8  and  C_9
REMARK    3  A    between atoms: C_9  and  C_11
REMARK                            x       y       z     vdW  Elec       q    Type
REMARK                         _______ _______ _______ _____ _____    ______ ____
ROOT
ATOM      1  C   UNL     1      -1.013   3.790   0.073  0.00  0.00    +0.000 C 
ATOM      2  O   UNL     1      -0.596   4.283   1.123  0.00  0.00    +0.000 OA
ENDROOT
BRANCH   1   3
ATOM      3  C   UNL     1      -0.649   4.434  -1.227  0.00  0.00    +0.000 A 
ATOM      4  C   UNL     1      -0.909   3.842  -2.469  0.00  0.00    +0.000 A 
ATOM      5  C   UNL     1      -0.554   4.500  -3.653  0.00  0.00    +0.000 A 
ATOM      6  C   UNL     1       0.064   5.749  -3.599  0.00  0.00    +0.000 A 
ATOM      7  C   UNL     1       0.335   6.345  -2.370  0.00  0.00    +0.000 A 
ATOM      8  C   UNL     1      -0.019   5.687  -1.188  0.00  0.00    +0.000 A 
ATOM      9  I   UNL     1       0.583   6.723  -5.359  0.00  0.00    +0.000 I 
ENDBRANCH   1   3
BRANCH   1  10
ATOM     10  C   UNL     1      -1.888   2.549   0.091  0.00  0.00    +0.000 C 
BRANCH  10  13
ATOM     11  C   UNL     1       0.591  -0.233   0.929  0.00  0.00    +0.000 A 
ATOM     12  C   UNL     1      -0.118   0.970   0.976  0.00  0.00    +0.000 A 
ATOM     13  C   UNL     1      -1.109   1.259   0.023  0.00  0.00    +0.000 A 
ATOM     14  C   UNL     1      -1.387   0.306  -0.967  0.00  0.00    +0.000 A 
ATOM     15  C   UNL     1      -0.672  -0.888  -1.005  0.00  0.00    +0.000 A 
ATOM     16  C   UNL     1       0.315  -1.165  -0.068  0.00  0.00    +0.000 A 
ATOM     17  F   UNL     1      -0.944  -1.785  -1.962  0.00  0.00    +0.000 F 
ENDBRANCH  10  13
ENDBRANCH   1  10
TORSDOF 3
