REMARK  Name = *****
REMARK  2 active torsions:
REMARK  status: ('A' for Active; 'I' for Inactive)
REMARK    1  A    between atoms: C_4  and  C_6
REMARK    2  A    between atoms: C_7  and  C_8
REMARK                            x       y       z     vdW  Elec       q    Type
REMARK                         _______ _______ _______ _____ _____    ______ ____
ROOT
ATOM      1  C   UNL     1       2.264  -1.512  -0.285  0.00  0.00    +0.000 C 
ATOM      2  C   UNL     1       3.246  -2.186  -0.439  0.00  0.00    +0.000 C 
ENDROOT
BRANCH   2   3
ATOM      3  C   UNL     1       4.416  -2.988  -0.625  0.00  0.00    +0.000 A 
ATOM      4  C   UNL     1       5.644  -2.382  -0.897  0.00  0.00    +0.000 A 
ATOM      5  C   UNL     1       6.786  -3.165  -1.080  0.00  0.00    +0.000 A 
ATOM      6  C   UNL     1       6.700  -4.554  -0.992  0.00  0.00    +0.000 A 
ATOM      7  C   UNL     1       5.474  -5.162  -0.720  0.00  0.00    +0.000 A 
ATOM      8  C   UNL     1       4.332  -4.380  -0.537  0.00  0.00    +0.000 A 
ENDBRANCH   2   3
BRANCH   1  12
ATOM      9  C   UNL     1      -1.156  -0.044  -0.105  0.00  0.00    +0.000 C 
ATOM     10  C   UNL     1      -0.258   1.168   0.140  0.00  0.00    +0.000 C 
ATOM     11  C   UNL     1       1.111   0.616  -0.079  0.00  0.00    +0.000 C 
ATOM     12  C   UNL     1       1.105  -0.721  -0.107  0.00  0.00    +0.000 C 
ATOM     13  C   UNL     1      -0.270  -1.275   0.090  0.00  0.00    +0.000 C 
ENDBRANCH   1  12
TORSDOF 2
