REMARK  Name = *****
REMARK  3 active torsions:
REMARK  status: ('A' for Active; 'I' for Inactive)
REMARK    1  A    between atoms: C_4  and  C_7
REMARK    2  A    between atoms: C_8  and  C_9
REMARK    3  A    between atoms: C_9  and  C_10
REMARK                            x       y       z     vdW  Elec       q    Type
REMARK                         _______ _______ _______ _____ _____    ______ ____
ROOT
ATOM      1  C   UNL     1      -2.827   0.209  -0.331  0.00  0.00    +0.000 C 
ATOM      2  C   UNL     1      -3.392   1.428  -0.304  0.00  0.00    +0.000 C 
ATOM      3 CL   UNL     1      -3.740  -1.237  -0.583  0.00  0.00    +0.000 Cl
ENDROOT
BRANCH   1   7
ATOM      4  C   UNL     1       1.395  -0.276   0.177  0.00  0.00    +0.000 A 
ATOM      5  C   UNL     1       0.511  -0.892   1.060  0.00  0.00    +0.000 A 
ATOM      6  C   UNL     1      -0.867  -0.735   0.895  0.00  0.00    +0.000 A 
ATOM      7  C   UNL     1      -1.375   0.041  -0.157  0.00  0.00    +0.000 A 
ATOM      8  C   UNL     1      -0.474   0.654  -1.041  0.00  0.00    +0.000 A 
ATOM      9  C   UNL     1       0.904   0.497  -0.874  0.00  0.00    +0.000 A 
ENDBRANCH   1   7
BRANCH   2  10
ATOM     10  C   UNL     1      -4.848   1.764  -0.466  0.00  0.00    +0.000 C 
BRANCH  10  11
ATOM     11  C   UNL     1      -5.119   2.481  -1.763  0.00  0.00    +0.000 A 
ATOM     12  C   UNL     1      -5.350   1.760  -2.944  0.00  0.00    +0.000 A 
ATOM     13  C   UNL     1      -5.581   2.430  -4.148  0.00  0.00    +0.000 A 
ATOM     14  C   UNL     1      -5.579   3.825  -4.187  0.00  0.00    +0.000 A 
ATOM     15  C   UNL     1      -5.341   4.550  -3.021  0.00  0.00    +0.000 A 
ATOM     16  C   UNL     1      -5.111   3.877  -1.825  0.00  0.00    +0.000 A 
ATOM     17  F   UNL     1      -4.874   4.594  -0.717  0.00  0.00    +0.000 F 
ENDBRANCH  10  11
ENDBRANCH   2  10
TORSDOF 3
