REMARK  Name = *****
REMARK  4 active torsions:
REMARK  status: ('A' for Active; 'I' for Inactive)
REMARK    1  A    between atoms: C_3  and  O_8
REMARK    2  A    between atoms: O_8  and  C_9
REMARK    3  A    between atoms: C_9  and  C_11
REMARK    4  A    between atoms: C_14  and  C_17
REMARK                            x       y       z     vdW  Elec       q    Type
REMARK                         _______ _______ _______ _____ _____    ______ ____
ROOT
ATOM      1  C   UNL     1      -0.528   4.471   0.570  0.00  0.00    +0.000 C 
ATOM      2  O   UNL     1       0.133   4.062  -0.373  0.00  0.00    +0.000 OA
ENDROOT
BRANCH   1   3
ATOM      3  C   UNL     1      -1.607   5.489   0.426  0.00  0.00    +0.000 A 
ATOM      4  C   UNL     1      -2.390   5.922   1.504  0.00  0.00    +0.000 A 
ATOM      5  C   UNL     1      -3.391   6.880   1.307  0.00  0.00    +0.000 A 
ATOM      6  C   UNL     1      -3.629   7.417   0.032  0.00  0.00    +0.000 A 
ATOM      7  C   UNL     1      -2.836   6.986  -1.042  0.00  0.00    +0.000 A 
ATOM      8  C   UNL     1      -1.837   6.028  -0.847  0.00  0.00    +0.000 A 
BRANCH   6   9
ATOM      9  C   UNL     1      -4.696   8.468  -0.168  0.00  0.00    +0.000 C 
ATOM     10  F   UNL     1      -5.790   8.267   0.618  0.00  0.00    +0.000 F 
ATOM     11  F   UNL     1      -4.248   9.719   0.125  0.00  0.00    +0.000 F 
ATOM     12  F   UNL     1      -5.162   8.525  -1.446  0.00  0.00    +0.000 F 
ENDBRANCH   6   9
ENDBRANCH   1   3
BRANCH   1  13
ATOM     13  O   UNL     1      -0.415   4.094   1.895  0.00  0.00    +0.000 OA
BRANCH  13  16
ATOM     14  C   UNL     1       1.172   0.931   2.883  0.00  0.00    +0.000 A 
ATOM     15  C   UNL     1       0.197   1.880   2.569  0.00  0.00    +0.000 A 
ATOM     16  C   UNL     1       0.588   3.151   2.146  0.00  0.00    +0.000 A 
ATOM     17  C   UNL     1       1.933   3.504   2.065  0.00  0.00    +0.000 A 
ATOM     18  C   UNL     1       2.890   2.549   2.379  0.00  0.00    +0.000 A 
ATOM     19  C   UNL     1       2.523   1.267   2.784  0.00  0.00    +0.000 A 
ATOM     20  F   UNL     1       4.189   2.866   2.300  0.00  0.00    +0.000 F 
ENDBRANCH  13  16
ENDBRANCH   1  13
TORSDOF 4
