REMARK  Name = *****
REMARK  6 active torsions:
REMARK  status: ('A' for Active; 'I' for Inactive)
REMARK    1  A    between atoms: C_1  and  C_2
REMARK    2  A    between atoms: C_4  and  N_9
REMARK    3  A    between atoms: C_5  and  C_8
REMARK    4  A    between atoms: N_9  and  S_10
REMARK    5  A    between atoms: S_10  and  C_12
REMARK    6  A    between atoms: S_10  and  C_13
REMARK                            x       y       z     vdW  Elec       q    Type
REMARK                         _______ _______ _______ _____ _____    ______ ____
ROOT
ATOM      1  N   UNL     1      -1.118   2.560  -0.299  0.00  0.00    +0.000 NA
ENDROOT
BRANCH   1   5
ATOM      2  C   UNL     1       2.627  -0.342   1.358  0.00  0.00    +0.000 C 
ATOM      3  C   UNL     1       1.286  -0.174   0.706  0.00  0.00    +0.000 A 
ATOM      4  C   UNL     1       0.733   1.104   0.525  0.00  0.00    +0.000 A 
ATOM      5  C   UNL     1      -0.512   1.277  -0.094  0.00  0.00    +0.000 A 
ATOM      6  C   UNL     1      -1.216   0.143  -0.543  0.00  0.00    +0.000 A 
ATOM      7  C   UNL     1      -0.652  -1.133  -0.380  0.00  0.00    +0.000 A 
ATOM      8  C   UNL     1       0.590  -1.288   0.235  0.00  0.00    +0.000 A 
ATOM      9  C   UNL     1      -2.559   0.272  -1.211  0.00  0.00    +0.000 C 
ENDBRANCH   1   5
BRANCH   1  10
ATOM     10  S   UNL     1      -0.432   3.921  -0.081  0.00  0.00    +0.000 S 
ATOM     11  O   UNL     1       0.415   4.260   1.049  0.00  0.00    +0.000 OA
ATOM     12  C   UNL     1       0.493   4.300  -1.552  0.00  0.00    +0.000 C 
BRANCH  10  13
ATOM     13  C   UNL     1      -1.729   5.151  -0.132  0.00  0.00    +0.000 A 
ATOM     14  C   UNL     1      -1.612   6.308   0.645  0.00  0.00    +0.000 A 
ATOM     15  C   UNL     1      -2.620   7.271   0.598  0.00  0.00    +0.000 A 
ATOM     16  C   UNL     1      -3.739   7.074  -0.213  0.00  0.00    +0.000 A 
ATOM     17  C   UNL     1      -3.857   5.912  -0.978  0.00  0.00    +0.000 A 
ATOM     18  C   UNL     1      -2.851   4.946  -0.940  0.00  0.00    +0.000 A 
ENDBRANCH  10  13
ENDBRANCH   1  10
TORSDOF 3
