REMARK  Name = *****
REMARK  5 active torsions:
REMARK  status: ('A' for Active; 'I' for Inactive)
REMARK    1  A    between atoms: C_1  and  O_2
REMARK    2  A    between atoms: O_2  and  C_3
REMARK    3  A    between atoms: C_3  and  C_4
REMARK    4  A    between atoms: C_7  and  C_10
REMARK    5  A    between atoms: C_11  and  C_12
REMARK                            x       y       z     vdW  Elec       q    Type
REMARK                         _______ _______ _______ _____ _____    ______ ____
ROOT
ATOM      1  C   UNL     1       4.319  -0.987  -1.122  0.00  0.00    +0.000 A 
ATOM      2  C   UNL     1       5.067   0.148  -1.465  0.00  0.00    +0.000 A 
ATOM      3  C   UNL     1       6.462   0.137  -1.377  0.00  0.00    +0.000 A 
ATOM      4  C   UNL     1       7.125  -1.008  -0.934  0.00  0.00    +0.000 A 
ATOM      5  C   UNL     1       6.391  -2.140  -0.578  0.00  0.00    +0.000 A 
ATOM      6  C   UNL     1       4.996  -2.128  -0.666  0.00  0.00    +0.000 A 
ENDROOT
BRANCH   4   7
ATOM      7  C   UNL     1       8.553  -1.021  -0.845  0.00  0.00    +0.000 C 
ATOM      8  C   UNL     1       9.752  -1.033  -0.771  0.00  0.00    +0.000 C 
BRANCH   8   9
ATOM      9  C   UNL     1      11.179  -1.047  -0.684  0.00  0.00    +0.000 A 
ATOM     10  C   UNL     1      11.857  -2.253  -0.491  0.00  0.00    +0.000 A 
ATOM     11  C   UNL     1      13.251  -2.266  -0.407  0.00  0.00    +0.000 A 
ATOM     12  C   UNL     1      13.967  -1.075  -0.515  0.00  0.00    +0.000 A 
ATOM     13  C   UNL     1      13.293   0.131  -0.708  0.00  0.00    +0.000 A 
ATOM     14  C   UNL     1      11.899   0.145  -0.792  0.00  0.00    +0.000 A 
ENDBRANCH   8   9
ENDBRANCH   4   7
BRANCH   1  15
ATOM     15  C   UNL     1       2.810  -0.970  -1.174  0.00  0.00    +0.000 C 
BRANCH  15  17
ATOM     16  C   UNL     1       0.947  -0.214  -2.400  0.00  0.00    +0.000 C 
ATOM     17  O   UNL     1       2.365  -0.253  -2.325  0.00  0.00    +0.000 OA
ENDBRANCH  15  17
ENDBRANCH   1  15
TORSDOF 4
