REMARK  Name = *****
REMARK  3 active torsions:
REMARK  status: ('A' for Active; 'I' for Inactive)
REMARK    1  A    between atoms: C_7  and  C_8
REMARK    2  A    between atoms: C_8  and  S_9
REMARK    3  A    between atoms: S_9  and  C_10
REMARK                            x       y       z     vdW  Elec       q    Type
REMARK                         _______ _______ _______ _____ _____    ______ ____
ROOT
ATOM      1  C   UNL     1      -1.043   2.571  -0.145  0.00  0.00    +0.000 C 
ENDROOT
BRANCH   1   8
ATOM      2  C   UNL     1      -2.277  -0.071   0.488  0.00  0.00    +0.000 C 
ATOM      3  C   UNL     1      -1.058  -0.019  -0.076  0.00  0.00    +0.000 C 
ATOM      4  C   UNL     1      -0.313  -1.295  -0.404  0.00  0.00    +0.000 C 
ATOM      5  C   UNL     1       1.039  -1.322   0.304  0.00  0.00    +0.000 C 
ATOM      6  C   UNL     1       1.858  -0.072  -0.004  0.00  0.00    +0.000 C 
ATOM      7  C   UNL     1       1.078   1.211   0.301  0.00  0.00    +0.000 C 
ATOM      8  C   UNL     1      -0.284   1.255  -0.429  0.00  0.00    +0.000 C 
ENDBRANCH   1   8
BRANCH   1   9
ATOM      9  S   UNL     1      -0.195   4.044  -0.834  0.00  0.00    +0.000 S 
BRANCH   9  10
ATOM     10  C   UNL     1      -1.403   5.297  -0.444  0.00  0.00    +0.000 A 
ATOM     11  C   UNL     1      -1.768   5.572   0.877  0.00  0.00    +0.000 A 
ATOM     12  C   UNL     1      -2.708   6.567   1.156  0.00  0.00    +0.000 A 
ATOM     13  C   UNL     1      -3.282   7.297   0.116  0.00  0.00    +0.000 A 
ATOM     14  C   UNL     1      -2.911   7.037  -1.202  0.00  0.00    +0.000 A 
ATOM     15  C   UNL     1      -1.971   6.043  -1.481  0.00  0.00    +0.000 A 
ENDBRANCH   9  10
ENDBRANCH   1   9
TORSDOF 3
