REMARK  Name = *****
REMARK  5 active torsions:
REMARK  status: ('A' for Active; 'I' for Inactive)
REMARK    1  A    between atoms: C_4  and  C_7
REMARK    2  A    between atoms: C_7  and  C_8
REMARK    3  A    between atoms: C_8  and  C_9
REMARK    4  A    between atoms: C_9  and  C_10
REMARK    5  A    between atoms: C_9  and  C_12
REMARK                            x       y       z     vdW  Elec       q    Type
REMARK                         _______ _______ _______ _____ _____    ______ ____
ROOT
ATOM      1  C   UNL     1      -3.524  -0.816  -0.381  0.00  0.00    +0.000 C 
ENDROOT
BRANCH   1   2
ATOM      2  C   UNL     1      -2.782   0.499  -0.115  0.00  0.00    +0.000 C 
BRANCH   2   6
ATOM      3  C   UNL     1       1.414  -0.205   0.585  0.00  0.00    +0.000 A 
ATOM      4  C   UNL     1       0.936  -0.073  -0.717  0.00  0.00    +0.000 A 
ATOM      5  C   UNL     1      -0.421   0.159  -0.943  0.00  0.00    +0.000 A 
ATOM      6  C   UNL     1      -1.313   0.264   0.133  0.00  0.00    +0.000 A 
ATOM      7  C   UNL     1      -0.823   0.123   1.438  0.00  0.00    +0.000 A 
ATOM      8  C   UNL     1       0.535  -0.108   1.662  0.00  0.00    +0.000 A 
ENDBRANCH   2   6
ENDBRANCH   1   2
BRANCH   1   9
ATOM      9  C   UNL     1      -5.036  -0.609  -0.585  0.00  0.00    +0.000 C 
BRANCH   9  10
ATOM     10  C   UNL     1      -5.778  -1.931  -0.627  0.00  0.00    +0.000 A 
ATOM     11  C   UNL     1      -6.758  -2.305   0.278  0.00  0.00    +0.000 A 
ATOM     12  S   UNL     1      -7.403  -3.858  -0.038  0.00  0.00    +0.000 S 
ATOM     13  C   UNL     1      -6.386  -4.064  -1.393  0.00  0.00    +0.000 A 
ATOM     14  C   UNL     1      -5.571  -2.973  -1.597  0.00  0.00    +0.000 A 
ENDBRANCH   9  10
BRANCH   9  15
ATOM     15  C   UNL     1      -5.313   0.157  -1.819  0.00  0.00    +0.000 C 
ATOM     16  N   UNL     1      -5.507   0.778  -2.781  0.00  0.00    +0.000 NA
ENDBRANCH   9  15
ENDBRANCH   1   9
TORSDOF 5
