REMARK  Name = *****
REMARK  4 active torsions:
REMARK  status: ('A' for Active; 'I' for Inactive)
REMARK    1  A    between atoms: C_1  and  C_2
REMARK    2  A    between atoms: C_5  and  S_8
REMARK    3  A    between atoms: S_8  and  C_9
REMARK    4  A    between atoms: C_9  and  C_11
REMARK                            x       y       z     vdW  Elec       q    Type
REMARK                         _______ _______ _______ _____ _____    ______ ____
ROOT
ATOM      1  S   UNL     1      -3.546   0.120   0.717  0.00  0.00    +0.000 S 
ENDROOT
BRANCH   1   6
ATOM      2  C   UNL     1       2.489  -0.256  -0.063  0.00  0.00    +0.000 C 
ATOM      3  C   UNL     1       1.003  -0.133   0.092  0.00  0.00    +0.000 A 
ATOM      4  C   UNL     1       0.443   0.995   0.701  0.00  0.00    +0.000 A 
ATOM      5  C   UNL     1      -0.940   1.092   0.880  0.00  0.00    +0.000 A 
ATOM      6  C   UNL     1      -1.786   0.067   0.448  0.00  0.00    +0.000 A 
ATOM      7  C   UNL     1      -1.225  -1.072  -0.139  0.00  0.00    +0.000 A 
ATOM      8  C   UNL     1       0.159  -1.173  -0.314  0.00  0.00    +0.000 A 
ENDBRANCH   1   6
BRANCH   1   9
ATOM      9  C   UNL     1      -4.049   1.610  -0.080  0.00  0.00    +0.000 C 
ATOM     10  O   UNL     1      -3.252   2.383  -0.600  0.00  0.00    +0.000 OA
BRANCH   9  11
ATOM     11  C   UNL     1      -5.506   1.942  -0.064  0.00  0.00    +0.000 A 
ATOM     12  C   UNL     1      -5.870   3.279  -0.291  0.00  0.00    +0.000 A 
ATOM     13  C   UNL     1      -7.214   3.661  -0.288  0.00  0.00    +0.000 A 
ATOM     14  C   UNL     1      -8.207   2.709  -0.067  0.00  0.00    +0.000 A 
ATOM     15  C   UNL     1      -7.859   1.377   0.147  0.00  0.00    +0.000 A 
ATOM     16  C   UNL     1      -6.515   0.991   0.147  0.00  0.00    +0.000 A 
ENDBRANCH   9  11
ENDBRANCH   1   9
TORSDOF 3
