REMARK  Name = *****
REMARK  4 active torsions:
REMARK  status: ('A' for Active; 'I' for Inactive)
REMARK    1  A    between atoms: C_1  and  C_2
REMARK    2  A    between atoms: C_4  and  C_8
REMARK    3  A    between atoms: C_8  and  C_10
REMARK    4  A    between atoms: C_10  and  C_11
REMARK                            x       y       z     vdW  Elec       q    Type
REMARK                         _______ _______ _______ _____ _____    ______ ____
ROOT
ATOM      1  C   UNL     1      -2.035   2.481  -0.301  0.00  0.00    +0.000 C 
ATOM      2  O   UNL     1      -3.206   2.467  -0.685  0.00  0.00    +0.000 OA
ENDROOT
BRANCH   1   6
ATOM      3  C   UNL     1       2.314  -0.093   0.079  0.00  0.00    +0.000 C 
ATOM      4  C   UNL     1       0.830  -0.049  -0.141  0.00  0.00    +0.000 A 
ATOM      5  C   UNL     1       0.139   1.173  -0.125  0.00  0.00    +0.000 A 
ATOM      6  C   UNL     1      -1.250   1.208  -0.308  0.00  0.00    +0.000 A 
ATOM      7  C   UNL     1      -1.945   0.007  -0.506  0.00  0.00    +0.000 A 
ATOM      8  C   UNL     1      -1.266  -1.211  -0.507  0.00  0.00    +0.000 A 
ATOM      9  C   UNL     1       0.115  -1.239  -0.319  0.00  0.00    +0.000 A 
ENDBRANCH   1   6
BRANCH   1  10
ATOM     10  C   UNL     1      -1.392   3.767   0.185  0.00  0.00    +0.000 C 
BRANCH  10  11
ATOM     11  C   UNL     1      -0.638   4.524  -0.883  0.00  0.00    +0.000 A 
ATOM     12  C   UNL     1      -1.222   4.778  -2.136  0.00  0.00    +0.000 A 
ATOM     13  C   UNL     1      -0.530   5.504  -3.106  0.00  0.00    +0.000 A 
ATOM     14  C   UNL     1       0.740   5.989  -2.823  0.00  0.00    +0.000 A 
ATOM     15  C   UNL     1       1.330   5.766  -1.585  0.00  0.00    +0.000 A 
ATOM     16  C   UNL     1       0.640   5.040  -0.613  0.00  0.00    +0.000 A 
ATOM     17  F   UNL     1       1.403   6.689  -3.753  0.00  0.00    +0.000 F 
ENDBRANCH  10  11
ENDBRANCH   1  10
TORSDOF 3
