REMARK  Name = *****
REMARK  6 active torsions:
REMARK  status: ('A' for Active; 'I' for Inactive)
REMARK    1  A    between atoms: C_1  and  C_2
REMARK    2  A    between atoms: C_4  and  C_17
REMARK    3  A    between atoms: C_5  and  S_9
REMARK    4  A    between atoms: C_6  and  C_8
REMARK    5  A    between atoms: S_9  and  C_10
REMARK    6  A    between atoms: C_10  and  C_12
REMARK                            x       y       z     vdW  Elec       q    Type
REMARK                         _______ _______ _______ _____ _____    ______ ____
ROOT
ATOM      1  C   UNL     1       2.042   1.911   0.502  0.00  0.00    +0.000 C 
ATOM      2  C   UNL     1       1.013   0.847   0.256  0.00  0.00    +0.000 A 
ATOM      3  C   UNL     1       1.401  -0.455  -0.065  0.00  0.00    +0.000 A 
ATOM      4  C   UNL     1       0.450  -1.457  -0.326  0.00  0.00    +0.000 A 
ATOM      5  C   UNL     1      -0.927  -1.139  -0.266  0.00  0.00    +0.000 A 
ATOM      6  C   UNL     1      -1.327   0.184   0.034  0.00  0.00    +0.000 A 
ATOM      7  C   UNL     1      -0.348   1.160   0.289  0.00  0.00    +0.000 A 
ATOM      8  C   UNL     1      -2.775   0.595   0.098  0.00  0.00    +0.000 C 
ATOM      9  C   UNL     1       0.946  -2.841  -0.655  0.00  0.00    +0.000 C 
ENDROOT
BRANCH   5  10
ATOM     10  S   UNL     1      -2.161  -2.397  -0.625  0.00  0.00    +0.000 S 
BRANCH  10  11
ATOM     11  C   UNL     1      -2.451  -3.082   0.985  0.00  0.00    +0.000 C 
ATOM     12  O   UNL     1      -1.891  -2.628   1.977  0.00  0.00    +0.000 OA
BRANCH  11  13
ATOM     13  C   UNL     1      -3.393  -4.197   0.990  0.00  0.00    +0.000 A 
ATOM     14  C   UNL     1      -4.100  -4.813  -0.032  0.00  0.00    +0.000 A 
ATOM     15  C   UNL     1      -4.923  -5.885   0.426  0.00  0.00    +0.000 A 
ATOM     16  C   UNL     1      -4.825  -6.063   1.786  0.00  0.00    +0.000 A 
ATOM     17  S   UNL     1      -3.751  -4.947   2.501  0.00  0.00    +0.000 S 
ENDBRANCH  11  13
ENDBRANCH  10  11
ENDBRANCH   5  10
TORSDOF 3
