REMARK  Name = *****
REMARK  4 active torsions:
REMARK  status: ('A' for Active; 'I' for Inactive)
REMARK    1  A    between atoms: C_3  and  C_6
REMARK    2  A    between atoms: C_6  and  C_7
REMARK    3  A    between atoms: C_8  and  C_9
REMARK    4  A    between atoms: C_9  and  C_10
REMARK                            x       y       z     vdW  Elec       q    Type
REMARK                         _______ _______ _______ _____ _____    ______ ____
ROOT
ATOM      1  C   UNL     1       1.531  -2.516   1.224  0.00  0.00    +0.000 C 
ATOM      2  C   UNL     1       2.027  -3.045   2.355  0.00  0.00    +0.000 C 
ENDROOT
BRANCH   1   3
ATOM      3  C   UNL     1       0.170  -1.905   1.005  0.00  0.00    +0.000 C 
BRANCH   3   6
ATOM      4  C   UNL     1      -3.028  -2.800   0.053  0.00  0.00    +0.000 C 
ATOM      5  C   UNL     1      -1.995  -2.016  -0.292  0.00  0.00    +0.000 C 
ATOM      6  C   UNL     1      -0.690  -2.712   0.018  0.00  0.00    +0.000 C 
ATOM      7  C   UNL     1      -1.188  -4.021   0.585  0.00  0.00    +0.000 C 
ATOM      8  C   UNL     1      -2.529  -4.038   0.595  0.00  0.00    +0.000 C 
ENDBRANCH   3   6
ENDBRANCH   1   3
BRANCH   2   9
ATOM      9  C   UNL     1       1.344  -3.171   3.694  0.00  0.00    +0.000 C 
BRANCH   9  10
ATOM     10  C   UNL     1       1.075  -4.635   4.086  0.00  0.00    +0.000 C 
ATOM     11  C   UNL     1       0.256  -4.735   5.353  0.00  0.00    +0.000 C 
ATOM     12  C   UNL     1       0.933  -5.422   6.286  0.00  0.00    +0.000 C 
ATOM     13  C   UNL     1       2.206  -5.830   5.750  0.00  0.00    +0.000 C 
ATOM     14  C   UNL     1       2.319  -5.396   4.487  0.00  0.00    +0.000 C 
ENDBRANCH   9  10
ENDBRANCH   2   9
TORSDOF 4
