REMARK  Name = *****
REMARK  3 active torsions:
REMARK  status: ('A' for Active; 'I' for Inactive)
REMARK    1  A    between atoms: C_6  and  C_7
REMARK    2  A    between atoms: C_7  and  O_9
REMARK    3  A    between atoms: O_9  and  C_10
REMARK                            x       y       z     vdW  Elec       q    Type
REMARK                         _______ _______ _______ _____ _____    ______ ____
ROOT
ATOM      1  C   UNL     1       3.675   0.182  -0.635  0.00  0.00    +0.000 C 
ATOM      2  O   UNL     1       4.506  -0.652  -0.309  0.00  0.00    +0.000 OA
ENDROOT
BRANCH   1   8
ATOM      3  C   UNL     1       1.289   1.054  -0.628  0.00  0.00    +0.000 A 
ATOM      4  C   UNL     1      -0.053   0.899  -0.264  0.00  0.00    +0.000 A 
ATOM      5  C   UNL     1      -0.456  -0.230   0.447  0.00  0.00    +0.000 A 
ATOM      6  C   UNL     1       0.471  -1.208   0.800  0.00  0.00    +0.000 A 
ATOM      7  C   UNL     1       1.813  -1.056   0.439  0.00  0.00    +0.000 A 
ATOM      8  C   UNL     1       2.232   0.076  -0.278  0.00  0.00    +0.000 A 
ATOM      9 CL   UNL     1      -2.107  -0.416   0.892  0.00  0.00    +0.000 Cl
ENDBRANCH   1   8
BRANCH   1  10
ATOM     10  O   UNL     1       3.895   1.335  -1.365  0.00  0.00    +0.000 OA
BRANCH  10  11
ATOM     11  C   UNL     1       5.228   1.500  -1.746  0.00  0.00    +0.000 A 
ATOM     12  C   UNL     1       6.009   2.423  -1.054  0.00  0.00    +0.000 A 
ATOM     13  C   UNL     1       7.323   2.623  -1.461  0.00  0.00    +0.000 A 
ATOM     14  C   UNL     1       7.855   1.934  -2.545  0.00  0.00    +0.000 A 
ATOM     15  C   UNL     1       7.048   1.033  -3.230  0.00  0.00    +0.000 A 
ATOM     16  C   UNL     1       5.730   0.810  -2.848  0.00  0.00    +0.000 A 
ATOM     17  F   UNL     1       7.547   0.373  -4.284  0.00  0.00    +0.000 F 
ATOM     18  F   UNL     1       8.088   3.503  -0.803  0.00  0.00    +0.000 F 
ENDBRANCH  10  11
ENDBRANCH   1  10
TORSDOF 3
