REMARK  Name = *****
REMARK  3 active torsions:
REMARK  status: ('A' for Active; 'I' for Inactive)
REMARK    1  A    between atoms: C_5  and  C_7
REMARK    2  A    between atoms: C_8  and  C_9
REMARK    3  A    between atoms: C_9  and  C_11
REMARK                            x       y       z     vdW  Elec       q    Type
REMARK                         _______ _______ _______ _____ _____    ______ ____
ROOT
ATOM      1  C   UNL     1      -0.436  -2.440   0.155  0.00  0.00    +0.000 C 
ATOM      2  C   UNL     1      -1.667  -2.712  -0.306  0.00  0.00    +0.000 C 
ENDROOT
BRANCH   1   7
ATOM      3  C   UNL     1       1.938   0.232  -0.997  0.00  0.00    +0.000 A 
ATOM      4  C   UNL     1       1.625   1.294  -0.152  0.00  0.00    +0.000 A 
ATOM      5  C   UNL     1       0.627   1.147   0.811  0.00  0.00    +0.000 A 
ATOM      6  C   UNL     1      -0.062  -0.064   0.928  0.00  0.00    +0.000 A 
ATOM      7  C   UNL     1       0.245  -1.141   0.080  0.00  0.00    +0.000 A 
ATOM      8  C   UNL     1       1.253  -0.980  -0.882  0.00  0.00    +0.000 A 
ATOM      9 CL   UNL     1      -1.274  -0.188   2.158  0.00  0.00    +0.000 Cl
ENDBRANCH   1   7
BRANCH   2  10
ATOM     10  C   UNL     1      -2.548  -1.750  -1.046  0.00  0.00    +0.000 C 
ATOM     11  O   UNL     1      -2.036  -0.910  -1.783  0.00  0.00    +0.000 OA
BRANCH  10  12
ATOM     12  C   UNL     1      -3.989  -1.922  -0.881  0.00  0.00    +0.000 A 
ATOM     13  C   UNL     1      -4.699  -2.645   0.063  0.00  0.00    +0.000 A 
ATOM     14  C   UNL     1      -6.110  -2.554  -0.121  0.00  0.00    +0.000 A 
ATOM     15  C   UNL     1      -6.438  -1.758  -1.194  0.00  0.00    +0.000 A 
ATOM     16  S   UNL     1      -5.054  -1.122  -1.966  0.00  0.00    +0.000 S 
ENDBRANCH  10  12
ENDBRANCH   2  10
TORSDOF 3
