REMARK  Name = *****
REMARK  5 active torsions:
REMARK  status: ('A' for Active; 'I' for Inactive)
REMARK    1  A    between atoms: C_1  and  N_2
REMARK    2  A    between atoms: N_2  and  C_3
REMARK    3  A    between atoms: N_2  and  C_4
REMARK    4  A    between atoms: C_9  and  C_10
REMARK    5  A    between atoms: C_11  and  C_12
REMARK                            x       y       z     vdW  Elec       q    Type
REMARK                         _______ _______ _______ _____ _____    ______ ____
ROOT
ATOM      1  C   UNL     1       3.312  -0.924  -0.700  0.00  0.00    +0.000 A 
ATOM      2  C   UNL     1       3.147  -1.340  -2.037  0.00  0.00    +0.000 A 
ATOM      3  C   UNL     1       3.782  -2.476  -2.541  0.00  0.00    +0.000 A 
ATOM      4  C   UNL     1       4.598  -3.234  -1.712  0.00  0.00    +0.000 A 
ATOM      5  C   UNL     1       4.772  -2.855  -0.382  0.00  0.00    +0.000 A 
ATOM      6  C   UNL     1       4.136  -1.710   0.137  0.00  0.00    +0.000 A 
ENDROOT
BRANCH   1   8
ATOM      7  C   UNL     1       3.340   1.236   0.448  0.00  0.00    +0.000 C 
ATOM      8  N   UNL     1       2.608   0.240  -0.327  0.00  0.00    +0.000 N 
ATOM      9  C   UNL     1       1.270  -0.072   0.179  0.00  0.00    +0.000 C 
ENDBRANCH   1   8
BRANCH   6  10
ATOM     10  C   UNL     1       4.357  -1.442   1.565  0.00  0.00    +0.000 C 
ATOM     11  C   UNL     1       3.598  -2.017   2.511  0.00  0.00    +0.000 C 
BRANCH  11  12
ATOM     12  C   UNL     1       3.767  -1.816   3.958  0.00  0.00    +0.000 A 
ATOM     13  C   UNL     1       4.267  -0.626   4.505  0.00  0.00    +0.000 A 
ATOM     14  C   UNL     1       4.381  -0.470   5.889  0.00  0.00    +0.000 A 
ATOM     15  C   UNL     1       3.986  -1.497   6.743  0.00  0.00    +0.000 A 
ATOM     16  C   UNL     1       3.472  -2.679   6.215  0.00  0.00    +0.000 A 
ATOM     17  C   UNL     1       3.359  -2.834   4.831  0.00  0.00    +0.000 A 
ENDBRANCH  11  12
ENDBRANCH   6  10
TORSDOF 3
