REMARK  Name = *****
REMARK  3 active torsions:
REMARK  status: ('A' for Active; 'I' for Inactive)
REMARK    1  A    between atoms: C_4  and  C_7
REMARK    2  A    between atoms: C_8  and  C_9
REMARK    3  A    between atoms: C_12  and  C_15
REMARK                            x       y       z     vdW  Elec       q    Type
REMARK                         _______ _______ _______ _____ _____    ______ ____
ROOT
ATOM      1  C   UNL     1      -2.812   0.435  -0.307  0.00  0.00    +0.000 C 
ATOM      2  C   UNL     1      -3.728  -0.539  -0.441  0.00  0.00    +0.000 C 
ENDROOT
BRANCH   1   6
ATOM      3  C   UNL     1       1.381  -0.184   0.268  0.00  0.00    +0.000 A 
ATOM      4  C   UNL     1       0.676  -1.024  -0.592  0.00  0.00    +0.000 A 
ATOM      5  C   UNL     1      -0.696  -0.837  -0.783  0.00  0.00    +0.000 A 
ATOM      6  C   UNL     1      -1.378   0.184  -0.108  0.00  0.00    +0.000 A 
ATOM      7  C   UNL     1      -0.653   1.032   0.740  0.00  0.00    +0.000 A 
ATOM      8  C   UNL     1       0.718   0.846   0.931  0.00  0.00    +0.000 A 
ENDBRANCH   1   6
BRANCH   2   9
ATOM      9  C   UNL     1      -5.165  -0.290  -0.621  0.00  0.00    +0.000 A 
ATOM     10  C   UNL     1      -5.647   0.751  -1.426  0.00  0.00    +0.000 A 
ATOM     11  C   UNL     1      -7.021   0.940  -1.598  0.00  0.00    +0.000 A 
ATOM     12  C   UNL     1      -7.924   0.077  -0.972  0.00  0.00    +0.000 A 
ATOM     13  C   UNL     1      -7.460  -0.974  -0.180  0.00  0.00    +0.000 A 
ATOM     14  C   UNL     1      -6.083  -1.158  -0.013  0.00  0.00    +0.000 A 
BRANCH  12  15
ATOM     15  C   UNL     1      -9.377   0.267  -1.148  0.00  0.00    +0.000 C 
ATOM     16  O   UNL     1      -9.840   1.171  -1.832  0.00  0.00    +0.000 OA
ENDBRANCH  12  15
ENDBRANCH   2   9
TORSDOF 3
