REMARK  Name = *****
REMARK  1 active torsions:
REMARK  status: ('A' for Active; 'I' for Inactive)
REMARK    1  A    between atoms: C_6  and  C_7
REMARK                            x       y       z     vdW  Elec       q    Type
REMARK                         _______ _______ _______ _____ _____    ______ ____
ROOT
ATOM      1  C   UNL     1      -0.783  -1.057  -0.020  0.00  0.00    +0.000 C 
ATOM      2  C   UNL     1       0.617  -0.971   0.568  0.00  0.00    +0.000 C 
ATOM      3  C   UNL     1       1.235   0.236  -0.128  0.00  0.00    +0.000 C 
ATOM      4  C   UNL     1       0.056   1.138  -0.373  0.00  0.00    +0.000 C 
ATOM      5  C   UNL     1       0.137   2.379  -0.757  0.00  0.00    +0.000 C 
ATOM      6  C   UNL     1       0.211   3.622  -1.134  0.00  0.00    +0.000 C 
ATOM      7  C   UNL     1      -1.228   0.397  -0.122  0.00  0.00    +0.000 C 
ENDROOT
BRANCH   6   8
ATOM      8  C   UNL     1       1.073   4.118  -2.217  0.00  0.00    +0.000 A 
ATOM      9  C   UNL     1       1.917   3.278  -2.957  0.00  0.00    +0.000 A 
ATOM     10  C   UNL     1       2.722   3.791  -3.979  0.00  0.00    +0.000 A 
ATOM     11  C   UNL     1       2.692   5.152  -4.274  0.00  0.00    +0.000 A 
ATOM     12  C   UNL     1       1.858   5.999  -3.550  0.00  0.00    +0.000 A 
ATOM     13  C   UNL     1       1.054   5.486  -2.528  0.00  0.00    +0.000 A 
ENDBRANCH   6   8
TORSDOF 1
