REMARK  Name = *****
REMARK  4 active torsions:
REMARK  status: ('A' for Active; 'I' for Inactive)
REMARK    1  A    between atoms: C_1  and  C_2
REMARK    2  A    between atoms: C_7  and  N_8
REMARK    3  A    between atoms: N_10  and  C_11
REMARK    4  A    between atoms: N_10  and  C_12
REMARK                            x       y       z     vdW  Elec       q    Type
REMARK                         _______ _______ _______ _____ _____    ______ ____
ROOT
ATOM      1  N   UNL     1       0.911  -2.495   0.218  0.00  0.00    +0.000 NA
ATOM      2  C   UNL     1       2.173  -2.696   0.005  0.00  0.00    +0.000 C 
ATOM      3  N   UNL     1       2.862  -3.878   0.190  0.00  0.00    +0.000 N 
ATOM      4  C   UNL     1       2.149  -5.026   0.752  0.00  0.00    +0.000 C 
ENDROOT
BRANCH   1  11
ATOM      5  C   UNL     1       0.900  -0.501   2.333  0.00  0.00    +0.000 C 
ATOM      6  C   UNL     1       0.418  -0.207   0.941  0.00  0.00    +0.000 A 
ATOM      7  C   UNL     1      -0.050   1.077   0.619  0.00  0.00    +0.000 A 
ATOM      8  C   UNL     1      -0.504   1.365  -0.669  0.00  0.00    +0.000 A 
ATOM      9  C   UNL     1      -0.498   0.375  -1.648  0.00  0.00    +0.000 A 
ATOM     10  C   UNL     1      -0.027  -0.901  -1.339  0.00  0.00    +0.000 A 
ATOM     11  C   UNL     1       0.448  -1.198  -0.056  0.00  0.00    +0.000 A 
ENDBRANCH   1  11
BRANCH   3  12
ATOM     12  C   UNL     1       4.267  -3.908   0.365  0.00  0.00    +0.000 A 
ATOM     13  C   UNL     1       4.958  -2.836   0.957  0.00  0.00    +0.000 A 
ATOM     14  C   UNL     1       6.346  -2.868   1.123  0.00  0.00    +0.000 A 
ATOM     15  C   UNL     1       7.075  -3.972   0.694  0.00  0.00    +0.000 A 
ATOM     16  C   UNL     1       6.416  -5.042   0.096  0.00  0.00    +0.000 A 
ATOM     17  C   UNL     1       5.027  -5.008  -0.066  0.00  0.00    +0.000 A 
ENDBRANCH   3  12
TORSDOF 2
