REMARK  Name = *****
REMARK  6 active torsions:
REMARK  status: ('A' for Active; 'I' for Inactive)
REMARK    1  A    between atoms: C_1  and  C_2
REMARK    2  A    between atoms: C_4  and  C_8
REMARK    3  A    between atoms: C_8  and  O_10
REMARK    4  A    between atoms: O_10  and  C_11
REMARK    5  A    between atoms: C_13  and  C_18
REMARK    6  A    between atoms: C_15  and  C_17
REMARK                            x       y       z     vdW  Elec       q    Type
REMARK                         _______ _______ _______ _____ _____    ______ ____
ROOT
ATOM      1  C   UNL     1      -2.383   2.717   0.515  0.00  0.00    +0.000 C 
ATOM      2  O   UNL     1      -2.231   2.955   1.704  0.00  0.00    +0.000 OA
ENDROOT
BRANCH   1   6
ATOM      3  C   UNL     1      -2.458  -0.505  -3.384  0.00  0.00    +0.000 C 
ATOM      4  C   UNL     1      -2.361  -0.236  -1.910  0.00  0.00    +0.000 A 
ATOM      5  C   UNL     1      -2.407   1.081  -1.428  0.00  0.00    +0.000 A 
ATOM      6  C   UNL     1      -2.347   1.339  -0.050  0.00  0.00    +0.000 A 
ATOM      7  C   UNL     1      -2.248   0.266   0.846  0.00  0.00    +0.000 A 
ATOM      8  C   UNL     1      -2.220  -1.046   0.372  0.00  0.00    +0.000 A 
ATOM      9  C   UNL     1      -2.282  -1.295  -0.999  0.00  0.00    +0.000 A 
ENDBRANCH   1   6
BRANCH   1  10
ATOM     10  O   UNL     1      -2.617   3.630  -0.500  0.00  0.00    +0.000 OA
BRANCH  10  11
ATOM     11  C   UNL     1      -2.725   4.984  -0.145  0.00  0.00    +0.000 A 
ATOM     12  C   UNL     1      -3.629   5.422   0.821  0.00  0.00    +0.000 A 
ATOM     13  C   UNL     1      -3.729   6.788   1.107  0.00  0.00    +0.000 A 
ATOM     14  C   UNL     1      -2.953   7.700   0.375  0.00  0.00    +0.000 A 
ATOM     15  C   UNL     1      -2.073   7.260  -0.626  0.00  0.00    +0.000 A 
ATOM     16  C   UNL     1      -1.957   5.889  -0.876  0.00  0.00    +0.000 A 
ATOM     17  C   UNL     1      -1.226   8.243  -1.378  0.00  0.00    +0.000 C 
ATOM     18  C   UNL     1      -4.699   7.275   2.142  0.00  0.00    +0.000 C 
ENDBRANCH  10  11
ENDBRANCH   1  10
TORSDOF 3
