REMARK  Name = *****
REMARK  4 active torsions:
REMARK  status: ('A' for Active; 'I' for Inactive)
REMARK    1  A    between atoms: C_1  and  C_2
REMARK    2  A    between atoms: C_5  and  S_8
REMARK    3  A    between atoms: S_8  and  C_9
REMARK    4  A    between atoms: C_9  and  C_11
REMARK                            x       y       z     vdW  Elec       q    Type
REMARK                         _______ _______ _______ _____ _____    ______ ____
ROOT
ATOM      1  C   UNL     1      -4.085   1.188   1.018  0.00  0.00    +0.000 C 
ATOM      2  O   UNL     1      -3.483   2.087   0.443  0.00  0.00    +0.000 OA
ENDROOT
BRANCH   1   3
ATOM      3  C   UNL     1      -5.374   1.482   1.720  0.00  0.00    +0.000 A 
ATOM      4  C   UNL     1      -5.749   2.831   1.847  0.00  0.00    +0.000 A 
ATOM      5  C   UNL     1      -6.937   3.187   2.494  0.00  0.00    +0.000 A 
ATOM      6  C   UNL     1      -7.763   2.196   3.016  0.00  0.00    +0.000 A 
ATOM      7  C   UNL     1      -7.411   0.853   2.895  0.00  0.00    +0.000 A 
ATOM      8  C   UNL     1      -6.221   0.495   2.248  0.00  0.00    +0.000 A 
ATOM      9 CL   UNL     1      -9.223   2.629   3.813  0.00  0.00    +0.000 Cl
ENDBRANCH   1   3
BRANCH   1  10
ATOM     10  S   UNL     1      -3.478  -0.466   1.057  0.00  0.00    +0.000 S 
BRANCH  10  15
ATOM     11  C   UNL     1       2.473   0.068  -0.155  0.00  0.00    +0.000 C 
ATOM     12  C   UNL     1       1.003  -0.031   0.125  0.00  0.00    +0.000 A 
ATOM     13  C   UNL     1       0.440   0.668   1.199  0.00  0.00    +0.000 A 
ATOM     14  C   UNL     1      -0.925   0.554   1.482  0.00  0.00    +0.000 A 
ATOM     15  C   UNL     1      -1.746  -0.258   0.694  0.00  0.00    +0.000 A 
ATOM     16  C   UNL     1      -1.179  -0.977  -0.363  0.00  0.00    +0.000 A 
ATOM     17  C   UNL     1       0.186  -0.865  -0.645  0.00  0.00    +0.000 A 
ENDBRANCH  10  15
ENDBRANCH   1  10
TORSDOF 3
