REMARK  Name = *****
REMARK  4 active torsions:
REMARK  status: ('A' for Active; 'I' for Inactive)
REMARK    1  A    between atoms: N_2  and  C_3
REMARK    2  A    between atoms: C_8  and  O_9
REMARK    3  A    between atoms: O_9  and  C_10
REMARK    4  A    between atoms: C_10  and  C_11
REMARK                            x       y       z     vdW  Elec       q    Type
REMARK                         _______ _______ _______ _____ _____    ______ ____
ROOT
ATOM      1  C   UNL     1      -0.631  -0.314  -0.450  0.00  0.00    +0.000 A 
ATOM      2  C   UNL     1       0.374  -1.221  -0.107  0.00  0.00    +0.000 A 
ATOM      3  C   UNL     1       1.673  -0.757   0.104  0.00  0.00    +0.000 A 
ATOM      4  C   UNL     1       1.961   0.602  -0.038  0.00  0.00    +0.000 A 
ATOM      5  C   UNL     1       0.950   1.503  -0.383  0.00  0.00    +0.000 A 
ATOM      6  C   UNL     1      -0.356   1.048  -0.567  0.00  0.00    +0.000 A 
ENDROOT
BRANCH   1   8
ATOM      7  C   UNL     1      -2.977  -1.247  -0.875  0.00  0.00    +0.000 C 
ATOM      8  N   UNL     1      -1.907  -0.805  -0.688  0.00  0.00    +0.000 NA
ENDBRANCH   1   8
BRANCH   6   9
ATOM      9  O   UNL     1      -1.295   1.974  -0.929  0.00  0.00    +0.000 OA
BRANCH   9  10
ATOM     10  C   UNL     1      -2.192   2.267   0.149  0.00  0.00    +0.000 C 
BRANCH  10  11
ATOM     11  C   UNL     1      -2.454   3.752   0.154  0.00  0.00    +0.000 A 
ATOM     12  C   UNL     1      -3.513   4.291  -0.589  0.00  0.00    +0.000 A 
ATOM     13  C   UNL     1      -3.744   5.668  -0.596  0.00  0.00    +0.000 A 
ATOM     14  C   UNL     1      -2.913   6.518   0.132  0.00  0.00    +0.000 A 
ATOM     15  C   UNL     1      -1.848   5.994   0.863  0.00  0.00    +0.000 A 
ATOM     16  C   UNL     1      -1.617   4.618   0.871  0.00  0.00    +0.000 A 
ENDBRANCH  10  11
ENDBRANCH   9  10
ENDBRANCH   6   9
TORSDOF 4
