REMARK  Name = *****
REMARK  4 active torsions:
REMARK  status: ('A' for Active; 'I' for Inactive)
REMARK    1  A    between atoms: C_4  and  C_7
REMARK    2  A    between atoms: C_7  and  C_8
REMARK    3  A    between atoms: C_8  and  O_9
REMARK    4  A    between atoms: O_9  and  C_10
REMARK                            x       y       z     vdW  Elec       q    Type
REMARK                         _______ _______ _______ _____ _____    ______ ____
ROOT
ATOM      1  C   UNL     1       2.937  -2.323   0.094  0.00  0.00    +0.000 C 
ENDROOT
BRANCH   1   2
ATOM      2  C   UNL     1       2.563  -0.967  -0.499  0.00  0.00    +0.000 C 
BRANCH   2   6
ATOM      3  C   UNL     1      -1.514   0.636  -0.650  0.00  0.00    +0.000 C 
ATOM      4  C   UNL     1      -1.330  -0.790  -0.145  0.00  0.00    +0.000 C 
ATOM      5  C   UNL     1       0.038  -1.355  -0.523  0.00  0.00    +0.000 C 
ATOM      6  C   UNL     1       1.186  -0.449  -0.049  0.00  0.00    +0.000 C 
ATOM      7  C   UNL     1       0.982   0.988  -0.560  0.00  0.00    +0.000 C 
ATOM      8  C   UNL     1      -0.386   1.544  -0.173  0.00  0.00    +0.000 C 
ENDBRANCH   2   6
ENDBRANCH   1   2
BRANCH   1   9
ATOM      9  O   UNL     1       4.272  -2.626  -0.312  0.00  0.00    +0.000 OA
BRANCH   9  10
ATOM     10  C   UNL     1       4.796  -3.822   0.275  0.00  0.00    +0.000 C 
ATOM     11  C   UNL     1       6.318  -3.771   0.110  0.00  0.00    +0.000 C 
ATOM     12  C   UNL     1       6.991  -5.043   0.610  0.00  0.00    +0.000 C 
ATOM     13  C   UNL     1       6.413  -6.282  -0.065  0.00  0.00    +0.000 C 
ATOM     14  C   UNL     1       4.897  -6.348   0.088  0.00  0.00    +0.000 C 
ATOM     15  C   UNL     1       4.222  -5.071  -0.404  0.00  0.00    +0.000 C 
ENDBRANCH   9  10
ENDBRANCH   1   9
TORSDOF 4
