REMARK  Name = *****
REMARK  4 active torsions:
REMARK  status: ('A' for Active; 'I' for Inactive)
REMARK    1  A    between atoms: C_1  and  C_2
REMARK    2  A    between atoms: C_5  and  C_8
REMARK    3  A    between atoms: C_9  and  C_10
REMARK    4  A    between atoms: C_13  and  C_16
REMARK                            x       y       z     vdW  Elec       q    Type
REMARK                         _______ _______ _______ _____ _____    ______ ____
ROOT
ATOM      1  C   UNL     1       6.723   0.018  -0.840  0.00  0.00    +0.000 C 
ATOM      2  C   UNL     1       7.896   0.040  -1.096  0.00  0.00    +0.000 C 
ENDROOT
BRANCH   1   7
ATOM      3  C   UNL     1       1.111  -0.081   0.351  0.00  0.00    +0.000 C 
ATOM      4  C   UNL     1       2.585  -0.052   0.068  0.00  0.00    +0.000 A 
ATOM      5  C   UNL     1       3.243   1.165  -0.151  0.00  0.00    +0.000 A 
ATOM      6  C   UNL     1       4.608   1.188  -0.446  0.00  0.00    +0.000 A 
ATOM      7  C   UNL     1       5.325  -0.006  -0.536  0.00  0.00    +0.000 A 
ATOM      8  C   UNL     1       4.674  -1.223  -0.333  0.00  0.00    +0.000 A 
ATOM      9  C   UNL     1       3.308  -1.246  -0.038  0.00  0.00    +0.000 A 
ENDBRANCH   1   7
BRANCH   2  10
ATOM     10  C   UNL     1       9.293   0.066  -1.402  0.00  0.00    +0.000 A 
ATOM     11  C   UNL     1       9.954   1.289  -1.548  0.00  0.00    +0.000 A 
ATOM     12  C   UNL     1      11.318   1.316  -1.848  0.00  0.00    +0.000 A 
ATOM     13  C   UNL     1      12.018   0.116  -2.001  0.00  0.00    +0.000 A 
ATOM     14  C   UNL     1      11.363  -1.110  -1.856  0.00  0.00    +0.000 A 
ATOM     15  C   UNL     1       9.998  -1.132  -1.556  0.00  0.00    +0.000 A 
BRANCH  13  16
ATOM     16  C   UNL     1      13.460   0.133  -2.318  0.00  0.00    +0.000 C 
ATOM     17  O   UNL     1      14.085   1.177  -2.457  0.00  0.00    +0.000 OA
ENDBRANCH  13  16
ENDBRANCH   2  10
TORSDOF 3
