REMARK  Name = *****
REMARK  6 active torsions:
REMARK  status: ('A' for Active; 'I' for Inactive)
REMARK    1  A    between atoms: C_1  and  C_2
REMARK    2  A    between atoms: C_2  and  C_3
REMARK    3  A    between atoms: C_2  and  N_10
REMARK    4  A    between atoms: C_3  and  C_4
REMARK    5  A    between atoms: N_10  and  C_11
REMARK    6  A    between atoms: N_10  and  C_12
REMARK                            x       y       z     vdW  Elec       q    Type
REMARK                         _______ _______ _______ _____ _____    ______ ____
ROOT
ATOM      1  C   UNL     1       0.918  -0.502  -0.192  0.00  0.00    +0.000 C 
ATOM      2  C   UNL     1       2.445  -0.344  -0.194  0.00  0.00    +0.000 C 
ENDROOT
BRANCH   2   3
ATOM      3  N   UNL     1       3.018  -0.755  -1.503  0.00  0.00    +0.000 N 
ATOM      4  C   UNL     1       2.578  -2.018  -2.091  0.00  0.00    +0.000 C 
BRANCH   3   5
ATOM      5  C   UNL     1       3.532   0.237  -2.341  0.00  0.00    +0.000 A 
ATOM      6  C   UNL     1       4.367   1.247  -1.833  0.00  0.00    +0.000 A 
ATOM      7  C   UNL     1       4.908   2.244  -2.653  0.00  0.00    +0.000 A 
ATOM      8  C   UNL     1       4.633   2.251  -4.014  0.00  0.00    +0.000 A 
ATOM      9  C   UNL     1       3.823   1.257  -4.551  0.00  0.00    +0.000 A 
ATOM     10  C   UNL     1       3.287   0.262  -3.724  0.00  0.00    +0.000 A 
ENDBRANCH   3   5
ENDBRANCH   2   3
BRANCH   2  11
ATOM     11  C   UNL     1       3.125  -1.143   0.940  0.00  0.00    +0.000 C 
BRANCH  11  12
ATOM     12  C   UNL     1       2.803  -0.634   2.326  0.00  0.00    +0.000 A 
ATOM     13  C   UNL     1       1.904  -1.326   3.149  0.00  0.00    +0.000 A 
ATOM     14  C   UNL     1       1.601  -0.847   4.425  0.00  0.00    +0.000 A 
ATOM     15  C   UNL     1       2.193   0.325   4.890  0.00  0.00    +0.000 A 
ATOM     16  C   UNL     1       3.090   1.020   4.081  0.00  0.00    +0.000 A 
ATOM     17  C   UNL     1       3.395   0.544   2.805  0.00  0.00    +0.000 A 
ENDBRANCH  11  12
ENDBRANCH   2  11
TORSDOF 4
