REMARK  Name = *****
REMARK  4 active torsions:
REMARK  status: ('A' for Active; 'I' for Inactive)
REMARK    1  A    between atoms: C_1  and  C_2
REMARK    2  A    between atoms: C_2  and  C_3
REMARK    3  A    between atoms: C_2  and  C_10
REMARK    4  A    between atoms: C_3  and  C_4
REMARK                            x       y       z     vdW  Elec       q    Type
REMARK                         _______ _______ _______ _____ _____    ______ ____
ROOT
ATOM      1  C   UNL     1       0.731  -0.179   0.144  0.00  0.00    +0.000 C 
ATOM      2  C   UNL     1       2.264  -0.124   0.109  0.00  0.00    +0.000 C 
ENDROOT
BRANCH   2   3
ATOM      3  C   UNL     1       2.811  -1.008  -1.004  0.00  0.00    +0.000 A 
ATOM      4  C   UNL     1       3.592  -0.442  -2.023  0.00  0.00    +0.000 A 
ATOM      5  C   UNL     1       4.110  -1.236  -3.049  0.00  0.00    +0.000 A 
ATOM      6  C   UNL     1       3.856  -2.606  -3.068  0.00  0.00    +0.000 A 
ATOM      7  C   UNL     1       3.084  -3.182  -2.062  0.00  0.00    +0.000 A 
ATOM      8  C   UNL     1       2.566  -2.390  -1.036  0.00  0.00    +0.000 A 
ENDBRANCH   2   3
BRANCH   2   9
ATOM      9  C   UNL     1       2.898  -0.506   1.465  0.00  0.00    +0.000 C 
BRANCH   9  10
ATOM     10  C   UNL     1       2.620   0.490   2.567  0.00  0.00    +0.000 A 
ATOM     11  C   UNL     1       1.690   0.198   3.574  0.00  0.00    +0.000 A 
ATOM     12  C   UNL     1       1.429   1.123   4.586  0.00  0.00    +0.000 A 
ATOM     13  C   UNL     1       2.094   2.348   4.601  0.00  0.00    +0.000 A 
ATOM     14  C   UNL     1       3.021   2.648   3.605  0.00  0.00    +0.000 A 
ATOM     15  C   UNL     1       3.284   1.724   2.593  0.00  0.00    +0.000 A 
ENDBRANCH   9  10
ENDBRANCH   2   9
TORSDOF 3
