REMARK  Name = *****
REMARK  6 active torsions:
REMARK  status: ('A' for Active; 'I' for Inactive)
REMARK    1  A    between atoms: C_1  and  O_2
REMARK    2  A    between atoms: O_2  and  P_3
REMARK    3  A    between atoms: P_3  and  C_5
REMARK    4  A    between atoms: P_3  and  O_11
REMARK    5  A    between atoms: O_11  and  C_12
REMARK    6  A    between atoms: C_15  and  C_18
REMARK                            x       y       z     vdW  Elec       q    Type
REMARK                         _______ _______ _______ _____ _____    ______ ____
ROOT
ATOM      1  P   UNL     1       3.047  -1.981  -0.058  0.00  0.00    +0.000 P 
ATOM      2  S   UNL     1       1.819  -2.588  -1.458  0.00  0.00    +0.000 S 
ENDROOT
BRANCH   1   3
ATOM      3  C   UNL     1       4.630  -1.241  -0.477  0.00  0.00    +0.000 A 
ATOM      4  C   UNL     1       5.445  -0.714   0.539  0.00  0.00    +0.000 A 
ATOM      5  C   UNL     1       6.677  -0.132   0.238  0.00  0.00    +0.000 A 
ATOM      6  C   UNL     1       7.113  -0.073  -1.084  0.00  0.00    +0.000 A 
ATOM      7  C   UNL     1       6.319  -0.595  -2.103  0.00  0.00    +0.000 A 
ATOM      8  C   UNL     1       5.085  -1.176  -1.802  0.00  0.00    +0.000 A 
ENDBRANCH   1   3
BRANCH   1  10
ATOM      9  C   UNL     1       1.896   0.323   0.442  0.00  0.00    +0.000 C 
ATOM     10  O   UNL     1       2.388  -0.896   0.968  0.00  0.00    +0.000 OA
ENDBRANCH   1  10
BRANCH   1  11
ATOM     11  O   UNL     1       3.496  -3.145   0.982  0.00  0.00    +0.000 OA
BRANCH  11  12
ATOM     12  C   UNL     1       2.694  -3.881   1.806  0.00  0.00    +0.000 A 
ATOM     13  C   UNL     1       1.343  -3.633   2.035  0.00  0.00    +0.000 A 
ATOM     14  C   UNL     1       0.620  -4.452   2.909  0.00  0.00    +0.000 A 
ATOM     15  C   UNL     1       1.247  -5.519   3.560  0.00  0.00    +0.000 A 
ATOM     16  C   UNL     1       2.604  -5.763   3.334  0.00  0.00    +0.000 A 
ATOM     17  C   UNL     1       3.323  -4.943   2.461  0.00  0.00    +0.000 A 
BRANCH  15  18
ATOM     18  C   UNL     1       0.503  -6.356   4.456  0.00  0.00    +0.000 C 
ATOM     19  N   UNL     1      -0.096  -7.032   5.185  0.00  0.00    +0.000 NA
ENDBRANCH  15  18
ENDBRANCH  11  12
ENDBRANCH   1  11
TORSDOF 5
