REMARK  Name = *****
REMARK  2 active torsions:
REMARK  status: ('A' for Active; 'I' for Inactive)
REMARK    1  A    between atoms: C_1  and  C_2
REMARK    2  A    between atoms: C_5  and  C_8
REMARK                            x       y       z     vdW  Elec       q    Type
REMARK                         _______ _______ _______ _____ _____    ______ ____
ROOT
ATOM      1  C   UNL     1      -3.312   0.033   0.037  0.00  0.00    +0.000 A 
ATOM      2  C   UNL     1      -4.106  -0.435   1.025  0.00  0.00    +0.000 A 
ATOM      3  C   UNL     1      -5.483  -0.207   0.615  0.00  0.00    +0.000 A 
ATOM      4  C   UNL     1      -6.548  -0.541   1.352  0.00  0.00    +0.000 A 
ATOM      5  C   UNL     1      -7.943  -0.348   1.027  0.00  0.00    +0.000 A 
ATOM      6  C   UNL     1      -8.497   0.192  -0.067  0.00  0.00    +0.000 A 
ATOM      7  C   UNL     1      -7.868   0.739  -1.246  0.00  0.00    +0.000 A 
ATOM      8  C   UNL     1      -6.563   0.850  -1.529  0.00  0.00    +0.000 A 
ATOM      9  C   UNL     1      -5.472   0.432  -0.693  0.00  0.00    +0.000 A 
ATOM     10  C   UNL     1      -4.171   0.568  -1.020  0.00  0.00    +0.000 A 
ENDROOT
BRANCH   1  15
ATOM     11  C   UNL     1       2.476  -0.043   0.086  0.00  0.00    +0.000 C 
ATOM     12  C   UNL     1       0.976  -0.019   0.103  0.00  0.00    +0.000 A 
ATOM     13  C   UNL     1       0.250  -1.157   0.469  0.00  0.00    +0.000 A 
ATOM     14  C   UNL     1      -1.148  -1.141   0.454  0.00  0.00    +0.000 A 
ATOM     15  C   UNL     1      -1.846   0.009   0.063  0.00  0.00    +0.000 A 
ATOM     16  C   UNL     1      -1.115   1.140  -0.320  0.00  0.00    +0.000 A 
ATOM     17  C   UNL     1       0.283   1.126  -0.304  0.00  0.00    +0.000 A 
ENDBRANCH   1  15
TORSDOF 1
