REMARK  Name = *****
REMARK  6 active torsions:
REMARK  status: ('A' for Active; 'I' for Inactive)
REMARK    1  A    between atoms: C_1  and  C_2
REMARK    2  A    between atoms: C_2  and  C_3
REMARK    3  A    between atoms: C_2  and  O_9
REMARK    4  A    between atoms: O_9  and  C_10
REMARK    5  A    between atoms: C_10  and  C_11
REMARK    6  A    between atoms: C_10  and  C_12
REMARK                            x       y       z     vdW  Elec       q    Type
REMARK                         _______ _______ _______ _____ _____    ______ ____
ROOT
ATOM      1  O   UNL     1       3.044  -1.130  -0.487  0.00  0.00    +0.000 OA
ENDROOT
BRANCH   1   3
ATOM      2  C   UNL     1       2.545   0.934  -1.642  0.00  0.00    +0.000 C 
ATOM      3  C   UNL     1       2.504   0.183  -0.313  0.00  0.00    +0.000 C 
BRANCH   3   4
ATOM      4  C   UNL     1       1.079   0.056   0.189  0.00  0.00    +0.000 A 
ATOM      5  C   UNL     1       0.200  -0.897  -0.353  0.00  0.00    +0.000 A 
ATOM      6  C   UNL     1      -1.116  -0.992   0.100  0.00  0.00    +0.000 A 
ATOM      7  C   UNL     1      -1.574  -0.135   1.098  0.00  0.00    +0.000 A 
ATOM      8  C   UNL     1      -0.715   0.819   1.643  0.00  0.00    +0.000 A 
ATOM      9  C   UNL     1       0.602   0.916   1.190  0.00  0.00    +0.000 A 
ENDBRANCH   3   4
ENDBRANCH   1   3
BRANCH   1  10
ATOM     10  C   UNL     1       4.460  -1.213  -0.296  0.00  0.00    +0.000 C 
ATOM     11  C   UNL     1       4.764  -1.481   1.176  0.00  0.00    +0.000 C 
BRANCH  10  12
ATOM     12  C   UNL     1       4.998  -2.332  -1.168  0.00  0.00    +0.000 A 
ATOM     13  C   UNL     1       6.203  -2.166  -1.867  0.00  0.00    +0.000 A 
ATOM     14  C   UNL     1       6.716  -3.199  -2.655  0.00  0.00    +0.000 A 
ATOM     15  C   UNL     1       6.034  -4.410  -2.751  0.00  0.00    +0.000 A 
ATOM     16  C   UNL     1       4.839  -4.591  -2.059  0.00  0.00    +0.000 A 
ATOM     17  C   UNL     1       4.325  -3.560  -1.271  0.00  0.00    +0.000 A 
ENDBRANCH  10  12
ENDBRANCH   1  10
TORSDOF 4
