REMARK  Name = *****
REMARK  5 active torsions:
REMARK  status: ('A' for Active; 'I' for Inactive)
REMARK    1  A    between atoms: C_2  and  C_3
REMARK    2  A    between atoms: C_3  and  C_4
REMARK    3  A    between atoms: C_4  and  C_5
REMARK    4  A    between atoms: C_8  and  C_10
REMARK    5  A    between atoms: C_11  and  C_12
REMARK                            x       y       z     vdW  Elec       q    Type
REMARK                         _______ _______ _______ _____ _____    ______ ____
ROOT
ATOM      1  C   UNL     1       5.310   2.277  -1.184  0.00  0.00    +0.000 A 
ATOM      2  C   UNL     1       5.578   3.614  -1.052  0.00  0.00    +0.000 A 
ATOM      3  N   UNL     1       6.309   4.047  -2.126  0.00  0.00    +0.000 NA
ATOM      4  C   UNL     1       6.483   2.978  -2.895  0.00  0.00    +0.000 A 
ATOM      5  O   UNL     1       5.878   1.856  -2.350  0.00  0.00    +0.000 OA
ENDROOT
BRANCH   4   6
ATOM      6  C   UNL     1       7.185   2.911  -4.130  0.00  0.00    +0.000 C 
ATOM      7  C   UNL     1       7.760   4.000  -4.664  0.00  0.00    +0.000 C 
BRANCH   7   8
ATOM      8  C   UNL     1       8.512   4.000  -5.927  0.00  0.00    +0.000 A 
ATOM      9  C   UNL     1       8.132   3.223  -7.029  0.00  0.00    +0.000 A 
ATOM     10  C   UNL     1       8.859   3.275  -8.221  0.00  0.00    +0.000 A 
ATOM     11  C   UNL     1       9.968   4.113  -8.327  0.00  0.00    +0.000 A 
ATOM     12  C   UNL     1      10.346   4.903  -7.244  0.00  0.00    +0.000 A 
ATOM     13  C   UNL     1       9.618   4.851  -6.053  0.00  0.00    +0.000 A 
ENDBRANCH   7   8
ENDBRANCH   4   6
BRANCH   1  14
ATOM     14  C   UNL     1       4.582   1.273  -0.377  0.00  0.00    +0.000 C 
BRANCH  14  15
ATOM     15  C   UNL     1       3.123   1.152  -0.822  0.00  0.00    +0.000 C 
BRANCH  15  17
ATOM     16  C   UNL     1       1.813  -0.959  -0.455  0.00  0.00    +0.000 C 
ATOM     17  C   UNL     1       2.366   0.164   0.022  0.00  0.00    +0.000 C 
ENDBRANCH  15  17
ENDBRANCH  14  15
ENDBRANCH   1  14
TORSDOF 5
