REMARK  Name = *****
REMARK  2 active torsions:
REMARK  status: ('A' for Active; 'I' for Inactive)
REMARK    1  A    between atoms: C_6  and  C_7
REMARK    2  A    between atoms: C_8  and  C_9
REMARK                            x       y       z     vdW  Elec       q    Type
REMARK                         _______ _______ _______ _____ _____    ______ ____
ROOT
ATOM      1  C   UNL     1      -3.424   0.061  -0.047  0.00  0.00    +0.000 C 
ATOM      2  C   UNL     1      -4.187   1.159   0.088  0.00  0.00    +0.000 C 
ENDROOT
BRANCH   1   8
ATOM      3  C   UNL     1      -1.208   1.089  -0.644  0.00  0.00    +0.000 A 
ATOM      4  C   UNL     1       0.189   1.056  -0.621  0.00  0.00    +0.000 A 
ATOM      5  C   UNL     1       0.838   0.007   0.018  0.00  0.00    +0.000 A 
ATOM      6  C   UNL     1       0.119  -1.012   0.630  0.00  0.00    +0.000 A 
ATOM      7  C   UNL     1      -1.278  -0.979   0.605  0.00  0.00    +0.000 A 
ATOM      8  C   UNL     1      -1.955   0.079  -0.019  0.00  0.00    +0.000 A 
ATOM      9  F   UNL     1       2.177  -0.025   0.040  0.00  0.00    +0.000 F 
ENDBRANCH   1   8
BRANCH   2  10
ATOM     10  C   UNL     1      -5.656   1.143   0.065  0.00  0.00    +0.000 A 
ATOM     11  C   UNL     1      -6.403   0.126   0.677  0.00  0.00    +0.000 A 
ATOM     12  C   UNL     1      -7.801   0.163   0.664  0.00  0.00    +0.000 A 
ATOM     13  C   UNL     1      -8.458   1.225   0.047  0.00  0.00    +0.000 A 
ATOM     14  C   UNL     1      -7.732   2.251  -0.551  0.00  0.00    +0.000 A 
ATOM     15  C   UNL     1      -6.335   2.212  -0.536  0.00  0.00    +0.000 A 
ATOM     16 BR   UNL     1     -10.348   1.277   0.031  0.00  0.00    +0.000 Br
ENDBRANCH   2  10
TORSDOF 2
