REMARK  Name = *****
REMARK  4 active torsions:
REMARK  status: ('A' for Active; 'I' for Inactive)
REMARK    1  A    between atoms: C_1  and  C_2
REMARK    2  A    between atoms: C_5  and  C_8
REMARK    3  A    between atoms: C_8  and  C_17
REMARK    4  A    between atoms: N_9  and  C_10
REMARK                            x       y       z     vdW  Elec       q    Type
REMARK                         _______ _______ _______ _____ _____    ______ ____
ROOT
ATOM      1  C   UNL     1      -3.278  -0.040  -0.130  0.00  0.00    +0.000 C 
ATOM      2  N   UNL     1      -3.917  -1.132   0.176  0.00  0.00    +0.000 NA
ATOM      3  C   UNL     1      -4.071   1.247  -0.141  0.00  0.00    +0.000 C 
ENDROOT
BRANCH   1   8
ATOM      4  C   UNL     1       2.325   0.487  -1.444  0.00  0.00    +0.000 C 
ATOM      5  C   UNL     1       0.876   0.327  -1.087  0.00  0.00    +0.000 A 
ATOM      6  C   UNL     1       0.032  -0.444  -1.897  0.00  0.00    +0.000 A 
ATOM      7  C   UNL     1      -1.323  -0.571  -1.587  0.00  0.00    +0.000 A 
ATOM      8  C   UNL     1      -1.838   0.076  -0.463  0.00  0.00    +0.000 A 
ATOM      9  C   UNL     1      -1.012   0.866   0.341  0.00  0.00    +0.000 A 
ATOM     10  C   UNL     1       0.342   0.992   0.025  0.00  0.00    +0.000 A 
ENDBRANCH   1   8
BRANCH   2  11
ATOM     11  C   UNL     1      -3.253  -2.361   0.266  0.00  0.00    +0.000 A 
ATOM     12  C   UNL     1      -2.391  -2.647   1.331  0.00  0.00    +0.000 A 
ATOM     13  C   UNL     1      -1.759  -3.890   1.414  0.00  0.00    +0.000 A 
ATOM     14  C   UNL     1      -2.009  -4.850   0.441  0.00  0.00    +0.000 A 
ATOM     15  C   UNL     1      -2.883  -4.594  -0.609  0.00  0.00    +0.000 A 
ATOM     16  C   UNL     1      -3.512  -3.350  -0.690  0.00  0.00    +0.000 A 
ATOM     17  F   UNL     1      -1.405  -6.042   0.520  0.00  0.00    +0.000 F 
ENDBRANCH   2  11
TORSDOF 2
