REMARK  Name = *****
REMARK  3 active torsions:
REMARK  status: ('A' for Active; 'I' for Inactive)
REMARK    1  A    between atoms: C_1  and  C_2
REMARK    2  A    between atoms: C_4  and  C_8
REMARK    3  A    between atoms: C_9  and  C_10
REMARK                            x       y       z     vdW  Elec       q    Type
REMARK                         _______ _______ _______ _____ _____    ______ ____
ROOT
ATOM      1  C   UNL     1       2.515  -0.073   0.075  0.00  0.00    +0.000 C 
ATOM      2  C   UNL     1       1.019  -0.020  -0.022  0.00  0.00    +0.000 A 
ATOM      3  C   UNL     1       0.343   1.205   0.077  0.00  0.00    +0.000 A 
ATOM      4  C   UNL     1      -1.057   1.264   0.015  0.00  0.00    +0.000 A 
ATOM      5  C   UNL     1      -1.779   0.072  -0.110  0.00  0.00    +0.000 A 
ATOM      6  C   UNL     1      -1.116  -1.153  -0.194  0.00  0.00    +0.000 A 
ATOM      7  C   UNL     1       0.277  -1.199  -0.148  0.00  0.00    +0.000 A 
ENDROOT
BRANCH   4   8
ATOM      8  C   UNL     1      -1.792   2.532   0.138  0.00  0.00    +0.000 C 
ATOM      9  C   UNL     1      -1.413   3.665  -0.476  0.00  0.00    +0.000 C 
BRANCH   9  10
ATOM     10  C   UNL     1      -2.141   4.887  -0.353  0.00  0.00    +0.000 A 
ATOM     11  C   UNL     1      -3.286   5.203   0.362  0.00  0.00    +0.000 A 
ATOM     12  C   UNL     1      -3.691   6.562   0.211  0.00  0.00    +0.000 A 
ATOM     13  C   UNL     1      -2.845   7.259  -0.617  0.00  0.00    +0.000 A 
ATOM     14  S   UNL     1      -1.576   6.282  -1.204  0.00  0.00    +0.000 S 
ENDBRANCH   9  10
ENDBRANCH   4   8
TORSDOF 2
