REMARK  Name = *****
REMARK  4 active torsions:
REMARK  status: ('A' for Active; 'I' for Inactive)
REMARK    1  A    between atoms: C_1  and  C_2
REMARK    2  A    between atoms: C_7  and  C_8
REMARK    3  A    between atoms: C_8  and  O_10
REMARK    4  A    between atoms: O_10  and  C_11
REMARK                            x       y       z     vdW  Elec       q    Type
REMARK                         _______ _______ _______ _____ _____    ______ ____
ROOT
ATOM      1  C   UNL     1       0.913  -2.612   0.269  0.00  0.00    +0.000 C 
ATOM      2  O   UNL     1       0.272  -3.589   0.621  0.00  0.00    +0.000 OA
ENDROOT
BRANCH   1   9
ATOM      3  C   UNL     1       2.347  -0.028   1.057  0.00  0.00    +0.000 C 
ATOM      4  C   UNL     1       0.973  -0.063   0.447  0.00  0.00    +0.000 A 
ATOM      5  C   UNL     1       0.314   1.155   0.208  0.00  0.00    +0.000 A 
ATOM      6  C   UNL     1      -0.974   1.183  -0.332  0.00  0.00    +0.000 A 
ATOM      7  C   UNL     1      -1.626  -0.006  -0.644  0.00  0.00    +0.000 A 
ATOM      8  C   UNL     1      -0.983  -1.225  -0.429  0.00  0.00    +0.000 A 
ATOM      9  C   UNL     1       0.320  -1.262   0.096  0.00  0.00    +0.000 A 
ENDBRANCH   1   9
BRANCH   1  10
ATOM     10  O   UNL     1       2.214  -2.600  -0.108  0.00  0.00    +0.000 OA
BRANCH  10  11
ATOM     11  C   UNL     1       2.885  -3.857  -0.027  0.00  0.00    +0.000 C 
ATOM     12  C   UNL     1       3.300  -4.201   1.400  0.00  0.00    +0.000 C 
ATOM     13  C   UNL     1       4.468  -5.168   1.237  0.00  0.00    +0.000 C 
ATOM     14  C   UNL     1       5.025  -4.931  -0.167  0.00  0.00    +0.000 C 
ATOM     15  C   UNL     1       4.230  -3.764  -0.736  0.00  0.00    +0.000 C 
ENDBRANCH  10  11
ENDBRANCH   1  10
TORSDOF 3
