REMARK  Name = *****
REMARK  3 active torsions:
REMARK  status: ('A' for Active; 'I' for Inactive)
REMARK    1  A    between atoms: C_5  and  C_7
REMARK    2  A    between atoms: C_7  and  C_9
REMARK    3  A    between atoms: C_9  and  C_10
REMARK                            x       y       z     vdW  Elec       q    Type
REMARK                         _______ _______ _______ _____ _____    ______ ____
ROOT
ATOM      1  C   UNL     1       0.814  -2.509   0.017  0.00  0.00    +0.000 C 
ATOM      2  O   UNL     1       0.201  -2.528   1.088  0.00  0.00    +0.000 OA
ENDROOT
BRANCH   1   7
ATOM      3  C   UNL     1      -2.073  -1.727  -2.290  0.00  0.00    +0.000 A 
ATOM      4  C   UNL     1      -1.546  -2.025  -3.545  0.00  0.00    +0.000 A 
ATOM      5  C   UNL     1      -0.237  -2.492  -3.651  0.00  0.00    +0.000 A 
ATOM      6  C   UNL     1       0.543  -2.656  -2.506  0.00  0.00    +0.000 A 
ATOM      7  C   UNL     1       0.034  -2.354  -1.243  0.00  0.00    +0.000 A 
ATOM      8  C   UNL     1      -1.290  -1.893  -1.145  0.00  0.00    +0.000 A 
ATOM      9  F   UNL     1       1.784  -3.128  -2.668  0.00  0.00    +0.000 F 
ENDBRANCH   1   7
BRANCH   1  10
ATOM     10  C   UNL     1       2.326  -2.622  -0.010  0.00  0.00    +0.000 C 
BRANCH  10  11
ATOM     11  C   UNL     1       2.844  -4.039   0.010  0.00  0.00    +0.000 A 
ATOM     12  C   UNL     1       3.914  -4.404  -0.818  0.00  0.00    +0.000 A 
ATOM     13  C   UNL     1       4.438  -5.691  -0.810  0.00  0.00    +0.000 A 
ATOM     14  C   UNL     1       3.893  -6.630   0.052  0.00  0.00    +0.000 A 
ATOM     15  C   UNL     1       2.844  -6.298   0.903  0.00  0.00    +0.000 A 
ATOM     16  C   UNL     1       2.324  -5.002   0.889  0.00  0.00    +0.000 A 
ATOM     17  F   UNL     1       4.389  -7.874   0.072  0.00  0.00    +0.000 F 
ATOM     18  F   UNL     1       4.460  -3.496  -1.640  0.00  0.00    +0.000 F 
ENDBRANCH  10  11
ENDBRANCH   1  10
TORSDOF 3
