REMARK  Name = *****
REMARK  2 active torsions:
REMARK  status: ('A' for Active; 'I' for Inactive)
REMARK    1  A    between atoms: C_6  and  C_7
REMARK    2  A    between atoms: C_8  and  C_9
REMARK                            x       y       z     vdW  Elec       q    Type
REMARK                         _______ _______ _______ _____ _____    ______ ____
ROOT
ATOM      1  C   UNL     1       5.638   1.009  -0.022  0.00  0.00    +0.000 A 
ATOM      2  C   UNL     1       6.336   2.078  -0.601  0.00  0.00    +0.000 A 
ATOM      3  C   UNL     1       7.731   2.117  -0.619  0.00  0.00    +0.000 A 
ATOM      4  C   UNL     1       8.471   1.089  -0.047  0.00  0.00    +0.000 A 
ATOM      5  C   UNL     1       7.797   0.027   0.549  0.00  0.00    +0.000 A 
ATOM      6  C   UNL     1       6.400  -0.008   0.567  0.00  0.00    +0.000 A 
ATOM      7  F   UNL     1       5.802  -1.042   1.179  0.00  0.00    +0.000 F 
ATOM      8  F   UNL     1       8.474  -0.979   1.123  0.00  0.00    +0.000 F 
ATOM      9  I   UNL     1      10.549   1.141  -0.071  0.00  0.00    +0.000 I 
ATOM     10  F   UNL     1       8.341   3.165  -1.195  0.00  0.00    +0.000 F 
ATOM     11  F   UNL     1       5.658   3.095  -1.158  0.00  0.00    +0.000 F 
ENDROOT
BRANCH   1  13
ATOM     12  C   UNL     1       3.364  -0.035   0.004  0.00  0.00    +0.000 C 
ATOM     13  C   UNL     1       4.163   1.045  -0.015  0.00  0.00    +0.000 C 
BRANCH  12  19
ATOM     14  C   UNL     1       1.180   1.020   0.666  0.00  0.00    +0.000 A 
ATOM     15  C   UNL     1      -0.216   1.016   0.639  0.00  0.00    +0.000 A 
ATOM     16  N   UNL     1      -0.923   0.042  -0.042  0.00  0.00    +0.000 N 
ATOM     17  C   UNL     1      -0.212  -0.944  -0.700  0.00  0.00    +0.000 A 
ATOM     18  C   UNL     1       1.184  -0.966  -0.690  0.00  0.00    +0.000 A 
ATOM     19  C   UNL     1       1.895   0.031  -0.015  0.00  0.00    +0.000 A 
ATOM     20  O   UNL     1      -2.189   0.051  -0.058  0.00  0.00    +0.000 OA
ENDBRANCH  12  19
ENDBRANCH   1  13
TORSDOF 2
