REMARK  Name = *****
REMARK  4 active torsions:
REMARK  status: ('A' for Active; 'I' for Inactive)
REMARK    1  A    between atoms: C_1  and  C_2
REMARK    2  A    between atoms: C_5  and  S_8
REMARK    3  A    between atoms: S_8  and  O_10
REMARK    4  A    between atoms: O_10  and  C_11
REMARK                            x       y       z     vdW  Elec       q    Type
REMARK                         _______ _______ _______ _____ _____    ______ ____
ROOT
ATOM      1  S   UNL     1      -3.643  -0.376   0.387  0.00  0.00    +0.000 S 
ATOM      2  O   UNL     1      -4.033  -0.102   1.810  0.00  0.00    +0.000 OA
ENDROOT
BRANCH   1   7
ATOM      3  C   UNL     1       2.285   1.091  -0.003  0.00  0.00    +0.000 C 
ATOM      4  C   UNL     1       0.830   0.733   0.081  0.00  0.00    +0.000 A 
ATOM      5  C   UNL     1       0.281  -0.254  -0.746  0.00  0.00    +0.000 A 
ATOM      6  C   UNL     1      -1.075  -0.580  -0.655  0.00  0.00    +0.000 A 
ATOM      7  C   UNL     1      -1.897   0.077   0.267  0.00  0.00    +0.000 A 
ATOM      8  C   UNL     1      -1.351   1.065   1.092  0.00  0.00    +0.000 A 
ATOM      9  C   UNL     1       0.003   1.393   0.998  0.00  0.00    +0.000 A 
ENDBRANCH   1   7
BRANCH   1  10
ATOM     10  O   UNL     1      -4.111   0.898  -0.486  0.00  0.00    +0.000 OA
BRANCH  10  11
ATOM     11  C   UNL     1      -5.499   1.187  -0.444  0.00  0.00    +0.000 C 
ATOM     12  C   UNL     1      -6.279   0.405  -1.496  0.00  0.00    +0.000 C 
ATOM     13  C   UNL     1      -7.539   1.231  -1.732  0.00  0.00    +0.000 C 
ATOM     14  C   UNL     1      -7.211   2.651  -1.265  0.00  0.00    +0.000 C 
ATOM     15  C   UNL     1      -5.739   2.628  -0.880  0.00  0.00    +0.000 C 
ENDBRANCH  10  11
ENDBRANCH   1  10
TORSDOF 3
