REMARK  Name = *****
REMARK  3 active torsions:
REMARK  status: ('A' for Active; 'I' for Inactive)
REMARK    1  A    between atoms: C_4  and  C_6
REMARK    2  A    between atoms: C_6  and  O_8
REMARK    3  A    between atoms: O_8  and  C_9
REMARK                            x       y       z     vdW  Elec       q    Type
REMARK                         _______ _______ _______ _____ _____    ______ ____
ROOT
ATOM      1  O   UNL     1       0.736  -3.740  -0.827  0.00  0.00    +0.000 OA
ENDROOT
BRANCH   1   2
ATOM      2  C   UNL     1       0.483  -5.087  -0.492  0.00  0.00    +0.000 A 
ATOM      3  C   UNL     1      -0.157  -5.906  -1.419  0.00  0.00    +0.000 A 
ATOM      4  C   UNL     1      -0.367  -7.248  -1.100  0.00  0.00    +0.000 A 
ATOM      5  C   UNL     1       0.079  -7.747   0.126  0.00  0.00    +0.000 A 
ATOM      6  C   UNL     1       0.740  -6.919   1.037  0.00  0.00    +0.000 A 
ATOM      7  C   UNL     1       0.953  -5.577   0.725  0.00  0.00    +0.000 A 
ATOM      8 CL   UNL     1      -0.179  -9.404   0.515  0.00  0.00    +0.000 Cl
ENDBRANCH   1   2
BRANCH   1   9
ATOM      9  C   UNL     1      -0.160  -2.694  -0.567  0.00  0.00    +0.000 C 
ATOM     10  S   UNL     1      -1.633  -2.900   0.191  0.00  0.00    +0.000 S 
BRANCH   9  14
ATOM     11  C   UNL     1       0.509   0.890  -1.522  0.00  0.00    +0.000 A 
ATOM     12  C   UNL     1       1.713   0.423  -1.990  0.00  0.00    +0.000 A 
ATOM     13  S   UNL     1       1.877  -1.260  -1.762  0.00  0.00    +0.000 S 
ATOM     14  C   UNL     1       0.325  -1.400  -1.024  0.00  0.00    +0.000 A 
ATOM     15  C   UNL     1      -0.287  -0.155  -0.967  0.00  0.00    +0.000 A 
ENDBRANCH   9  14
ENDBRANCH   1   9
TORSDOF 3
