REMARK  Name = *****
REMARK  3 active torsions:
REMARK  status: ('A' for Active; 'I' for Inactive)
REMARK    1  A    between atoms: C_4  and  S_7
REMARK    2  A    between atoms: S_7  and  N_9
REMARK    3  A    between atoms: N_9  and  C_10
REMARK                            x       y       z     vdW  Elec       q    Type
REMARK                         _______ _______ _______ _____ _____    ______ ____
ROOT
ATOM      1  N   UNL     1      -3.905  -0.645  -0.145  0.00  0.00    +0.000 N 
ATOM      2  H   UNL     1      -3.322  -1.437  -0.114  0.00  0.00    +0.000 HD
ENDROOT
BRANCH   1   3
ATOM      3  C   UNL     1      -5.275  -0.852  -0.399  0.00  0.00    +0.000 A 
ATOM      4  C   UNL     1      -6.171   0.172  -0.741  0.00  0.00    +0.000 A 
ATOM      5  C   UNL     1      -7.514  -0.105  -1.017  0.00  0.00    +0.000 A 
ATOM      6  C   UNL     1      -7.969  -1.415  -0.969  0.00  0.00    +0.000 A 
ATOM      7  C   UNL     1      -7.104  -2.453  -0.659  0.00  0.00    +0.000 A 
ATOM      8  C   UNL     1      -5.762  -2.172  -0.385  0.00  0.00    +0.000 A 
ATOM      9  F   UNL     1      -9.255  -1.681  -1.234  0.00  0.00    +0.000 F 
ENDBRANCH   1   3
BRANCH   1  10
ATOM     10  S   UNL     1      -3.198   0.844   0.107  0.00  0.00    +0.000 S 
ATOM     11  O   UNL     1      -3.340   1.704  -1.112  0.00  0.00    +0.000 OA
BRANCH  10  15
ATOM     12  C   UNL     1       1.074  -0.873   0.090  0.00  0.00    +0.000 A 
ATOM     13  C   UNL     1       0.540  -0.335  -1.081  0.00  0.00    +0.000 A 
ATOM     14  C   UNL     1      -0.754   0.190  -1.081  0.00  0.00    +0.000 A 
ATOM     15  C   UNL     1      -1.519   0.177   0.090  0.00  0.00    +0.000 A 
ATOM     16  C   UNL     1      -0.975  -0.360   1.264  0.00  0.00    +0.000 A 
ATOM     17  C   UNL     1       0.319  -0.885   1.262  0.00  0.00    +0.000 A 
ENDBRANCH  10  15
ENDBRANCH   1  10
TORSDOF 3
