REMARK  Name = *****
REMARK  4 active torsions:
REMARK  status: ('A' for Active; 'I' for Inactive)
REMARK    1  A    between atoms: C_4  and  C_7
REMARK    2  A    between atoms: C_7  and  S_8
REMARK    3  A    between atoms: S_8  and  C_9
REMARK    4  A    between atoms: C_14  and  C_15
REMARK                            x       y       z     vdW  Elec       q    Type
REMARK                         _______ _______ _______ _____ _____    ______ ____
ROOT
ATOM      1  C   UNL     1      -5.365  -0.611  -0.621  0.00  0.00    +0.000 A 
ATOM      2  C   UNL     1      -6.234  -0.910   0.446  0.00  0.00    +0.000 A 
ATOM      3  C   UNL     1      -7.585  -0.561   0.400  0.00  0.00    +0.000 A 
ATOM      4  C   UNL     1      -8.092   0.083  -0.722  0.00  0.00    +0.000 A 
ATOM      5  C   UNL     1      -7.244   0.374  -1.786  0.00  0.00    +0.000 A 
ATOM      6  C   UNL     1      -5.886   0.041  -1.751  0.00  0.00    +0.000 A 
ATOM      7  F   UNL     1      -7.765   0.998  -2.854  0.00  0.00    +0.000 F 
ENDROOT
BRANCH   6   8
ATOM      8  C   UNL     1      -5.105   0.418  -2.951  0.00  0.00    +0.000 C 
ATOM      9  O   UNL     1      -3.888   0.538  -2.972  0.00  0.00    +0.000 OA
ENDBRANCH   6   8
BRANCH   1  10
ATOM     10  S   UNL     1      -3.685  -1.196  -0.443  0.00  0.00    +0.000 S 
BRANCH  10  11
ATOM     11  C   UNL     1      -2.892   0.357   0.091  0.00  0.00    +0.000 C 
BRANCH  11  15
ATOM     12  C   UNL     1       1.386  -0.101   0.382  0.00  0.00    +0.000 A 
ATOM     13  C   UNL     1       0.797   0.195  -0.845  0.00  0.00    +0.000 A 
ATOM     14  C   UNL     1      -0.588   0.344  -0.937  0.00  0.00    +0.000 A 
ATOM     15  C   UNL     1      -1.396   0.203   0.201  0.00  0.00    +0.000 A 
ATOM     16  C   UNL     1      -0.793  -0.105   1.429  0.00  0.00    +0.000 A 
ATOM     17  C   UNL     1       0.593  -0.253   1.518  0.00  0.00    +0.000 A 
ENDBRANCH  11  15
ENDBRANCH  10  11
ENDBRANCH   1  10
TORSDOF 4
