REMARK  Name = *****
REMARK  1 active torsions:
REMARK  status: ('A' for Active; 'I' for Inactive)
REMARK    1  A    between atoms: C_6  and  C_11
REMARK                            x       y       z     vdW  Elec       q    Type
REMARK                         _______ _______ _______ _____ _____    ______ ____
ROOT
ATOM      1  C   UNL     1      -1.685   0.439  -0.122  0.00  0.00    +0.000 C 
ATOM      2  C   UNL     1      -0.742   1.635  -0.228  0.00  0.00    +0.000 C 
ATOM      3  C   UNL     1       0.503   1.562   0.656  0.00  0.00    +0.000 C 
ATOM      4  C   UNL     1       1.465   0.435   0.270  0.00  0.00    +0.000 C 
ATOM      5  C   UNL     1       2.787   0.591   0.984  0.00  0.00    +0.000 C 
ATOM      6  C   UNL     1       3.045  -0.479   1.764  0.00  0.00    +0.000 C 
ATOM      7  C   UNL     1       1.939  -1.410   1.610  0.00  0.00    +0.000 C 
ATOM      8  C   UNL     1       1.025  -0.921   0.755  0.00  0.00    +0.000 C 
ATOM      9  C   UNL     1      -0.224  -1.615   0.335  0.00  0.00    +0.000 C 
ATOM     10  C   UNL     1      -1.104  -0.866  -0.666  0.00  0.00    +0.000 C 
ENDROOT
BRANCH   6  11
ATOM     11  C   UNL     1       4.251  -0.652   2.590  0.00  0.00    +0.000 A 
ATOM     12  C   UNL     1       4.772  -1.934   2.826  0.00  0.00    +0.000 A 
ATOM     13  C   UNL     1       5.911  -2.113   3.616  0.00  0.00    +0.000 A 
ATOM     14  C   UNL     1       6.550  -1.011   4.180  0.00  0.00    +0.000 A 
ATOM     15  C   UNL     1       6.048   0.268   3.956  0.00  0.00    +0.000 A 
ATOM     16  C   UNL     1       4.905   0.445   3.170  0.00  0.00    +0.000 A 
ENDBRANCH   6  11
TORSDOF 1
