REMARK  Name = *****
REMARK  1 active torsions:
REMARK  status: ('A' for Active; 'I' for Inactive)
REMARK    1  A    between atoms: C_7  and  C_10
REMARK                            x       y       z     vdW  Elec       q    Type
REMARK                         _______ _______ _______ _____ _____    ______ ____
ROOT
ATOM      1  C   UNL     1      -3.131   0.573   0.497  0.00  0.00    +0.000 C 
ATOM      2  C   UNL     1      -2.788  -0.393  -0.626  0.00  0.00    +0.000 C 
ATOM      3  S   UNL     1      -1.492  -1.576  -0.171  0.00  0.00    +0.000 S 
ATOM      4  C   UNL     1      -0.084  -0.440   0.187  0.00  0.00    +0.000 C 
ATOM      5  C   UNL     1       1.080  -1.331   0.680  0.00  0.00    +0.000 C 
ATOM      6  C   UNL     1       2.425  -0.597   0.815  0.00  0.00    +0.000 C 
ATOM      7  C   UNL     1       2.840   0.202  -0.438  0.00  0.00    +0.000 C 
ATOM      8  C   UNL     1       1.666   1.094  -0.892  0.00  0.00    +0.000 C 
ATOM      9  C   UNL     1       0.362   0.312  -1.082  0.00  0.00    +0.000 C 
ATOM     10  S   UNL     1      -0.560   0.687   1.571  0.00  0.00    +0.000 S 
ATOM     11  C   UNL     1      -2.003   1.526   0.862  0.00  0.00    +0.000 C 
ENDROOT
BRANCH   7  12
ATOM     12  C   UNL     1       3.449  -0.589  -1.596  0.00  0.00    +0.000 A 
ATOM     13  C   UNL     1       3.562  -1.987  -1.614  0.00  0.00    +0.000 A 
ATOM     14  C   UNL     1       4.142  -2.653  -2.699  0.00  0.00    +0.000 A 
ATOM     15  C   UNL     1       4.635  -1.934  -3.783  0.00  0.00    +0.000 A 
ATOM     16  C   UNL     1       4.560  -0.546  -3.777  0.00  0.00    +0.000 A 
ATOM     17  C   UNL     1       3.980   0.117  -2.693  0.00  0.00    +0.000 A 
ENDBRANCH   7  12
TORSDOF 1
