REMARK  Name = *****
REMARK  3 active torsions:
REMARK  status: ('A' for Active; 'I' for Inactive)
REMARK    1  A    between atoms: C_4  and  C_7
REMARK    2  A    between atoms: C_8  and  C_9
REMARK    3  A    between atoms: C_9  and  C_11
REMARK                            x       y       z     vdW  Elec       q    Type
REMARK                         _______ _______ _______ _____ _____    ______ ____
ROOT
ATOM      1  C   UNL     1      -5.105  -0.289  -0.789  0.00  0.00    +0.000 C 
ATOM      2  O   UNL     1      -5.576   0.793  -0.453  0.00  0.00    +0.000 OA
ENDROOT
BRANCH   1   3
ATOM      3  C   UNL     1      -5.998  -1.351  -1.325  0.00  0.00    +0.000 A 
ATOM      4  C   UNL     1      -5.548  -2.329  -2.217  0.00  0.00    +0.000 A 
ATOM      5  C   UNL     1      -6.442  -3.285  -2.688  0.00  0.00    +0.000 A 
ATOM      6  C   UNL     1      -7.777  -3.284  -2.297  0.00  0.00    +0.000 A 
ATOM      7  C   UNL     1      -8.235  -2.302  -1.422  0.00  0.00    +0.000 A 
ATOM      8  C   UNL     1      -7.348  -1.334  -0.941  0.00  0.00    +0.000 A 
ATOM      9  F   UNL     1      -6.008  -4.223  -3.541  0.00  0.00    +0.000 F 
ENDBRANCH   1   3
BRANCH   1  11
ATOM     10  C   UNL     1      -2.798   0.385  -0.333  0.00  0.00    +0.000 C 
ATOM     11  C   UNL     1      -3.657  -0.600  -0.639  0.00  0.00    +0.000 C 
BRANCH  10  15
ATOM     12  C   UNL     1       1.408  -0.092   0.276  0.00  0.00    +0.000 A 
ATOM     13  C   UNL     1       0.769  -0.847  -0.705  0.00  0.00    +0.000 A 
ATOM     14  C   UNL     1      -0.606  -0.707  -0.912  0.00  0.00    +0.000 A 
ATOM     15  C   UNL     1      -1.357   0.183  -0.132  0.00  0.00    +0.000 A 
ATOM     16  C   UNL     1      -0.699   0.950   0.838  0.00  0.00    +0.000 A 
ATOM     17  C   UNL     1       0.676   0.809   1.046  0.00  0.00    +0.000 A 
ENDBRANCH  10  15
ENDBRANCH   1  11
TORSDOF 3
