REMARK  Name = *****
REMARK  3 active torsions:
REMARK  status: ('A' for Active; 'I' for Inactive)
REMARK    1  A    between atoms: C_4  and  C_6
REMARK    2  A    between atoms: C_7  and  C_8
REMARK    3  A    between atoms: C_11  and  C_14
REMARK                            x       y       z     vdW  Elec       q    Type
REMARK                         _______ _______ _______ _____ _____    ______ ____
ROOT
ATOM      1  C   UNL     1       0.521  -5.112  -0.098  0.00  0.00    +0.000 A 
ATOM      2  C   UNL     1      -0.579  -5.631  -0.793  0.00  0.00    +0.000 A 
ATOM      3  C   UNL     1      -0.833  -7.007  -0.800  0.00  0.00    +0.000 A 
ATOM      4  C   UNL     1       0.020  -7.881  -0.120  0.00  0.00    +0.000 A 
ATOM      5  C   UNL     1       1.129  -7.373   0.562  0.00  0.00    +0.000 A 
ATOM      6  C   UNL     1       1.380  -5.997   0.567  0.00  0.00    +0.000 A 
ENDROOT
BRANCH   1   8
ATOM      7  C   UNL     1      -0.091  -2.715   0.031  0.00  0.00    +0.000 C 
ATOM      8  C   UNL     1       0.838  -3.676  -0.095  0.00  0.00    +0.000 C 
BRANCH   7  12
ATOM      9  C   UNL     1       1.330   0.754  -0.021  0.00  0.00    +0.000 A 
ATOM     10  C   UNL     1       0.024   1.151   0.134  0.00  0.00    +0.000 A 
ATOM     11  S   UNL     1      -1.044  -0.178   0.212  0.00  0.00    +0.000 S 
ATOM     12  C   UNL     1       0.237  -1.326   0.037  0.00  0.00    +0.000 A 
ATOM     13  C   UNL     1       1.451  -0.666  -0.077  0.00  0.00    +0.000 A 
ENDBRANCH   7  12
ENDBRANCH   1   8
BRANCH   4  14
ATOM     14  C   UNL     1      -0.238  -9.291  -0.127  0.00  0.00    +0.000 C 
ATOM     15  N   UNL     1      -0.446 -10.433  -0.133  0.00  0.00    +0.000 NA
ENDBRANCH   4  14
TORSDOF 3
