REMARK  Name = *****
REMARK  6 active torsions:
REMARK  status: ('A' for Active; 'I' for Inactive)
REMARK    1  A    between atoms: C_1  and  C_2
REMARK    2  A    between atoms: C_3  and  C_9
REMARK    3  A    between atoms: C_4  and  C_8
REMARK    4  A    between atoms: C_9  and  O_11
REMARK    5  A    between atoms: O_11  and  C_12
REMARK    6  A    between atoms: C_12  and  C_13
REMARK                            x       y       z     vdW  Elec       q    Type
REMARK                         _______ _______ _______ _____ _____    ______ ____
ROOT
ATOM      1  C   UNL     1      -0.286   3.049  -0.969  0.00  0.00    +0.000 C 
ATOM      2  O   UNL     1      -1.027   3.841  -1.523  0.00  0.00    +0.000 OA
ENDROOT
BRANCH   1   5
ATOM      3  C   UNL     1       0.457   2.025  -3.597  0.00  0.00    +0.000 C 
ATOM      4  C   UNL     1       0.071   1.101  -2.476  0.00  0.00    +0.000 A 
ATOM      5  C   UNL     1      -0.294   1.589  -1.203  0.00  0.00    +0.000 A 
ATOM      6  C   UNL     1      -0.682   0.709  -0.170  0.00  0.00    +0.000 A 
ATOM      7  C   UNL     1      -0.667  -0.670  -0.420  0.00  0.00    +0.000 A 
ATOM      8  C   UNL     1      -0.306  -1.161  -1.674  0.00  0.00    +0.000 A 
ATOM      9  C   UNL     1       0.053  -0.283  -2.697  0.00  0.00    +0.000 A 
ATOM     10  C   UNL     1      -1.083   1.204   1.192  0.00  0.00    +0.000 C 
ENDBRANCH   1   5
BRANCH   1  11
ATOM     11  O   UNL     1       0.709   3.331  -0.092  0.00  0.00    +0.000 OA
BRANCH  11  12
ATOM     12  C   UNL     1       0.848   4.726   0.203  0.00  0.00    +0.000 C 
BRANCH  12  13
ATOM     13  C   UNL     1       2.062   4.926   1.121  0.00  0.00    +0.000 C 
ATOM     14  C   UNL     1       1.893   4.172   2.451  0.00  0.00    +0.000 C 
ATOM     15  C   UNL     1       3.070   4.417   3.394  0.00  0.00    +0.000 C 
ATOM     16  C   UNL     1       3.306   5.905   3.628  0.00  0.00    +0.000 C 
ATOM     17  C   UNL     1       3.480   6.658   2.313  0.00  0.00    +0.000 C 
ATOM     18  C   UNL     1       2.303   6.421   1.369  0.00  0.00    +0.000 C 
ENDBRANCH  12  13
ENDBRANCH  11  12
ENDBRANCH   1  11
TORSDOF 4
