REMARK  Name = *****
REMARK  5 active torsions:
REMARK  status: ('A' for Active; 'I' for Inactive)
REMARK    1  A    between atoms: C_1  and  C_2
REMARK    2  A    between atoms: C_2  and  O_3
REMARK    3  A    between atoms: O_3  and  C_4
REMARK    4  A    between atoms: C_6  and  C_14
REMARK    5  A    between atoms: C_17  and  C_20
REMARK                            x       y       z     vdW  Elec       q    Type
REMARK                         _______ _______ _______ _____ _____    ______ ____
ROOT
ATOM      1  C   UNL     1       4.362   0.477  -1.647  0.00  0.00    +0.000 A 
ATOM      2  N   UNL     1       4.805   1.649  -2.157  0.00  0.00    +0.000 NA
ATOM      3  C   UNL     1       6.142   1.838  -2.251  0.00  0.00    +0.000 A 
ATOM      4  C   UNL     1       7.050   0.871  -1.823  0.00  0.00    +0.000 A 
ATOM      5  C   UNL     1       6.585  -0.339  -1.290  0.00  0.00    +0.000 A 
ATOM      6  C   UNL     1       7.474  -1.334  -0.849  0.00  0.00    +0.000 A 
ATOM      7  C   UNL     1       6.998  -2.535  -0.319  0.00  0.00    +0.000 A 
ATOM      8  C   UNL     1       5.629  -2.758  -0.221  0.00  0.00    +0.000 A 
ATOM      9  C   UNL     1       4.735  -1.778  -0.654  0.00  0.00    +0.000 A 
ATOM     10  C   UNL     1       5.198  -0.556  -1.193  0.00  0.00    +0.000 A 
ENDROOT
BRANCH   3  11
ATOM     11  C   UNL     1       6.565   3.136  -2.818  0.00  0.00    +0.000 A 
ATOM     12  C   UNL     1       5.817   4.301  -2.576  0.00  0.00    +0.000 A 
ATOM     13  C   UNL     1       6.202   5.541  -3.098  0.00  0.00    +0.000 A 
ATOM     14  C   UNL     1       7.353   5.651  -3.881  0.00  0.00    +0.000 A 
ATOM     15  C   UNL     1       8.100   4.501  -4.147  0.00  0.00    +0.000 A 
ATOM     16  C   UNL     1       7.711   3.262  -3.622  0.00  0.00    +0.000 A 
ATOM     17  C   UNL     1       7.768   6.969  -4.464  0.00  0.00    +0.000 C 
ENDBRANCH   3  11
BRANCH   1  18
ATOM     18  O   UNL     1       2.995   0.272  -1.553  0.00  0.00    +0.000 OA
BRANCH  18  20
ATOM     19  C   UNL     1       0.754   0.956  -1.981  0.00  0.00    +0.000 C 
ATOM     20  C   UNL     1       2.219   1.328  -2.121  0.00  0.00    +0.000 C 
ENDBRANCH  18  20
ENDBRANCH   1  18
TORSDOF 3
