REMARK  Name = *****
REMARK  7 active torsions:
REMARK  status: ('A' for Active; 'I' for Inactive)
REMARK    1  A    between atoms: C_1  and  C_2
REMARK    2  A    between atoms: C_4  and  C_19
REMARK    3  A    between atoms: C_5  and  N_9
REMARK    4  A    between atoms: C_6  and  C_8
REMARK    5  A    between atoms: C_10  and  C_11
REMARK    6  A    between atoms: C_10  and  O_17
REMARK    7  A    between atoms: O_17  and  C_18
REMARK                            x       y       z     vdW  Elec       q    Type
REMARK                         _______ _______ _______ _____ _____    ______ ____
ROOT
ATOM      1  N   UNL     1      -1.958  -1.779  -0.546  0.00  0.00    +0.000 NA
ATOM      2  C   UNL     1      -2.861  -1.989   0.359  0.00  0.00    +0.000 C 
ENDROOT
BRANCH   1   7
ATOM      3  C   UNL     1       1.736   2.576  -0.105  0.00  0.00    +0.000 C 
ATOM      4  C   UNL     1       0.762   1.440  -0.208  0.00  0.00    +0.000 A 
ATOM      5  C   UNL     1       1.179   0.124   0.006  0.00  0.00    +0.000 A 
ATOM      6  C   UNL     1       0.277  -0.945  -0.111  0.00  0.00    +0.000 A 
ATOM      7  C   UNL     1      -1.071  -0.694  -0.441  0.00  0.00    +0.000 A 
ATOM      8  C   UNL     1      -1.477   0.622  -0.738  0.00  0.00    +0.000 A 
ATOM      9  C   UNL     1      -0.560   1.678  -0.594  0.00  0.00    +0.000 A 
ATOM     10  C   UNL     1      -2.878   0.943  -1.178  0.00  0.00    +0.000 C 
ATOM     11  C   UNL     1       0.764  -2.354   0.096  0.00  0.00    +0.000 C 
ENDBRANCH   1   7
BRANCH   2  12
ATOM     12  C   UNL     1      -3.153  -1.265   1.616  0.00  0.00    +0.000 A 
ATOM     13  C   UNL     1      -4.457  -0.814   1.859  0.00  0.00    +0.000 A 
ATOM     14  C   UNL     1      -4.751  -0.126   3.038  0.00  0.00    +0.000 A 
ATOM     15  C   UNL     1      -3.746   0.107   3.976  0.00  0.00    +0.000 A 
ATOM     16  C   UNL     1      -2.449  -0.350   3.741  0.00  0.00    +0.000 A 
ATOM     17  C   UNL     1      -2.151  -1.040   2.564  0.00  0.00    +0.000 A 
ENDBRANCH   2  12
BRANCH   2  18
ATOM     18  O   UNL     1      -3.745  -3.020   0.273  0.00  0.00    +0.000 OA
ATOM     19  C   UNL     1      -3.615  -3.864  -0.876  0.00  0.00    +0.000 C 
ENDBRANCH   2  18
TORSDOF 3
