REMARK  Name = *****
REMARK  2 active torsions:
REMARK  status: ('A' for Active; 'I' for Inactive)
REMARK    1  A    between atoms: C_4  and  C_8
REMARK    2  A    between atoms: C_9  and  C_10
REMARK                            x       y       z     vdW  Elec       q    Type
REMARK                         _______ _______ _______ _____ _____    ______ ____
ROOT
ATOM      1  C   UNL     1       0.280   0.879   2.056  0.00  0.00    +0.000 C 
ATOM      2  C   UNL     1       0.584   0.621   3.190  0.00  0.00    +0.000 C 
ENDROOT
BRANCH   1   6
ATOM      3  C   UNL     1       0.748  -1.637  -0.233  0.00  0.00    +0.000 C 
ATOM      4  C   UNL     1       1.704  -0.451  -0.309  0.00  0.00    +0.000 C 
ATOM      5  C   UNL     1       1.070   0.941  -0.313  0.00  0.00    +0.000 C 
ATOM      6  C   UNL     1      -0.089   1.183   0.664  0.00  0.00    +0.000 C 
ATOM      7  C   UNL     1      -1.381   0.487   0.314  0.00  0.00    +0.000 C 
ATOM      8  C   UNL     1      -1.570  -0.596  -0.458  0.00  0.00    +0.000 C 
ATOM      9  C   UNL     1      -0.524  -1.489  -1.062  0.00  0.00    +0.000 C 
ENDBRANCH   1   6
BRANCH   2  10
ATOM     10  C   UNL     1       0.948   0.297   4.534  0.00  0.00    +0.000 A 
ATOM     11  C   UNL     1       1.484   1.277   5.372  0.00  0.00    +0.000 A 
ATOM     12  C   UNL     1       1.840   0.957   6.684  0.00  0.00    +0.000 A 
ATOM     13  C   UNL     1       1.659  -0.343   7.158  0.00  0.00    +0.000 A 
ATOM     14  C   UNL     1       1.124  -1.323   6.322  0.00  0.00    +0.000 A 
ATOM     15  C   UNL     1       0.768  -1.004   5.011  0.00  0.00    +0.000 A 
ENDBRANCH   2  10
TORSDOF 2
