REMARK  Name = *****
REMARK  4 active torsions:
REMARK  status: ('A' for Active; 'I' for Inactive)
REMARK    1  A    between atoms: C_1  and  C_2
REMARK    2  A    between atoms: C_4  and  C_8
REMARK    3  A    between atoms: C_8  and  P_9
REMARK    4  A    between atoms: P_9  and  C_10
REMARK                            x       y       z     vdW  Elec       q    Type
REMARK                         _______ _______ _______ _____ _____    ______ ____
ROOT
ATOM      1  C   UNL     1      -1.664   2.734   0.258  0.00  0.00    +0.000 C 
ENDROOT
BRANCH   1   5
ATOM      2  C   UNL     1       0.750  -0.863   2.850  0.00  0.00    +0.000 C 
ATOM      3  C   UNL     1       0.254  -0.318   1.543  0.00  0.00    +0.000 A 
ATOM      4  C   UNL     1      -0.451   0.893   1.504  0.00  0.00    +0.000 A 
ATOM      5  C   UNL     1      -0.884   1.443   0.285  0.00  0.00    +0.000 A 
ATOM      6  C   UNL     1      -0.604   0.746  -0.903  0.00  0.00    +0.000 A 
ATOM      7  C   UNL     1       0.108  -0.453  -0.872  0.00  0.00    +0.000 A 
ATOM      8  C   UNL     1       0.542  -0.979   0.345  0.00  0.00    +0.000 A 
ENDBRANCH   1   5
BRANCH   1   9
ATOM      9  P   UNL     1      -0.413   4.031  -0.101  0.00  0.00    +0.000 P 
ATOM     10 CL   UNL     1       0.396   4.349   1.820  0.00  0.00    +0.000 Cl
BRANCH   9  11
ATOM     11  C   UNL     1      -1.479   5.500  -0.360  0.00  0.00    +0.000 A 
ATOM     12  C   UNL     1      -1.271   6.715   0.311  0.00  0.00    +0.000 A 
ATOM     13  C   UNL     1      -2.091   7.823   0.072  0.00  0.00    +0.000 A 
ATOM     14  C   UNL     1      -3.125   7.742  -0.855  0.00  0.00    +0.000 A 
ATOM     15  C   UNL     1      -3.333   6.557  -1.552  0.00  0.00    +0.000 A 
ATOM     16  C   UNL     1      -2.513   5.450  -1.313  0.00  0.00    +0.000 A 
ENDBRANCH   9  11
ENDBRANCH   1   9
TORSDOF 3
