REMARK  Name = *****
REMARK  3 active torsions:
REMARK  status: ('A' for Active; 'I' for Inactive)
REMARK    1  A    between atoms: C_4  and  C_7
REMARK    2  A    between atoms: C_7  and  O_8
REMARK    3  A    between atoms: O_8  and  C_9
REMARK                            x       y       z     vdW  Elec       q    Type
REMARK                         _______ _______ _______ _____ _____    ______ ____
ROOT
ATOM      1  O   UNL     1      -3.584  -0.707  -0.089  0.00  0.00    +0.000 OA
ENDROOT
BRANCH   1   2
ATOM      2  C   UNL     1      -4.942  -0.670  -0.247  0.00  0.00    +0.000 A 
ATOM      3  C   UNL     1      -5.728   0.439  -0.566  0.00  0.00    +0.000 A 
ATOM      4  C   UNL     1      -7.109   0.306  -0.690  0.00  0.00    +0.000 A 
ATOM      5  C   UNL     1      -7.731  -0.924  -0.501  0.00  0.00    +0.000 A 
ATOM      6  C   UNL     1      -6.958  -2.038  -0.182  0.00  0.00    +0.000 A 
ATOM      7  C   UNL     1      -5.572  -1.908  -0.056  0.00  0.00    +0.000 A 
ATOM      8  F   UNL     1      -7.859   1.374  -0.996  0.00  0.00    +0.000 F 
ATOM      9  F   UNL     1      -5.186   1.651  -0.758  0.00  0.00    +0.000 F 
ENDBRANCH   1   2
BRANCH   1  10
ATOM     10  C   UNL     1      -2.865   0.511  -0.291  0.00  0.00    +0.000 C 
BRANCH  10  14
ATOM     11  C   UNL     1       1.372  -0.195   0.171  0.00  0.00    +0.000 A 
ATOM     12  C   UNL     1       0.604  -1.055  -0.611  0.00  0.00    +0.000 A 
ATOM     13  C   UNL     1      -0.766  -0.833  -0.754  0.00  0.00    +0.000 A 
ATOM     14  C   UNL     1      -1.387   0.248  -0.109  0.00  0.00    +0.000 A 
ATOM     15  C   UNL     1      -0.600   1.112   0.666  0.00  0.00    +0.000 A 
ATOM     16  C   UNL     1       0.771   0.889   0.808  0.00  0.00    +0.000 A 
ENDBRANCH  10  14
ENDBRANCH   1  10
TORSDOF 3
