REMARK  Name = *****
REMARK  2 active torsions:
REMARK  status: ('A' for Active; 'I' for Inactive)
REMARK    1  A    between atoms: C_4  and  C_7
REMARK    2  A    between atoms: C_8  and  C_9
REMARK                            x       y       z     vdW  Elec       q    Type
REMARK                         _______ _______ _______ _____ _____    ______ ____
ROOT
ATOM      1  C   UNL     1      -2.813   0.414  -0.392  0.00  0.00    +0.000 C 
ATOM      2  C   UNL     1      -3.774  -0.516  -0.283  0.00  0.00    +0.000 C 
ATOM      3  F   UNL     1      -3.448  -1.781   0.071  0.00  0.00    +0.000 F 
ENDROOT
BRANCH   1   7
ATOM      4  C   UNL     1       1.380  -0.184   0.222  0.00  0.00    +0.000 A 
ATOM      5  C   UNL     1       0.636  -1.164  -0.431  0.00  0.00    +0.000 A 
ATOM      6  C   UNL     1      -0.736  -0.986  -0.630  0.00  0.00    +0.000 A 
ATOM      7  C   UNL     1      -1.380   0.168  -0.167  0.00  0.00    +0.000 A 
ATOM      8  C   UNL     1      -0.617   1.154   0.474  0.00  0.00    +0.000 A 
ATOM      9  C   UNL     1       0.754   0.976   0.673  0.00  0.00    +0.000 A 
ENDBRANCH   1   7
BRANCH   2  10
ATOM     10  C   UNL     1      -5.156  -0.234  -0.506  0.00  0.00    +0.000 A 
ATOM     11  C   UNL     1      -5.782   0.894  -1.023  0.00  0.00    +0.000 A 
ATOM     12  C   UNL     1      -7.202   0.780  -1.083  0.00  0.00    +0.000 A 
ATOM     13  C   UNL     1      -7.638  -0.435  -0.613  0.00  0.00    +0.000 A 
ATOM     14  S   UNL     1      -6.344  -1.426  -0.109  0.00  0.00    +0.000 S 
ENDBRANCH   2  10
TORSDOF 2
