REMARK  Name = *****
REMARK  4 active torsions:
REMARK  status: ('A' for Active; 'I' for Inactive)
REMARK    1  A    between atoms: C_4  and  C_8
REMARK    2  A    between atoms: C_8  and  O_9
REMARK    3  A    between atoms: O_9  and  C_10
REMARK    4  A    between atoms: C_10  and  C_12
REMARK                            x       y       z     vdW  Elec       q    Type
REMARK                         _______ _______ _______ _____ _____    ______ ____
ROOT
ATOM      1  C   UNL     1      -0.103   2.379   0.015  0.00  0.00    +0.000 C 
ENDROOT
BRANCH   1   5
ATOM      2  C   UNL     1      -0.802  -1.891   0.101  0.00  0.00    +0.000 A 
ATOM      3  C   UNL     1      -0.248  -1.279  -1.019  0.00  0.00    +0.000 A 
ATOM      4  C   UNL     1      -0.029   0.097  -1.017  0.00  0.00    +0.000 A 
ATOM      5  C   UNL     1      -0.356   0.898   0.083  0.00  0.00    +0.000 A 
ATOM      6  C   UNL     1      -0.901   0.264   1.210  0.00  0.00    +0.000 A 
ATOM      7  C   UNL     1      -1.125  -1.119   1.216  0.00  0.00    +0.000 A 
ATOM      8 CL   UNL     1      -1.305   1.140   2.644  0.00  0.00    +0.000 Cl
ATOM      9  F   UNL     1       0.526   0.650  -2.104  0.00  0.00    +0.000 F 
ENDBRANCH   1   5
BRANCH   1  10
ATOM     10  O   UNL     1      -1.321   3.117   0.188  0.00  0.00    +0.000 OA
BRANCH  10  11
ATOM     11  C   UNL     1      -2.017   3.403  -0.949  0.00  0.00    +0.000 C 
ATOM     12  O   UNL     1      -1.652   3.096  -2.076  0.00  0.00    +0.000 OA
BRANCH  11  13
ATOM     13  C   UNL     1      -3.236   4.111  -0.599  0.00  0.00    +0.000 A 
ATOM     14  C   UNL     1      -3.724   4.465   0.648  0.00  0.00    +0.000 A 
ATOM     15  C   UNL     1      -4.967   5.158   0.574  0.00  0.00    +0.000 A 
ATOM     16  C   UNL     1      -5.393   5.311  -0.725  0.00  0.00    +0.000 A 
ATOM     17  S   UNL     1      -4.300   4.623  -1.844  0.00  0.00    +0.000 S 
ENDBRANCH  11  13
ENDBRANCH  10  11
ENDBRANCH   1  10
TORSDOF 4
