REMARK  Name = *****
REMARK  1 active torsions:
REMARK  status: ('A' for Active; 'I' for Inactive)
REMARK    1  A    between atoms: C_4  and  C_7
REMARK                            x       y       z     vdW  Elec       q    Type
REMARK                         _______ _______ _______ _____ _____    ______ ____
ROOT
ATOM      1  C   UNL     1      -2.779   0.682  -0.034  0.00  0.00    +0.000 C 
ATOM      2  C   UNL     1      -3.564   0.118   0.898  0.00  0.00    +0.000 C 
ATOM      3  S   UNL     1      -5.261   0.359   1.124  0.00  0.00    +0.000 S 
ATOM      4  C   UNL     1      -5.730   0.667  -0.539  0.00  0.00    +0.000 A 
ATOM      5  C   UNL     1      -6.985   0.374  -1.026  0.00  0.00    +0.000 A 
ATOM      6  S   UNL     1      -7.152   0.809  -2.674  0.00  0.00    +0.000 S 
ATOM      7  C   UNL     1      -5.550   1.410  -2.730  0.00  0.00    +0.000 A 
ATOM      8  C   UNL     1      -4.901   1.265  -1.524  0.00  0.00    +0.000 A 
ATOM      9  S   UNL     1      -3.253   1.808  -1.261  0.00  0.00    +0.000 S 
ENDROOT
BRANCH   1  13
ATOM     10  C   UNL     1       1.385  -0.281   0.030  0.00  0.00    +0.000 A 
ATOM     11  C   UNL     1       0.488  -1.108  -0.644  0.00  0.00    +0.000 A 
ATOM     12  C   UNL     1      -0.871  -0.791  -0.671  0.00  0.00    +0.000 A 
ATOM     13  C   UNL     1      -1.342   0.362  -0.025  0.00  0.00    +0.000 A 
ATOM     14  C   UNL     1      -0.433   1.185   0.654  0.00  0.00    +0.000 A 
ATOM     15  C   UNL     1       0.926   0.865   0.679  0.00  0.00    +0.000 A 
ENDBRANCH   1  13
TORSDOF 1
