REMARK  Name = *****
REMARK  5 active torsions:
REMARK  status: ('A' for Active; 'I' for Inactive)
REMARK    1  A    between atoms: C_1  and  C_2
REMARK    2  A    between atoms: C_3  and  N_9
REMARK    3  A    between atoms: C_4  and  C_8
REMARK    4  A    between atoms: N_11  and  C_12
REMARK    5  A    between atoms: N_11  and  C_13
REMARK                            x       y       z     vdW  Elec       q    Type
REMARK                         _______ _______ _______ _____ _____    ______ ____
ROOT
ATOM      1  N   UNL     1       0.368   2.400   0.746  0.00  0.00    +0.000 NA
ATOM      2  C   UNL     1       0.923   3.217  -0.094  0.00  0.00    +0.000 C 
ATOM      3  N   UNL     1       1.129   4.569   0.091  0.00  0.00    +0.000 N 
ATOM      4  C   UNL     1       0.851   5.154   1.401  0.00  0.00    +0.000 C 
ENDROOT
BRANCH   1   7
ATOM      5  C   UNL     1       2.583   0.631   1.314  0.00  0.00    +0.000 C 
ATOM      6  C   UNL     1       1.348   0.167   0.594  0.00  0.00    +0.000 A 
ATOM      7  C   UNL     1       0.287   1.058   0.330  0.00  0.00    +0.000 A 
ATOM      8  C   UNL     1      -0.872   0.592  -0.323  0.00  0.00    +0.000 A 
ATOM      9  C   UNL     1      -0.938  -0.743  -0.748  0.00  0.00    +0.000 A 
ATOM     10  C   UNL     1       0.124  -1.613  -0.513  0.00  0.00    +0.000 A 
ATOM     11  C   UNL     1       1.259  -1.163   0.156  0.00  0.00    +0.000 A 
ATOM     12  C   UNL     1      -2.029   1.515  -0.584  0.00  0.00    +0.000 C 
ENDBRANCH   1   7
BRANCH   3  13
ATOM     13  C   UNL     1       1.785   5.385  -0.859  0.00  0.00    +0.000 A 
ATOM     14  C   UNL     1       1.620   5.164  -2.239  0.00  0.00    +0.000 A 
ATOM     15  C   UNL     1       2.265   5.958  -3.194  0.00  0.00    +0.000 A 
ATOM     16  C   UNL     1       3.095   6.997  -2.790  0.00  0.00    +0.000 A 
ATOM     17  C   UNL     1       3.276   7.243  -1.433  0.00  0.00    +0.000 A 
ATOM     18  C   UNL     1       2.627   6.447  -0.482  0.00  0.00    +0.000 A 
ENDBRANCH   3  13
TORSDOF 2
