REMARK  Name = *****
REMARK  5 active torsions:
REMARK  status: ('A' for Active; 'I' for Inactive)
REMARK    1  A    between atoms: C_1  and  C_2
REMARK    2  A    between atoms: C_5  and  O_8
REMARK    3  A    between atoms: O_8  and  S_9
REMARK    4  A    between atoms: S_9  and  C_11
REMARK    5  A    between atoms: C_14  and  C_17
REMARK                            x       y       z     vdW  Elec       q    Type
REMARK                         _______ _______ _______ _____ _____    ______ ____
ROOT
ATOM      1  S   UNL     1      -3.857   1.741  -0.590  0.00  0.00    +0.000 S 
ATOM      2  O   UNL     1      -3.644   1.999  -2.054  0.00  0.00    +0.000 OA
ENDROOT
BRANCH   1   3
ATOM      3  C   UNL     1      -5.604   1.290  -0.419  0.00  0.00    +0.000 A 
ATOM      4  C   UNL     1      -6.105   0.907   0.832  0.00  0.00    +0.000 A 
ATOM      5  C   UNL     1      -7.454   0.575   0.980  0.00  0.00    +0.000 A 
ATOM      6  C   UNL     1      -8.320   0.615  -0.119  0.00  0.00    +0.000 A 
ATOM      7  C   UNL     1      -7.822   1.020  -1.363  0.00  0.00    +0.000 A 
ATOM      8  C   UNL     1      -6.473   1.352  -1.513  0.00  0.00    +0.000 A 
ATOM      9  C   UNL     1      -9.775   0.292   0.047  0.00  0.00    +0.000 C 
ENDBRANCH   1   3
BRANCH   1  10
ATOM     10  O   UNL     1      -3.356   0.237  -0.282  0.00  0.00    +0.000 OA
BRANCH  10  15
ATOM     11  C   UNL     1       1.942  -0.332   1.650  0.00  0.00    +0.000 C 
ATOM     12  C   UNL     1       0.543  -0.143   1.141  0.00  0.00    +0.000 A 
ATOM     13  C   UNL     1      -0.554  -0.462   1.952  0.00  0.00    +0.000 A 
ATOM     14  C   UNL     1      -1.856  -0.320   1.467  0.00  0.00    +0.000 A 
ATOM     15  C   UNL     1      -2.065   0.147   0.171  0.00  0.00    +0.000 A 
ATOM     16  C   UNL     1      -0.980   0.428  -0.660  0.00  0.00    +0.000 A 
ATOM     17  C   UNL     1       0.320   0.286  -0.174  0.00  0.00    +0.000 A 
ENDBRANCH  10  15
ENDBRANCH   1  10
TORSDOF 3
