REMARK  Name = *****
REMARK  5 active torsions:
REMARK  status: ('A' for Active; 'I' for Inactive)
REMARK    1  A    between atoms: C_1  and  C_2
REMARK    2  A    between atoms: C_4  and  C_18
REMARK    3  A    between atoms: C_6  and  O_8
REMARK    4  A    between atoms: O_8  and  C_9
REMARK    5  A    between atoms: C_9  and  C_11
REMARK                            x       y       z     vdW  Elec       q    Type
REMARK                         _______ _______ _______ _____ _____    ______ ____
ROOT
ATOM      1  O   UNL     1      -0.332  -2.893  -0.833  0.00  0.00    +0.000 OA
ENDROOT
BRANCH   1   7
ATOM      2  C   UNL     1       2.610   0.817   0.618  0.00  0.00    +0.000 C 
ATOM      3  C   UNL     1       1.261   0.274   0.251  0.00  0.00    +0.000 A 
ATOM      4  C   UNL     1       0.115   1.076   0.373  0.00  0.00    +0.000 A 
ATOM      5  C   UNL     1      -1.157   0.574   0.059  0.00  0.00    +0.000 A 
ATOM      6  C   UNL     1      -1.281  -0.757  -0.352  0.00  0.00    +0.000 A 
ATOM      7  C   UNL     1      -0.142  -1.550  -0.478  0.00  0.00    +0.000 A 
ATOM      8  C   UNL     1       1.122  -1.056  -0.159  0.00  0.00    +0.000 A 
ATOM      9  C   UNL     1      -2.374   1.433   0.231  0.00  0.00    +0.000 C 
ENDBRANCH   1   7
BRANCH   1  10
ATOM     10  C   UNL     1       0.340  -3.332  -1.959  0.00  0.00    +0.000 C 
ATOM     11  O   UNL     1       1.069  -2.680  -2.690  0.00  0.00    +0.000 OA
BRANCH  10  12
ATOM     12  C   UNL     1       0.050  -4.776  -2.184  0.00  0.00    +0.000 A 
ATOM     13  C   UNL     1      -0.803  -5.513  -1.355  0.00  0.00    +0.000 A 
ATOM     14  C   UNL     1      -1.027  -6.859  -1.628  0.00  0.00    +0.000 A 
ATOM     15  C   UNL     1      -0.421  -7.488  -2.709  0.00  0.00    +0.000 A 
ATOM     16  C   UNL     1       0.429  -6.761  -3.539  0.00  0.00    +0.000 A 
ATOM     17  C   UNL     1       0.664  -5.409  -3.278  0.00  0.00    +0.000 A 
ATOM     18  F   UNL     1      -1.845  -7.561  -0.833  0.00  0.00    +0.000 F 
ENDBRANCH  10  12
ENDBRANCH   1  10
TORSDOF 3
