REMARK  Name = *****
REMARK  3 active torsions:
REMARK  status: ('A' for Active; 'I' for Inactive)
REMARK    1  A    between atoms: C_4  and  N_7
REMARK    2  A    between atoms: N_7  and  P_8
REMARK    3  A    between atoms: P_8  and  C_9
REMARK                            x       y       z     vdW  Elec       q    Type
REMARK                         _______ _______ _______ _____ _____    ______ ____
ROOT
ATOM      1  N   UNL     1      -2.738   0.123  -0.122  0.00  0.00    +0.000 N 
ATOM      2  H   UNL     1      -3.090   1.003   0.144  0.00  0.00    +0.000 HD
ENDROOT
BRANCH   1   6
ATOM      3  C   UNL     1       1.488  -0.043  -0.045  0.00  0.00    +0.000 A 
ATOM      4  C   UNL     1       0.766  -1.157  -0.463  0.00  0.00    +0.000 A 
ATOM      5  C   UNL     1      -0.631  -1.115  -0.499  0.00  0.00    +0.000 A 
ATOM      6  C   UNL     1      -1.329   0.038  -0.115  0.00  0.00    +0.000 A 
ATOM      7  C   UNL     1      -0.583   1.154   0.295  0.00  0.00    +0.000 A 
ATOM      8  C   UNL     1       0.814   1.114   0.333  0.00  0.00    +0.000 A 
ENDBRANCH   1   6
BRANCH   1   9
ATOM      9  P   UNL     1      -3.893  -0.980  -0.492  0.00  0.00    +0.000 P 
ATOM     10 CL   UNL     1      -5.627   0.201  -0.590  0.00  0.00    +0.000 Cl
BRANCH   9  11
ATOM     11  C   UNL     1      -4.174  -1.780   1.137  0.00  0.00    +0.000 A 
ATOM     12  C   UNL     1      -3.481  -1.444   2.310  0.00  0.00    +0.000 A 
ATOM     13  C   UNL     1      -3.733  -2.110   3.514  0.00  0.00    +0.000 A 
ATOM     14  C   UNL     1      -4.682  -3.127   3.566  0.00  0.00    +0.000 A 
ATOM     15  C   UNL     1      -5.381  -3.478   2.415  0.00  0.00    +0.000 A 
ATOM     16  C   UNL     1      -5.129  -2.811   1.213  0.00  0.00    +0.000 A 
ENDBRANCH   9  11
ENDBRANCH   1   9
TORSDOF 3
