REMARK  Name = *****
REMARK  6 active torsions:
REMARK  status: ('A' for Active; 'I' for Inactive)
REMARK    1  A    between atoms: C_1  and  C_2
REMARK    2  A    between atoms: C_4  and  C_9
REMARK    3  A    between atoms: C_5  and  C_8
REMARK    4  A    between atoms: C_10  and  C_11
REMARK    5  A    between atoms: C_14  and  O_17
REMARK    6  A    between atoms: O_17  and  C_18
REMARK                            x       y       z     vdW  Elec       q    Type
REMARK                         _______ _______ _______ _____ _____    ______ ____
ROOT
ATOM      1  C   UNL     1      -1.448   2.443   0.163  0.00  0.00    +0.000 C 
ATOM      2  C   UNL     1      -0.905   3.652  -0.054  0.00  0.00    +0.000 C 
ENDROOT
BRANCH   1   6
ATOM      3  C   UNL     1       2.530  -0.283   1.487  0.00  0.00    +0.000 C 
ATOM      4  C   UNL     1       1.269  -0.135   0.688  0.00  0.00    +0.000 A 
ATOM      5  C   UNL     1       0.519   1.046   0.760  0.00  0.00    +0.000 A 
ATOM      6  C   UNL     1      -0.680   1.194   0.040  0.00  0.00    +0.000 A 
ATOM      7  C   UNL     1      -1.148   0.124  -0.748  0.00  0.00    +0.000 A 
ATOM      8  C   UNL     1      -0.403  -1.065  -0.798  0.00  0.00    +0.000 A 
ATOM      9  C   UNL     1       0.791  -1.194  -0.086  0.00  0.00    +0.000 A 
ATOM     10  C   UNL     1      -2.430   0.216  -1.531  0.00  0.00    +0.000 C 
ENDBRANCH   1   6
BRANCH   2  11
ATOM     11  C   UNL     1      -1.647   4.918   0.037  0.00  0.00    +0.000 A 
ATOM     12  C   UNL     1      -2.656   5.132   0.984  0.00  0.00    +0.000 A 
ATOM     13  C   UNL     1      -3.322   6.363   1.060  0.00  0.00    +0.000 A 
ATOM     14  C   UNL     1      -2.978   7.401   0.195  0.00  0.00    +0.000 A 
ATOM     15  C   UNL     1      -1.960   7.198  -0.738  0.00  0.00    +0.000 A 
ATOM     16  C   UNL     1      -1.295   5.970  -0.814  0.00  0.00    +0.000 A 
BRANCH  14  17
ATOM     17  O   UNL     1      -3.545   8.645   0.164  0.00  0.00    +0.000 OA
ATOM     18  C   UNL     1      -4.606   8.890   1.078  0.00  0.00    +0.000 C 
ENDBRANCH  14  17
ENDBRANCH   2  11
TORSDOF 3
