REMARK  Name = *****
REMARK  3 active torsions:
REMARK  status: ('A' for Active; 'I' for Inactive)
REMARK    1  A    between atoms: C_1  and  C_2
REMARK    2  A    between atoms: C_2  and  C_13
REMARK    3  A    between atoms: C_4  and  C_7
REMARK                            x       y       z     vdW  Elec       q    Type
REMARK                         _______ _______ _______ _____ _____    ______ ____
ROOT
ATOM      1  C   UNL     1       0.777   0.363  -0.263  0.00  0.00    +0.000 C 
ATOM      2  C   UNL     1       2.286   0.263  -0.020  0.00  0.00    +0.000 C 
ATOM      3  C   UNL     1       2.619  -0.845   0.958  0.00  0.00    +0.000 C 
ATOM      4  C   UNL     1       3.930  -0.359   1.529  0.00  0.00    +0.000 C 
ATOM      5  O   UNL     1       3.834   1.072   1.549  0.00  0.00    +0.000 OA
ATOM      6  O   UNL     1       2.678   1.443   0.706  0.00  0.00    +0.000 OA
ENDROOT
BRANCH   4   7
ATOM      7  C   UNL     1       4.207  -0.925   2.904  0.00  0.00    +0.000 A 
ATOM      8  C   UNL     1       4.845  -2.170   3.030  0.00  0.00    +0.000 A 
ATOM      9  C   UNL     1       5.084  -2.722   4.290  0.00  0.00    +0.000 A 
ATOM     10  C   UNL     1       4.685  -2.042   5.438  0.00  0.00    +0.000 A 
ATOM     11  C   UNL     1       4.046  -0.809   5.328  0.00  0.00    +0.000 A 
ATOM     12  C   UNL     1       3.806  -0.255   4.070  0.00  0.00    +0.000 A 
ENDBRANCH   4   7
BRANCH   2  13
ATOM     13  C   UNL     1       3.024   0.148  -1.355  0.00  0.00    +0.000 A 
ATOM     14  C   UNL     1       3.834   1.191  -1.836  0.00  0.00    +0.000 A 
ATOM     15  C   UNL     1       4.495   1.082  -3.061  0.00  0.00    +0.000 A 
ATOM     16  C   UNL     1       4.354  -0.069  -3.832  0.00  0.00    +0.000 A 
ATOM     17  C   UNL     1       3.550  -1.111  -3.378  0.00  0.00    +0.000 A 
ATOM     18  C   UNL     1       2.889  -1.003  -2.152  0.00  0.00    +0.000 A 
ENDBRANCH   2  13
TORSDOF 2
