REMARK  Name = *****
REMARK  2 active torsions:
REMARK  status: ('A' for Active; 'I' for Inactive)
REMARK    1  A    between atoms: C_4  and  C_7
REMARK    2  A    between atoms: C_8  and  C_9
REMARK                            x       y       z     vdW  Elec       q    Type
REMARK                         _______ _______ _______ _____ _____    ______ ____
ROOT
ATOM      1  C   UNL     1      -0.769  -1.255   1.821  0.00  0.00    +0.000 C 
ATOM      2  C   UNL     1      -0.788  -1.296   3.021  0.00  0.00    +0.000 C 
ENDROOT
BRANCH   1   6
ATOM      3  C   UNL     1       0.747   1.320  -0.369  0.00  0.00    +0.000 C 
ATOM      4  C   UNL     1       1.490   0.090   0.144  0.00  0.00    +0.000 C 
ATOM      5  C   UNL     1       0.726  -1.200  -0.158  0.00  0.00    +0.000 C 
ATOM      6  C   UNL     1      -0.723  -1.168   0.347  0.00  0.00    +0.000 C 
ATOM      7  C   UNL     1      -1.451   0.088  -0.152  0.00  0.00    +0.000 C 
ATOM      8  C   UNL     1      -0.686   1.378   0.150  0.00  0.00    +0.000 C 
ENDBRANCH   1   6
BRANCH   2   9
ATOM      9  C   UNL     1      -0.790  -1.310   4.449  0.00  0.00    +0.000 A 
ATOM     10  C   UNL     1      -0.800  -2.470   5.190  0.00  0.00    +0.000 A 
ATOM     11  S   UNL     1      -0.791  -2.155   6.874  0.00  0.00    +0.000 S 
ATOM     12  C   UNL     1      -0.773  -0.463   6.612  0.00  0.00    +0.000 A 
ATOM     13  C   UNL     1      -0.775  -0.147   5.271  0.00  0.00    +0.000 A 
ENDBRANCH   2   9
TORSDOF 2
