REMARK  Name = *****
REMARK  6 active torsions:
REMARK  status: ('A' for Active; 'I' for Inactive)
REMARK    1  A    between atoms: C_1  and  C_2
REMARK    2  A    between atoms: C_4  and  C_10
REMARK    3  A    between atoms: C_6  and  C_9
REMARK    4  A    between atoms: C_7  and  C_8
REMARK    5  A    between atoms: C_10  and  C_11
REMARK    6  A    between atoms: C_11  and  C_13
REMARK                            x       y       z     vdW  Elec       q    Type
REMARK                         _______ _______ _______ _____ _____    ______ ____
ROOT
ATOM      1  C   UNL     1       5.388  -2.306  -0.112  0.00  0.00    +0.000 C 
ATOM      2  F   UNL     1       6.568  -2.178   0.581  0.00  0.00    +0.000 F 
ATOM      3  F   UNL     1       4.737  -3.331   0.534  0.00  0.00    +0.000 F 
ENDROOT
BRANCH   1   7
ATOM      4  C   UNL     1       0.918   0.007   0.067  0.00  0.00    +0.000 C 
ATOM      5  C   UNL     1       2.420   0.121   0.058  0.00  0.00    +0.000 A 
ATOM      6  C   UNL     1       3.179  -1.058  -0.015  0.00  0.00    +0.000 A 
ATOM      7  C   UNL     1       4.579  -1.021  -0.025  0.00  0.00    +0.000 A 
ATOM      8  C   UNL     1       5.220   0.222   0.042  0.00  0.00    +0.000 A 
ATOM      9  C   UNL     1       4.487   1.418   0.116  0.00  0.00    +0.000 A 
ATOM     10  C   UNL     1       3.073   1.375   0.092  0.00  0.00    +0.000 A 
ATOM     11  C   UNL     1       2.268   2.650   0.170  0.00  0.00    +0.000 C 
ATOM     12  C   UNL     1       5.243   2.718   0.190  0.00  0.00    +0.000 C 
ENDBRANCH   1   7
BRANCH   1  13
ATOM     13  C   UNL     1       5.681  -2.717  -1.569  0.00  0.00    +0.000 C 
ATOM     14  O   UNL     1       5.261  -2.106  -2.555  0.00  0.00    +0.000 OA
BRANCH  13  15
ATOM     15  C   UNL     1       6.522  -3.935  -1.807  0.00  0.00    +0.000 A 
ATOM     16  C   UNL     1       7.000  -4.749  -0.772  0.00  0.00    +0.000 A 
ATOM     17  C   UNL     1       7.780  -5.873  -1.060  0.00  0.00    +0.000 A 
ATOM     18  C   UNL     1       8.089  -6.195  -2.380  0.00  0.00    +0.000 A 
ATOM     19  C   UNL     1       7.618  -5.395  -3.418  0.00  0.00    +0.000 A 
ATOM     20  C   UNL     1       6.838  -4.272  -3.134  0.00  0.00    +0.000 A 
ENDBRANCH  13  15
ENDBRANCH   1  13
TORSDOF 3
