REMARK  Name = *****
REMARK  3 active torsions:
REMARK  status: ('A' for Active; 'I' for Inactive)
REMARK    1  A    between atoms: C_4  and  N_7
REMARK    2  A    between atoms: N_7  and  C_8
REMARK    3  A    between atoms: C_8  and  C_10
REMARK                            x       y       z     vdW  Elec       q    Type
REMARK                         _______ _______ _______ _____ _____    ______ ____
ROOT
ATOM      1  C   UNL     1      -3.780  -0.762  -0.467  0.00  0.00    +0.000 C 
ATOM      2  S   UNL     1      -3.703  -1.689  -1.865  0.00  0.00    +0.000 S 
ENDROOT
BRANCH   1   3
ATOM      3  C   UNL     1      -5.111  -0.533   0.167  0.00  0.00    +0.000 A 
ATOM      4  C   UNL     1      -5.707  -1.600   0.857  0.00  0.00    +0.000 A 
ATOM      5  C   UNL     1      -6.943  -1.426   1.480  0.00  0.00    +0.000 A 
ATOM      6  C   UNL     1      -7.584  -0.189   1.423  0.00  0.00    +0.000 A 
ATOM      7  C   UNL     1      -6.991   0.878   0.745  0.00  0.00    +0.000 A 
ATOM      8  C   UNL     1      -5.753   0.712   0.116  0.00  0.00    +0.000 A 
ATOM      9 CL   UNL     1      -5.070   2.074  -0.695  0.00  0.00    +0.000 Cl
ENDBRANCH   1   3
BRANCH   1  10
ATOM     10  N   UNL     1      -2.759  -0.116   0.220  0.00  0.00    +0.000 N 
ATOM     11  H   UNL     1      -3.078   0.465   0.948  0.00  0.00    +0.000 HD
BRANCH  10  15
ATOM     12  C   UNL     1       1.461   0.005  -0.024  0.00  0.00    +0.000 A 
ATOM     13  C   UNL     1       0.777  -0.987  -0.720  0.00  0.00    +0.000 A 
ATOM     14  C   UNL     1      -0.621  -1.056  -0.666  0.00  0.00    +0.000 A 
ATOM     15  C   UNL     1      -1.351  -0.131   0.078  0.00  0.00    +0.000 A 
ATOM     16  C   UNL     1      -0.646   0.853   0.790  0.00  0.00    +0.000 A 
ATOM     17  C   UNL     1       0.749   0.925   0.735  0.00  0.00    +0.000 A 
ENDBRANCH  10  15
ENDBRANCH   1  10
TORSDOF 3
