REMARK  Name = *****
REMARK  4 active torsions:
REMARK  status: ('A' for Active; 'I' for Inactive)
REMARK    1  A    between atoms: C_1  and  C_2
REMARK    2  A    between atoms: C_4  and  C_9
REMARK    3  A    between atoms: C_5  and  C_8
REMARK    4  A    between atoms: C_10  and  C_11
REMARK                            x       y       z     vdW  Elec       q    Type
REMARK                         _______ _______ _______ _____ _____    ______ ____
ROOT
ATOM      1  C   UNL     1      -1.260   2.553   0.277  0.00  0.00    +0.000 C 
ATOM      2  C   UNL     1      -1.146   3.526  -0.641  0.00  0.00    +0.000 C 
ENDROOT
BRANCH   1   6
ATOM      3  C   UNL     1       2.966  -0.072  -0.168  0.00  0.00    +0.000 C 
ATOM      4  C   UNL     1       1.468  -0.030  -0.111  0.00  0.00    +0.000 A 
ATOM      5  C   UNL     1       0.798   1.192   0.028  0.00  0.00    +0.000 A 
ATOM      6  C   UNL     1      -0.603   1.247   0.118  0.00  0.00    +0.000 A 
ATOM      7  C   UNL     1      -1.348   0.053   0.089  0.00  0.00    +0.000 A 
ATOM      8  C   UNL     1      -0.670  -1.170  -0.032  0.00  0.00    +0.000 A 
ATOM      9  C   UNL     1       0.723  -1.211  -0.128  0.00  0.00    +0.000 A 
ATOM     10  C   UNL     1      -2.849   0.054   0.191  0.00  0.00    +0.000 C 
ENDBRANCH   1   6
BRANCH   2  11
ATOM     11  C   UNL     1      -1.805   4.836  -0.535  0.00  0.00    +0.000 A 
ATOM     12  C   UNL     1      -2.293   5.433  -1.708  0.00  0.00    +0.000 A 
ATOM     13  C   UNL     1      -2.905   6.690  -1.669  0.00  0.00    +0.000 A 
ATOM     14  C   UNL     1      -3.028   7.374  -0.461  0.00  0.00    +0.000 A 
ATOM     15  C   UNL     1      -2.534   6.801   0.709  0.00  0.00    +0.000 A 
ATOM     16  C   UNL     1      -1.926   5.547   0.666  0.00  0.00    +0.000 A 
ATOM     17  F   UNL     1      -1.444   5.043   1.813  0.00  0.00    +0.000 F 
ENDBRANCH   2  11
TORSDOF 2
