REMARK  Name = *****
REMARK  1 active torsions:
REMARK  status: ('A' for Active; 'I' for Inactive)
REMARK    1  A    between atoms: C_3  and  C_11
REMARK                            x       y       z     vdW  Elec       q    Type
REMARK                         _______ _______ _______ _____ _____    ______ ____
ROOT
ATOM      1  C   UNL     1       1.240   1.460   0.343  0.00  0.00    +0.000 C 
ATOM      2  C   UNL     1       2.449   0.727  -0.253  0.00  0.00    +0.000 C 
ATOM      3  C   UNL     1       2.411  -0.765  -0.008  0.00  0.00    +0.000 C 
ATOM      4  C   UNL     1       1.235  -1.411   0.111  0.00  0.00    +0.000 C 
ATOM      5  C   UNL     1      -0.038  -0.683   0.023  0.00  0.00    +0.000 A 
ATOM      6  C   UNL     1      -1.243  -1.378  -0.128  0.00  0.00    +0.000 A 
ATOM      7  C   UNL     1      -2.453  -0.683  -0.193  0.00  0.00    +0.000 A 
ATOM      8  C   UNL     1      -2.466   0.707  -0.099  0.00  0.00    +0.000 A 
ATOM      9  C   UNL     1      -1.271   1.408   0.061  0.00  0.00    +0.000 A 
ATOM     10  C   UNL     1      -0.053   0.720   0.112  0.00  0.00    +0.000 A 
ENDROOT
BRANCH   3  11
ATOM     11  C   UNL     1       3.698  -1.496   0.054  0.00  0.00    +0.000 A 
ATOM     12  C   UNL     1       3.911  -2.485   1.030  0.00  0.00    +0.000 A 
ATOM     13  C   UNL     1       5.129  -3.170   1.109  0.00  0.00    +0.000 A 
ATOM     14  C   UNL     1       6.157  -2.875   0.217  0.00  0.00    +0.000 A 
ATOM     15  C   UNL     1       5.969  -1.893  -0.752  0.00  0.00    +0.000 A 
ATOM     16  C   UNL     1       4.753  -1.213  -0.825  0.00  0.00    +0.000 A 
ATOM     17  F   UNL     1       4.616  -0.281  -1.781  0.00  0.00    +0.000 F 
ENDBRANCH   3  11
TORSDOF 1
