REMARK  Name = *****
REMARK  4 active torsions:
REMARK  status: ('A' for Active; 'I' for Inactive)
REMARK    1  A    between atoms: C_1  and  C_2
REMARK    2  A    between atoms: C_4  and  O_8
REMARK    3  A    between atoms: O_8  and  C_9
REMARK    4  A    between atoms: C_9  and  C_11
REMARK                            x       y       z     vdW  Elec       q    Type
REMARK                         _______ _______ _______ _____ _____    ______ ____
ROOT
ATOM      1  O   UNL     1      -1.645   2.540  -0.023  0.00  0.00    +0.000 OA
ENDROOT
BRANCH   1   5
ATOM      2  C   UNL     1       2.078  -0.230   1.688  0.00  0.00    +0.000 C 
ATOM      3  C   UNL     1       0.884  -0.027   0.804  0.00  0.00    +0.000 A 
ATOM      4  C   UNL     1       0.201   1.196   0.801  0.00  0.00    +0.000 A 
ATOM      5  C   UNL     1      -0.923   1.370  -0.011  0.00  0.00    +0.000 A 
ATOM      6  C   UNL     1      -1.406   0.314  -0.782  0.00  0.00    +0.000 A 
ATOM      7  C   UNL     1      -0.740  -0.911  -0.772  0.00  0.00    +0.000 A 
ATOM      8  C   UNL     1       0.399  -1.081   0.018  0.00  0.00    +0.000 A 
ENDBRANCH   1   5
BRANCH   1   9
ATOM      9  C   UNL     1      -0.978   3.746  -0.209  0.00  0.00    +0.000 C 
ATOM     10  C   UNL     1       0.052   3.914  -1.056  0.00  0.00    +0.000 C 
BRANCH   9  11
ATOM     11  C   UNL     1      -1.550   4.872   0.561  0.00  0.00    +0.000 A 
ATOM     12  C   UNL     1      -1.716   6.146  -0.003  0.00  0.00    +0.000 A 
ATOM     13  C   UNL     1      -2.268   7.193   0.741  0.00  0.00    +0.000 A 
ATOM     14  C   UNL     1      -2.669   6.978   2.057  0.00  0.00    +0.000 A 
ATOM     15  C   UNL     1      -2.523   5.717   2.629  0.00  0.00    +0.000 A 
ATOM     16  C   UNL     1      -1.971   4.671   1.885  0.00  0.00    +0.000 A 
ENDBRANCH   9  11
ENDBRANCH   1   9
TORSDOF 3
