REMARK  Name = *****
REMARK  2 active torsions:
REMARK  status: ('A' for Active; 'I' for Inactive)
REMARK    1  A    between atoms: C_6  and  C_7
REMARK    2  A    between atoms: C_8  and  C_10
REMARK                            x       y       z     vdW  Elec       q    Type
REMARK                         _______ _______ _______ _____ _____    ______ ____
ROOT
ATOM      1  C   UNL     1       3.873  -0.217   0.093  0.00  0.00    +0.000 C 
ATOM      2  C   UNL     1       4.683   0.582   1.103  0.00  0.00    +0.000 C 
ATOM      3  O   UNL     1       4.683   0.903  -0.297  0.00  0.00    +0.000 OA
ENDROOT
BRANCH   1   9
ATOM      4  C   UNL     1       1.555  -0.616   1.039  0.00  0.00    +0.000 A 
ATOM      5  C   UNL     1       0.164  -0.479   0.998  0.00  0.00    +0.000 A 
ATOM      6  C   UNL     1      -0.430   0.224  -0.046  0.00  0.00    +0.000 A 
ATOM      7  C   UNL     1       0.355   0.787  -1.047  0.00  0.00    +0.000 A 
ATOM      8  C   UNL     1       1.745   0.645  -0.999  0.00  0.00    +0.000 A 
ATOM      9  C   UNL     1       2.376  -0.054   0.045  0.00  0.00    +0.000 A 
ATOM     10 CL   UNL     1      -2.141   0.394  -0.100  0.00  0.00    +0.000 Cl
ENDBRANCH   1   9
BRANCH   2  11
ATOM     11  C   UNL     1       5.935  -0.017   1.690  0.00  0.00    +0.000 A 
ATOM     12  C   UNL     1       7.212   0.415   1.293  0.00  0.00    +0.000 A 
ATOM     13  C   UNL     1       8.373  -0.138   1.844  0.00  0.00    +0.000 A 
ATOM     14  C   UNL     1       8.271  -1.134   2.809  0.00  0.00    +0.000 A 
ATOM     15  C   UNL     1       7.020  -1.579   3.227  0.00  0.00    +0.000 A 
ATOM     16  C   UNL     1       5.864  -1.022   2.671  0.00  0.00    +0.000 A 
ATOM     17 CL   UNL     1       9.694  -1.817   3.490  0.00  0.00    +0.000 Cl
ENDBRANCH   2  11
TORSDOF 2
