REMARK  Name = *****
REMARK  5 active torsions:
REMARK  status: ('A' for Active; 'I' for Inactive)
REMARK    1  A    between atoms: C_1  and  C_2
REMARK    2  A    between atoms: C_2  and  P_3
REMARK    3  A    between atoms: P_3  and  C_4
REMARK    4  A    between atoms: P_3  and  C_11
REMARK    5  A    between atoms: C_4  and  C_5
REMARK                            x       y       z     vdW  Elec       q    Type
REMARK                         _______ _______ _______ _____ _____    ______ ____
ROOT
ATOM      1  P   UNL     1       3.189   0.830   1.681  0.00  0.00    +0.000 P 
ENDROOT
BRANCH   1   2
ATOM      2  C   UNL     1       5.003   0.660   1.658  0.00  0.00    +0.000 A 
ATOM      3  C   UNL     1       5.779   1.802   1.911  0.00  0.00    +0.000 A 
ATOM      4  C   UNL     1       7.174   1.734   1.918  0.00  0.00    +0.000 A 
ATOM      5  C   UNL     1       7.814   0.523   1.672  0.00  0.00    +0.000 A 
ATOM      6  C   UNL     1       7.059  -0.620   1.422  0.00  0.00    +0.000 A 
ATOM      7  C   UNL     1       5.663  -0.552   1.415  0.00  0.00    +0.000 A 
ENDBRANCH   1   2
BRANCH   1   9
ATOM      8  C   UNL     1       1.194  -0.061  -0.065  0.00  0.00    +0.000 C 
ATOM      9  C   UNL     1       2.686  -0.167   0.211  0.00  0.00    +0.000 C 
ENDBRANCH   1   9
BRANCH   1  10
ATOM     10  C   UNL     1       2.702  -0.312   3.029  0.00  0.00    +0.000 C 
BRANCH  10  11
ATOM     11  C   UNL     1       2.955   0.460   4.300  0.00  0.00    +0.000 A 
ATOM     12  C   UNL     1       1.988   1.340   4.813  0.00  0.00    +0.000 A 
ATOM     13  C   UNL     1       2.218   2.040   5.999  0.00  0.00    +0.000 A 
ATOM     14  C   UNL     1       3.414   1.866   6.691  0.00  0.00    +0.000 A 
ATOM     15  C   UNL     1       4.382   0.993   6.199  0.00  0.00    +0.000 A 
ATOM     16  C   UNL     1       4.153   0.292   5.014  0.00  0.00    +0.000 A 
ENDBRANCH  10  11
ENDBRANCH   1  10
TORSDOF 4
