REMARK  Name = *****
REMARK  3 active torsions:
REMARK  status: ('A' for Active; 'I' for Inactive)
REMARK    1  A    between atoms: C_1  and  C_2
REMARK    2  A    between atoms: C_2  and  C_11
REMARK    3  A    between atoms: N_3  and  C_4
REMARK                            x       y       z     vdW  Elec       q    Type
REMARK                         _______ _______ _______ _____ _____    ______ ____
ROOT
ATOM      1  C   UNL     1       1.126   0.479   0.548  0.00  0.00    +0.000 C 
ATOM      2  C   UNL     1       2.518   0.096   0.080  0.00  0.00    +0.000 C 
ATOM      3  N   UNL     1       3.023   0.445  -1.069  0.00  0.00    +0.000 NA
ENDROOT
BRANCH   3   4
ATOM      4  C   UNL     1       2.278   1.235  -1.961  0.00  0.00    +0.000 A 
ATOM      5  C   UNL     1       1.464   0.598  -2.906  0.00  0.00    +0.000 A 
ATOM      6  C   UNL     1       0.726   1.340  -3.832  0.00  0.00    +0.000 A 
ATOM      7  C   UNL     1       0.805   2.731  -3.831  0.00  0.00    +0.000 A 
ATOM      8  C   UNL     1       1.627   3.381  -2.910  0.00  0.00    +0.000 A 
ATOM      9  C   UNL     1       2.365   2.637  -1.984  0.00  0.00    +0.000 A 
ATOM     10 CL   UNL     1       3.372   3.492  -0.868  0.00  0.00    +0.000 Cl
ENDBRANCH   3   4
BRANCH   2  11
ATOM     11  C   UNL     1       3.352  -0.748   0.989  0.00  0.00    +0.000 A 
ATOM     12  C   UNL     1       2.772  -1.675   1.863  0.00  0.00    +0.000 A 
ATOM     13  C   UNL     1       3.582  -2.451   2.696  0.00  0.00    +0.000 A 
ATOM     14  C   UNL     1       4.969  -2.310   2.654  0.00  0.00    +0.000 A 
ATOM     15  C   UNL     1       5.551  -1.398   1.775  0.00  0.00    +0.000 A 
ATOM     16  C   UNL     1       4.746  -0.621   0.941  0.00  0.00    +0.000 A 
ENDBRANCH   2  11
TORSDOF 2
