REMARK  Name = *****
REMARK  2 active torsions:
REMARK  status: ('A' for Active; 'I' for Inactive)
REMARK    1  A    between atoms: C_1  and  C_2
REMARK    2  A    between atoms: C_8  and  C_11
REMARK                            x       y       z     vdW  Elec       q    Type
REMARK                         _______ _______ _______ _____ _____    ______ ____
ROOT
ATOM      1  C   UNL     1       1.107  -0.005  -0.199  0.00  0.00    +0.000 C 
ATOM      2  C   UNL     1       2.572  -0.160  -0.120  0.00  0.00    +0.000 A 
ATOM      3  N   UNL     1       3.279  -1.257   0.075  0.00  0.00    +0.000 NA
ATOM      4  C   UNL     1       4.576  -0.811   0.057  0.00  0.00    +0.000 A 
ATOM      5  C   UNL     1       4.601   0.557  -0.149  0.00  0.00    +0.000 A 
ATOM      6  O   UNL     1       3.310   0.986  -0.264  0.00  0.00    +0.000 OA
ATOM      7  C   UNL     1       5.755   1.329  -0.221  0.00  0.00    +0.000 A 
ATOM      8  C   UNL     1       6.981   0.650  -0.072  0.00  0.00    +0.000 A 
ATOM      9  C   UNL     1       6.978  -0.747   0.139  0.00  0.00    +0.000 A 
ATOM     10  C   UNL     1       5.787  -1.493   0.207  0.00  0.00    +0.000 A 
ENDROOT
BRANCH   8  11
ATOM     11  C   UNL     1       8.253   1.392  -0.137  0.00  0.00    +0.000 A 
ATOM     12  C   UNL     1       8.485   2.503   0.690  0.00  0.00    +0.000 A 
ATOM     13  C   UNL     1       9.691   3.208   0.630  0.00  0.00    +0.000 A 
ATOM     14  C   UNL     1      10.685   2.812  -0.261  0.00  0.00    +0.000 A 
ATOM     15  C   UNL     1      10.475   1.714  -1.091  0.00  0.00    +0.000 A 
ATOM     16  C   UNL     1       9.270   1.010  -1.028  0.00  0.00    +0.000 A 
ENDBRANCH   8  11
TORSDOF 1
