REMARK  Name = *****
REMARK  3 active torsions:
REMARK  status: ('A' for Active; 'I' for Inactive)
REMARK    1  A    between atoms: C_1  and  C_2
REMARK    2  A    between atoms: C_4  and  C_8
REMARK    3  A    between atoms: C_9  and  C_10
REMARK                            x       y       z     vdW  Elec       q    Type
REMARK                         _______ _______ _______ _____ _____    ______ ____
ROOT
ATOM      1  C   UNL     1       5.233   2.664  -0.636  0.00  0.00    +0.000 C 
ATOM      2  C   UNL     1       5.787   3.715  -0.816  0.00  0.00    +0.000 C 
ENDROOT
BRANCH   1   6
ATOM      3  C   UNL     1       1.026   0.098  -0.004  0.00  0.00    +0.000 C 
ATOM      4  C   UNL     1       2.522   0.151  -0.090  0.00  0.00    +0.000 A 
ATOM      5  C   UNL     1       3.179   1.370  -0.309  0.00  0.00    +0.000 A 
ATOM      6  C   UNL     1       4.572   1.414  -0.421  0.00  0.00    +0.000 A 
ATOM      7  C   UNL     1       5.316   0.238  -0.325  0.00  0.00    +0.000 A 
ATOM      8  C   UNL     1       4.669  -0.982  -0.122  0.00  0.00    +0.000 A 
ATOM      9  C   UNL     1       3.278  -1.026  -0.010  0.00  0.00    +0.000 A 
ENDBRANCH   1   6
BRANCH   2  10
ATOM     10  C   UNL     1       6.445   4.967  -1.028  0.00  0.00    +0.000 A 
ATOM     11  C   UNL     1       5.856   6.151  -0.581  0.00  0.00    +0.000 A 
ATOM     12  C   UNL     1       6.505   7.366  -0.793  0.00  0.00    +0.000 A 
ATOM     13  C   UNL     1       7.736   7.409  -1.446  0.00  0.00    +0.000 A 
ATOM     14  C   UNL     1       8.325   6.225  -1.893  0.00  0.00    +0.000 A 
ATOM     15  C   UNL     1       7.680   5.005  -1.684  0.00  0.00    +0.000 A 
ATOM     16 CL   UNL     1       5.781   8.828  -0.243  0.00  0.00    +0.000 Cl
ENDBRANCH   2  10
TORSDOF 2
