REMARK  Name = *****
REMARK  2 active torsions:
REMARK  status: ('A' for Active; 'I' for Inactive)
REMARK    1  A    between atoms: C_1  and  C_2
REMARK    2  A    between atoms: C_5  and  C_12
REMARK                            x       y       z     vdW  Elec       q    Type
REMARK                         _______ _______ _______ _____ _____    ______ ____
ROOT
ATOM      1  C   UNL     1       0.910   0.086  -0.132  0.00  0.00    +0.000 C 
ATOM      2  C   UNL     1       2.414   0.025  -0.089  0.00  0.00    +0.000 A 
ATOM      3  C   UNL     1       3.108  -1.207  -0.069  0.00  0.00    +0.000 A 
ATOM      4  C   UNL     1       2.340  -2.516  -0.051  0.00  0.00    +0.000 C 
ATOM      5  C   UNL     1       3.198  -3.748  -0.388  0.00  0.00    +0.000 C 
ATOM      6  C   UNL     1       4.501  -3.709   0.417  0.00  0.00    +0.000 C 
ATOM      7  C   UNL     1       5.320  -2.486   0.015  0.00  0.00    +0.000 C 
ATOM      8  C   UNL     1       4.518  -1.207  -0.003  0.00  0.00    +0.000 A 
ATOM      9  C   UNL     1       5.215   0.011  -0.012  0.00  0.00    +0.000 A 
ATOM     10  C   UNL     1       4.529   1.220  -0.056  0.00  0.00    +0.000 A 
ATOM     11  C   UNL     1       3.137   1.227  -0.093  0.00  0.00    +0.000 A 
ENDROOT
BRANCH   5  12
ATOM     12  C   UNL     1       2.427  -5.041  -0.180  0.00  0.00    +0.000 A 
ATOM     13  C   UNL     1       2.084  -5.833  -1.287  0.00  0.00    +0.000 A 
ATOM     14  C   UNL     1       1.372  -7.022  -1.120  0.00  0.00    +0.000 A 
ATOM     15  C   UNL     1       0.991  -7.436   0.154  0.00  0.00    +0.000 A 
ATOM     16  C   UNL     1       1.321  -6.659   1.262  0.00  0.00    +0.000 A 
ATOM     17  C   UNL     1       2.033  -5.470   1.097  0.00  0.00    +0.000 A 
ENDBRANCH   5  12
TORSDOF 1
