REMARK  Name = *****
REMARK  4 active torsions:
REMARK  status: ('A' for Active; 'I' for Inactive)
REMARK    1  A    between atoms: C_1  and  S_2
REMARK    2  A    between atoms: S_2  and  C_3
REMARK    3  A    between atoms: C_3  and  C_11
REMARK    4  A    between atoms: N_4  and  C_5
REMARK                            x       y       z     vdW  Elec       q    Type
REMARK                         _______ _______ _______ _____ _____    ______ ____
ROOT
ATOM      1  C   UNL     1       3.414   1.516  -0.662  0.00  0.00    +0.000 C 
ATOM      2  N   UNL     1       2.573   2.402  -1.107  0.00  0.00    +0.000 NA
ENDROOT
BRANCH   2   3
ATOM      3  C   UNL     1       1.193   2.293  -0.895  0.00  0.00    +0.000 A 
ATOM      4  C   UNL     1       0.565   3.164  -0.000  0.00  0.00    +0.000 A 
ATOM      5  C   UNL     1      -0.816   3.106   0.197  0.00  0.00    +0.000 A 
ATOM      6  C   UNL     1      -1.582   2.182  -0.511  0.00  0.00    +0.000 A 
ATOM      7  C   UNL     1      -0.969   1.326  -1.425  0.00  0.00    +0.000 A 
ATOM      8  C   UNL     1       0.412   1.390  -1.623  0.00  0.00    +0.000 A 
ENDBRANCH   2   3
BRANCH   1   9
ATOM      9  C   UNL     1       4.875   1.708  -0.931  0.00  0.00    +0.000 A 
ATOM     10  C   UNL     1       5.769   0.635  -1.053  0.00  0.00    +0.000 A 
ATOM     11  C   UNL     1       7.124   0.873  -1.301  0.00  0.00    +0.000 A 
ATOM     12  C   UNL     1       7.594   2.179  -1.433  0.00  0.00    +0.000 A 
ATOM     13  C   UNL     1       6.711   3.251  -1.326  0.00  0.00    +0.000 A 
ATOM     14  C   UNL     1       5.356   3.017  -1.082  0.00  0.00    +0.000 A 
ENDBRANCH   1   9
BRANCH   1  16
ATOM     15  C   UNL     1       3.124   0.843   1.935  0.00  0.00    +0.000 C 
ATOM     16  S   UNL     1       2.971   0.101   0.296  0.00  0.00    +0.000 S 
ENDBRANCH   1  16
TORSDOF 3
