REMARK  Name = *****
REMARK  3 active torsions:
REMARK  status: ('A' for Active; 'I' for Inactive)
REMARK    1  A    between atoms: C_4  and  C_7
REMARK    2  A    between atoms: C_7  and  S_8
REMARK    3  A    between atoms: S_8  and  C_9
REMARK                            x       y       z     vdW  Elec       q    Type
REMARK                         _______ _______ _______ _____ _____    ______ ____
ROOT
ATOM      1  C   UNL     1      -3.001   0.254  -0.202  0.00  0.00    +0.000 C 
ENDROOT
BRANCH   1   5
ATOM      2  C   UNL     1       1.250  -0.388   0.168  0.00  0.00    +0.000 A 
ATOM      3  C   UNL     1       0.458  -1.328  -0.488  0.00  0.00    +0.000 A 
ATOM      4  C   UNL     1      -0.916  -1.117  -0.617  0.00  0.00    +0.000 A 
ATOM      5  C   UNL     1      -1.513   0.036  -0.087  0.00  0.00    +0.000 A 
ATOM      6  C   UNL     1      -0.703   0.978   0.566  0.00  0.00    +0.000 A 
ATOM      7  C   UNL     1       0.670   0.765   0.693  0.00  0.00    +0.000 A 
ENDBRANCH   1   5
BRANCH   1   8
ATOM      8  S   UNL     1      -3.989  -0.867   0.841  0.00  0.00    +0.000 S 
BRANCH   8   9
ATOM      9  C   UNL     1      -3.339  -0.505   2.447  0.00  0.00    +0.000 C 
ATOM     10  S   UNL     1      -3.688   1.013   3.202  0.00  0.00    +0.000 S 
ATOM     11  N   UNL     1      -2.811   0.789   4.603  0.00  0.00    +0.000 NA
ATOM     12  S   UNL     1      -2.057  -0.695   4.736  0.00  0.00    +0.000 S 
ATOM     13  C   UNL     1      -2.555  -1.351   3.227  0.00  0.00    +0.000 C 
ATOM     14  S   UNL     1      -2.095  -2.845   2.857  0.00  0.00    +0.000 S 
ENDBRANCH   8   9
ENDBRANCH   1   8
TORSDOF 3
