REMARK  Name = *****
REMARK  6 active torsions:
REMARK  status: ('A' for Active; 'I' for Inactive)
REMARK    1  A    between atoms: C_1  and  C_2
REMARK    2  A    between atoms: C_2  and  O_3
REMARK    3  A    between atoms: O_3  and  C_4
REMARK    4  A    between atoms: C_7  and  S_10
REMARK    5  A    between atoms: S_10  and  C_11
REMARK    6  A    between atoms: C_11  and  C_12
REMARK                            x       y       z     vdW  Elec       q    Type
REMARK                         _______ _______ _______ _____ _____    ______ ____
ROOT
ATOM      1  C   UNL     1       4.377   1.639   0.935  0.00  0.00    +0.000 A 
ATOM      2  N   UNL     1       4.779   1.769   2.216  0.00  0.00    +0.000 NA
ATOM      3  N   UNL     1       6.120   1.768   2.508  0.00  0.00    +0.000 NA
ATOM      4  C   UNL     1       7.031   1.637   1.520  0.00  0.00    +0.000 A 
ATOM      5  C   UNL     1       6.636   1.501   0.197  0.00  0.00    +0.000 A 
ATOM      6  C   UNL     1       5.277   1.500  -0.103  0.00  0.00    +0.000 A 
ENDROOT
BRANCH   1   7
ATOM      7  O   UNL     1       3.038   1.638   0.607  0.00  0.00    +0.000 OA
BRANCH   7   9
ATOM      8  C   UNL     1       0.747   1.822   1.240  0.00  0.00    +0.000 C 
ATOM      9  C   UNL     1       2.183   1.829   1.736  0.00  0.00    +0.000 C 
ENDBRANCH   7   9
ENDBRANCH   1   7
BRANCH   4  10
ATOM     10  S   UNL     1       8.765   1.651   1.919  0.00  0.00    +0.000 S 
BRANCH  10  11
ATOM     11  C   UNL     1       8.679   1.643   3.740  0.00  0.00    +0.000 C 
BRANCH  11  12
ATOM     12  C   UNL     1      10.062   1.638   4.348  0.00  0.00    +0.000 A 
ATOM     13  C   UNL     1      10.759   0.431   4.524  0.00  0.00    +0.000 A 
ATOM     14  C   UNL     1      12.042   0.430   5.073  0.00  0.00    +0.000 A 
ATOM     15  C   UNL     1      12.630   1.633   5.444  0.00  0.00    +0.000 A 
ATOM     16  C   UNL     1      11.961   2.839   5.274  0.00  0.00    +0.000 A 
ATOM     17  C   UNL     1      10.679   2.843   4.723  0.00  0.00    +0.000 A 
ATOM     18  F   UNL     1      13.861   1.630   5.971  0.00  0.00    +0.000 F 
ENDBRANCH  11  12
ENDBRANCH  10  11
ENDBRANCH   4  10
TORSDOF 5
