REMARK  Name = *****
REMARK  4 active torsions:
REMARK  status: ('A' for Active; 'I' for Inactive)
REMARK    1  A    between atoms: C_1  and  C_2
REMARK    2  A    between atoms: C_5  and  C_8
REMARK    3  A    between atoms: C_8  and  C_9
REMARK    4  A    between atoms: C_9  and  C_10
REMARK                            x       y       z     vdW  Elec       q    Type
REMARK                         _______ _______ _______ _____ _____    ______ ____
ROOT
ATOM      1  C   UNL     1      -3.329  -0.343  -0.123  0.00  0.00    +0.000 C 
ATOM      2  F   UNL     1      -3.859   0.492  -1.070  0.00  0.00    +0.000 F 
ENDROOT
BRANCH   1   7
ATOM      3  C   UNL     1       2.450   0.298   0.323  0.00  0.00    +0.000 C 
ATOM      4  C   UNL     1       0.961   0.138   0.233  0.00  0.00    +0.000 A 
ATOM      5  C   UNL     1       0.358  -1.089   0.533  0.00  0.00    +0.000 A 
ATOM      6  C   UNL     1      -1.025  -1.246   0.416  0.00  0.00    +0.000 A 
ATOM      7  C   UNL     1      -1.828  -0.182  -0.017  0.00  0.00    +0.000 A 
ATOM      8  C   UNL     1      -1.220   1.040  -0.331  0.00  0.00    +0.000 A 
ATOM      9  C   UNL     1       0.162   1.197  -0.212  0.00  0.00    +0.000 A 
ENDBRANCH   1   7
BRANCH   1  10
ATOM     10  C   UNL     1      -4.011  -0.040   1.219  0.00  0.00    +0.000 C 
BRANCH  10  11
ATOM     11  C   UNL     1      -5.437  -0.544   1.280  0.00  0.00    +0.000 A 
ATOM     12  C   UNL     1      -6.434   0.040   0.483  0.00  0.00    +0.000 A 
ATOM     13  C   UNL     1      -7.748  -0.428   0.540  0.00  0.00    +0.000 A 
ATOM     14  C   UNL     1      -8.066  -1.476   1.394  0.00  0.00    +0.000 A 
ATOM     15  C   UNL     1      -7.095  -2.066   2.194  0.00  0.00    +0.000 A 
ATOM     16  C   UNL     1      -5.780  -1.601   2.138  0.00  0.00    +0.000 A 
ATOM     17  F   UNL     1      -9.327  -1.925   1.449  0.00  0.00    +0.000 F 
ENDBRANCH  10  11
ENDBRANCH   1  10
TORSDOF 3
