REMARK  Name = *****
REMARK  4 active torsions:
REMARK  status: ('A' for Active; 'I' for Inactive)
REMARK    1  A    between atoms: C_4  and  C_7
REMARK    2  A    between atoms: C_7  and  C_8
REMARK    3  A    between atoms: C_8  and  O_9
REMARK    4  A    between atoms: O_9  and  C_10
REMARK                            x       y       z     vdW  Elec       q    Type
REMARK                         _______ _______ _______ _____ _____    ______ ____
ROOT
ATOM      1  C   UNL     1      -3.588  -0.933  -0.287  0.00  0.00    +0.000 C 
ENDROOT
BRANCH   1   2
ATOM      2  C   UNL     1      -2.847   0.401  -0.218  0.00  0.00    +0.000 C 
BRANCH   2   6
ATOM      3  C   UNL     1       1.369  -0.177   0.464  0.00  0.00    +0.000 A 
ATOM      4  C   UNL     1       0.874  -0.120  -0.838  0.00  0.00    +0.000 A 
ATOM      5  C   UNL     1      -0.490   0.074  -1.060  0.00  0.00    +0.000 A 
ATOM      6  C   UNL     1      -1.371   0.217   0.019  0.00  0.00    +0.000 A 
ATOM      7  C   UNL     1      -0.865   0.153   1.325  0.00  0.00    +0.000 A 
ATOM      8  C   UNL     1       0.500  -0.041   1.545  0.00  0.00    +0.000 A 
ENDBRANCH   2   6
ENDBRANCH   1   2
BRANCH   1   9
ATOM      9  O   UNL     1      -4.974  -0.658  -0.499  0.00  0.00    +0.000 OA
BRANCH   9  10
ATOM     10  C   UNL     1      -5.818  -1.732  -0.569  0.00  0.00    +0.000 A 
ATOM     11  C   UNL     1      -5.447  -3.075  -0.484  0.00  0.00    +0.000 A 
ATOM     12  C   UNL     1      -6.418  -4.078  -0.571  0.00  0.00    +0.000 A 
ATOM     13  C   UNL     1      -7.761  -3.744  -0.743  0.00  0.00    +0.000 A 
ATOM     14  C   UNL     1      -8.135  -2.406  -0.830  0.00  0.00    +0.000 A 
ATOM     15  C   UNL     1      -7.165  -1.406  -0.743  0.00  0.00    +0.000 A 
ENDBRANCH   9  10
ENDBRANCH   1   9
TORSDOF 4
