REMARK  Name = *****
REMARK  5 active torsions:
REMARK  status: ('A' for Active; 'I' for Inactive)
REMARK    1  A    between atoms: C_1  and  O_2
REMARK    2  A    between atoms: O_2  and  C_3
REMARK    3  A    between atoms: C_3  and  C_5
REMARK    4  A    between atoms: C_8  and  C_11
REMARK    5  A    between atoms: C_12  and  C_13
REMARK                            x       y       z     vdW  Elec       q    Type
REMARK                         _______ _______ _______ _____ _____    ______ ____
ROOT
ATOM      1  C   UNL     1       4.486   0.956  -0.950  0.00  0.00    +0.000 A 
ATOM      2  C   UNL     1       5.115  -0.295  -0.956  0.00  0.00    +0.000 A 
ATOM      3  C   UNL     1       6.512  -0.382  -0.937  0.00  0.00    +0.000 A 
ATOM      4  C   UNL     1       7.301   0.776  -0.922  0.00  0.00    +0.000 A 
ATOM      5  C   UNL     1       6.667   2.024  -0.898  0.00  0.00    +0.000 A 
ATOM      6  C   UNL     1       5.271   2.115  -0.917  0.00  0.00    +0.000 A 
ENDROOT
BRANCH   1   7
ATOM      7  C   UNL     1       3.006   1.109  -0.970  0.00  0.00    +0.000 C 
ATOM      8  O   UNL     1       2.439   2.190  -0.942  0.00  0.00    +0.000 OA
BRANCH   7  10
ATOM      9  C   UNL     1       0.972  -0.036  -1.051  0.00  0.00    +0.000 C 
ATOM     10  O   UNL     1       2.399  -0.103  -1.025  0.00  0.00    +0.000 OA
ENDBRANCH   7  10
ENDBRANCH   1   7
BRANCH   4  11
ATOM     11  C   UNL     1       8.769   0.724  -0.871  0.00  0.00    +0.000 C 
ATOM     12  C   UNL     1       9.508  -0.173  -1.543  0.00  0.00    +0.000 C 
BRANCH  12  13
ATOM     13  C   UNL     1      10.977  -0.212  -1.506  0.00  0.00    +0.000 A 
ATOM     14  C   UNL     1      11.703   0.019  -0.330  0.00  0.00    +0.000 A 
ATOM     15  C   UNL     1      13.098  -0.058  -0.328  0.00  0.00    +0.000 A 
ATOM     16  C   UNL     1      13.781  -0.378  -1.499  0.00  0.00    +0.000 A 
ATOM     17  C   UNL     1      13.071  -0.626  -2.672  0.00  0.00    +0.000 A 
ATOM     18  C   UNL     1      11.676  -0.549  -2.673  0.00  0.00    +0.000 A 
ENDBRANCH  12  13
ENDBRANCH   4  11
TORSDOF 4
