REMARK  Name = *****
REMARK  4 active torsions:
REMARK  status: ('A' for Active; 'I' for Inactive)
REMARK    1  A    between atoms: C_1  and  C_2
REMARK    2  A    between atoms: C_3  and  C_16
REMARK    3  A    between atoms: C_4  and  N_8
REMARK    4  A    between atoms: C_9  and  C_10
REMARK                            x       y       z     vdW  Elec       q    Type
REMARK                         _______ _______ _______ _____ _____    ______ ____
ROOT
ATOM      1  C   UNL     1       1.697   1.335  -0.660  0.00  0.00    +0.000 C 
ATOM      2  C   UNL     1       0.470   0.626  -0.154  0.00  0.00    +0.000 A 
ATOM      3  C   UNL     1       0.463  -0.767   0.091  0.00  0.00    +0.000 A 
ATOM      4  C   UNL     1      -0.726  -1.385   0.534  0.00  0.00    +0.000 A 
ATOM      5  C   UNL     1      -1.859  -0.607   0.798  0.00  0.00    +0.000 A 
ATOM      6  C   UNL     1      -1.841   0.768   0.589  0.00  0.00    +0.000 A 
ATOM      7  C   UNL     1      -0.685   1.379   0.110  0.00  0.00    +0.000 A 
ATOM      8  C   UNL     1       1.689  -1.605  -0.170  0.00  0.00    +0.000 C 
ENDROOT
BRANCH   4   9
ATOM      9  N   UNL     1      -0.797  -2.772   0.750  0.00  0.00    +0.000 NA
ATOM     10  C   UNL     1      -1.228  -3.474  -0.250  0.00  0.00    +0.000 C 
BRANCH  10  11
ATOM     11  C   UNL     1      -1.354  -4.943  -0.178  0.00  0.00    +0.000 A 
ATOM     12  C   UNL     1      -0.999  -5.636   0.983  0.00  0.00    +0.000 A 
ATOM     13  C   UNL     1      -1.126  -7.025   1.026  0.00  0.00    +0.000 A 
ATOM     14  C   UNL     1      -1.607  -7.717  -0.086  0.00  0.00    +0.000 A 
ATOM     15  C   UNL     1      -1.962  -7.023  -1.244  0.00  0.00    +0.000 A 
ATOM     16  C   UNL     1      -1.836  -5.634  -1.293  0.00  0.00    +0.000 A 
ENDBRANCH  10  11
ENDBRANCH   4   9
TORSDOF 2
