REMARK  Name = *****
REMARK  3 active torsions:
REMARK  status: ('A' for Active; 'I' for Inactive)
REMARK    1  A    between atoms: C_6  and  O_7
REMARK    2  A    between atoms: O_7  and  S_8
REMARK    3  A    between atoms: S_8  and  C_10
REMARK                            x       y       z     vdW  Elec       q    Type
REMARK                         _______ _______ _______ _____ _____    ______ ____
ROOT
ATOM      1  S   UNL     1       4.659   1.785  -0.647  0.00  0.00    +0.000 S 
ATOM      2  O   UNL     1       4.404   3.033   0.148  0.00  0.00    +0.000 OA
ENDROOT
BRANCH   1   3
ATOM      3  C   UNL     1       6.318   1.232  -0.168  0.00  0.00    +0.000 A 
ATOM      4  C   UNL     1       6.833   0.042  -0.700  0.00  0.00    +0.000 A 
ATOM      5  C   UNL     1       8.117  -0.388  -0.350  0.00  0.00    +0.000 A 
ATOM      6  C   UNL     1       8.888   0.373   0.527  0.00  0.00    +0.000 A 
ATOM      7  C   UNL     1       8.388   1.561   1.057  0.00  0.00    +0.000 A 
ATOM      8  C   UNL     1       7.105   1.991   0.707  0.00  0.00    +0.000 A 
ATOM      9 CL   UNL     1      10.467  -0.157   0.956  0.00  0.00    +0.000 Cl
ENDBRANCH   1   3
BRANCH   1  10
ATOM     10  O   UNL     1       3.943   0.561   0.126  0.00  0.00    +0.000 OA
BRANCH  10  16
ATOM     11  C   UNL     1       1.615   1.185  -0.069  0.00  0.00    +0.000 A 
ATOM     12  C   UNL     1       0.320   0.846  -0.466  0.00  0.00    +0.000 A 
ATOM     13  C   UNL     1       0.080  -0.393  -1.060  0.00  0.00    +0.000 A 
ATOM     14  C   UNL     1       1.122  -1.300  -1.253  0.00  0.00    +0.000 A 
ATOM     15  C   UNL     1       2.417  -0.963  -0.856  0.00  0.00    +0.000 A 
ATOM     16  C   UNL     1       2.664   0.287  -0.285  0.00  0.00    +0.000 A 
ATOM     17 CL   UNL     1      -1.516  -0.810  -1.549  0.00  0.00    +0.000 Cl
ENDBRANCH  10  16
ENDBRANCH   1  10
TORSDOF 3
