REMARK  Name = *****
REMARK  3 active torsions:
REMARK  status: ('A' for Active; 'I' for Inactive)
REMARK    1  A    between atoms: C_2  and  C_3
REMARK    2  A    between atoms: C_6  and  C_9
REMARK    3  A    between atoms: C_10  and  C_11
REMARK                            x       y       z     vdW  Elec       q    Type
REMARK                         _______ _______ _______ _____ _____    ______ ____
ROOT
ATOM      1  C   UNL     1       3.921   0.131  -0.027  0.00  0.00    +0.000 A 
ATOM      2  C   UNL     1       4.586   1.353  -0.158  0.00  0.00    +0.000 A 
ATOM      3  C   UNL     1       5.959   1.378  -0.419  0.00  0.00    +0.000 A 
ATOM      4  C   UNL     1       6.669   0.182  -0.549  0.00  0.00    +0.000 A 
ATOM      5  C   UNL     1       6.005  -1.039  -0.417  0.00  0.00    +0.000 A 
ATOM      6  C   UNL     1       4.631  -1.065  -0.156  0.00  0.00    +0.000 A 
ENDROOT
BRANCH   1   8
ATOM      7  C   UNL     1       1.336   0.083   0.460  0.00  0.00    +0.000 C 
ATOM      8  C   UNL     1       2.516   0.105   0.238  0.00  0.00    +0.000 C 
ENDBRANCH   1   8
BRANCH   4   9
ATOM      9  C   UNL     1       8.073   0.209  -0.820  0.00  0.00    +0.000 C 
ATOM     10  C   UNL     1       9.252   0.231  -1.050  0.00  0.00    +0.000 C 
BRANCH  10  11
ATOM     11  C   UNL     1      10.655   0.257  -1.327  0.00  0.00    +0.000 A 
ATOM     12  C   UNL     1      11.320   1.479  -1.458  0.00  0.00    +0.000 A 
ATOM     13  C   UNL     1      12.689   1.504  -1.731  0.00  0.00    +0.000 A 
ATOM     14  C   UNL     1      13.394   0.309  -1.873  0.00  0.00    +0.000 A 
ATOM     15  C   UNL     1      12.732  -0.912  -1.742  0.00  0.00    +0.000 A 
ATOM     16  C   UNL     1      11.363  -0.939  -1.470  0.00  0.00    +0.000 A 
ENDBRANCH  10  11
ENDBRANCH   4   9
TORSDOF 3
