REMARK  Name = *****
REMARK  4 active torsions:
REMARK  status: ('A' for Active; 'I' for Inactive)
REMARK    1  A    between atoms: C_6  and  C_7
REMARK    2  A    between atoms: C_7  and  S_8
REMARK    3  A    between atoms: S_8  and  C_9
REMARK    4  A    between atoms: C_9  and  C_10
REMARK                            x       y       z     vdW  Elec       q    Type
REMARK                         _______ _______ _______ _____ _____    ______ ____
ROOT
ATOM      1  S   UNL     1       2.210   2.662   1.575  0.00  0.00    +0.000 S 
ENDROOT
BRANCH   1   2
ATOM      2  C   UNL     1       1.972   0.883   1.235  0.00  0.00    +0.000 C 
BRANCH   2   8
ATOM      3  C   UNL     1       0.992  -0.841  -0.347  0.00  0.00    +0.000 C 
ATOM      4  C   UNL     1       0.160  -1.766   0.493  0.00  0.00    +0.000 C 
ATOM      5  C   UNL     1      -0.785  -1.417   1.374  0.00  0.00    +0.000 C 
ATOM      6  S   UNL     1      -1.239   0.209   1.725  0.00  0.00    +0.000 S 
ATOM      7  C   UNL     1      -0.453   1.100   0.348  0.00  0.00    +0.000 C 
ATOM      8  C   UNL     1       0.985   0.641   0.074  0.00  0.00    +0.000 C 
ENDBRANCH   2   8
ENDBRANCH   1   2
BRANCH   1   9
ATOM      9  C   UNL     1       3.489   2.529   2.870  0.00  0.00    +0.000 C 
BRANCH   9  10
ATOM     10  C   UNL     1       3.900   3.902   3.436  0.00  0.00    +0.000 C 
ATOM     11  C   UNL     1       2.748   4.571   4.210  0.00  0.00    +0.000 C 
ATOM     12  C   UNL     1       3.137   5.754   5.048  0.00  0.00    +0.000 C 
ATOM     13  C   UNL     1       4.379   6.143   5.362  0.00  0.00    +0.000 C 
ATOM     14  S   UNL     1       5.807   5.324   4.855  0.00  0.00    +0.000 S 
ATOM     15  C   UNL     1       5.123   3.723   4.341  0.00  0.00    +0.000 C 
ENDBRANCH   9  10
ENDBRANCH   1   9
TORSDOF 4
