REMARK  Name = *****
REMARK  5 active torsions:
REMARK  status: ('A' for Active; 'I' for Inactive)
REMARK    1  A    between atoms: C_1  and  C_2
REMARK    2  A    between atoms: C_3  and  C_9
REMARK    3  A    between atoms: C_4  and  C_8
REMARK    4  A    between atoms: C_10  and  C_11
REMARK    5  A    between atoms: C_16  and  C_17
REMARK                            x       y       z     vdW  Elec       q    Type
REMARK                         _______ _______ _______ _____ _____    ______ ____
ROOT
ATOM      1  C   UNL     1       2.496  -2.465   0.255  0.00  0.00    +0.000 C 
ATOM      2  C   UNL     1       1.886  -3.497   0.348  0.00  0.00    +0.000 C 
ENDROOT
BRANCH   1   5
ATOM      3  C   UNL     1       1.065   0.075   0.036  0.00  0.00    +0.000 C 
ATOM      4  C   UNL     1       2.568  -0.009   0.035  0.00  0.00    +0.000 A 
ATOM      5  C   UNL     1       3.244  -1.242   0.143  0.00  0.00    +0.000 A 
ATOM      6  C   UNL     1       4.654  -1.283   0.142  0.00  0.00    +0.000 A 
ATOM      7  C   UNL     1       5.373  -0.083   0.034  0.00  0.00    +0.000 A 
ATOM      8  C   UNL     1       4.708   1.136  -0.071  0.00  0.00    +0.000 A 
ATOM      9  C   UNL     1       3.316   1.174  -0.070  0.00  0.00    +0.000 A 
ATOM     10  C   UNL     1       5.409  -2.580   0.256  0.00  0.00    +0.000 C 
ENDBRANCH   1   5
BRANCH   2  11
ATOM     11  C   UNL     1       1.184  -4.741   0.457  0.00  0.00    +0.000 A 
ATOM     12  C   UNL     1       1.938  -5.921   0.489  0.00  0.00    +0.000 A 
ATOM     13  C   UNL     1       1.309  -7.164   0.593  0.00  0.00    +0.000 A 
ATOM     14  C   UNL     1      -0.080  -7.239   0.665  0.00  0.00    +0.000 A 
ATOM     15  C   UNL     1      -0.842  -6.071   0.634  0.00  0.00    +0.000 A 
ATOM     16  C   UNL     1      -0.214  -4.820   0.530  0.00  0.00    +0.000 A 
BRANCH  16  17
ATOM     17  C   UNL     1      -1.063  -3.608   0.500  0.00  0.00    +0.000 C 
ATOM     18  O   UNL     1      -2.287  -3.670   0.559  0.00  0.00    +0.000 OA
ENDBRANCH  16  17
ENDBRANCH   2  11
TORSDOF 3
