REMARK  Name = *****
REMARK  3 active torsions:
REMARK  status: ('A' for Active; 'I' for Inactive)
REMARK    1  A    between atoms: N_2  and  C_11
REMARK    2  A    between atoms: N_3  and  C_4
REMARK    3  A    between atoms: C_5  and  C_9
REMARK                            x       y       z     vdW  Elec       q    Type
REMARK                         _______ _______ _______ _____ _____    ______ ____
ROOT
ATOM      1  C   UNL     1       0.007   0.226   0.048  0.00  0.00    +0.000 C 
ATOM      2  N   UNL     1       0.487  -1.071   0.504  0.00  0.00    +0.000 N 
ATOM      3  N   UNL     1      -0.467  -1.044  -0.475  0.00  0.00    +0.000 N 
ENDROOT
BRANCH   2   4
ATOM      4  C   UNL     1       1.818  -1.444   0.178  0.00  0.00    +0.000 A 
ATOM      5  C   UNL     1       2.649  -1.872   1.224  0.00  0.00    +0.000 A 
ATOM      6  C   UNL     1       3.969  -2.260   0.983  0.00  0.00    +0.000 A 
ATOM      7  C   UNL     1       4.476  -2.231  -0.314  0.00  0.00    +0.000 A 
ATOM      8  C   UNL     1       3.663  -1.820  -1.368  0.00  0.00    +0.000 A 
ATOM      9  C   UNL     1       2.342  -1.432  -1.124  0.00  0.00    +0.000 A 
ENDBRANCH   2   4
BRANCH   3  10
ATOM     10  C   UNL     1      -1.760  -1.401  -0.184  0.00  0.00    +0.000 A 
ATOM     11  C   UNL     1      -2.679  -1.856  -1.119  0.00  0.00    +0.000 A 
ATOM     12  C   UNL     1      -3.949  -2.182  -0.554  0.00  0.00    +0.000 A 
ATOM     13  C   UNL     1      -3.974  -1.982   0.805  0.00  0.00    +0.000 A 
ATOM     14  S   UNL     1      -2.477  -1.413   1.393  0.00  0.00    +0.000 S 
BRANCH  11  15
ATOM     15  C   UNL     1      -2.374  -1.977  -2.515  0.00  0.00    +0.000 C 
ATOM     16  N   UNL     1      -2.157  -2.072  -3.651  0.00  0.00    +0.000 NA
ENDBRANCH  11  15
ENDBRANCH   3  10
TORSDOF 3
