REMARK  Name = *****
REMARK  4 active torsions:
REMARK  status: ('A' for Active; 'I' for Inactive)
REMARK    1  A    between atoms: C_4  and  C_7
REMARK    2  A    between atoms: C_8  and  C_9
REMARK    3  A    between atoms: C_10  and  C_11
REMARK    4  A    between atoms: C_11  and  C_12
REMARK                            x       y       z     vdW  Elec       q    Type
REMARK                         _______ _______ _______ _____ _____    ______ ____
ROOT
ATOM      1  C   UNL     1      -2.730   0.543  -0.308  0.00  0.00    +0.000 C 
ATOM      2  C   UNL     1      -3.774  -0.185   0.124  0.00  0.00    +0.000 C 
ENDROOT
BRANCH   1   6
ATOM      3  C   UNL     1       1.367  -0.547   0.242  0.00  0.00    +0.000 A 
ATOM      4  C   UNL     1       0.449  -1.512  -0.167  0.00  0.00    +0.000 A 
ATOM      5  C   UNL     1      -0.894  -1.169  -0.344  0.00  0.00    +0.000 A 
ATOM      6  C   UNL     1      -1.331   0.140  -0.104  0.00  0.00    +0.000 A 
ATOM      7  C   UNL     1      -0.396   1.105   0.290  0.00  0.00    +0.000 A 
ATOM      8  C   UNL     1       0.946   0.762   0.468  0.00  0.00    +0.000 A 
ENDBRANCH   1   6
BRANCH   2   9
ATOM      9  C   UNL     1      -5.181   0.137  -0.040  0.00  0.00    +0.000 C 
ATOM     10  C   UNL     1      -6.193  -0.515   0.561  0.00  0.00    +0.000 C 
ATOM     11 CL   UNL     1      -5.620   1.420  -1.138  0.00  0.00    +0.000 Cl
BRANCH  10  12
ATOM     12  C   UNL     1      -6.119  -1.638   1.564  0.00  0.00    +0.000 C 
BRANCH  12  13
ATOM     13  C   UNL     1      -6.595  -2.978   1.007  0.00  0.00    +0.000 C 
ATOM     14 CL   UNL     1      -5.436  -3.655  -0.164  0.00  0.00    +0.000 Cl
ENDBRANCH  12  13
ENDBRANCH  10  12
ENDBRANCH   2   9
TORSDOF 4
