REMARK  Name = *****
REMARK  4 active torsions:
REMARK  status: ('A' for Active; 'I' for Inactive)
REMARK    1  A    between atoms: C_1  and  S_2
REMARK    2  A    between atoms: S_2  and  C_4
REMARK    3  A    between atoms: C_8  and  C_10
REMARK    4  A    between atoms: C_11  and  C_12
REMARK                            x       y       z     vdW  Elec       q    Type
REMARK                         _______ _______ _______ _____ _____    ______ ____
ROOT
ATOM      1  C   UNL     1       3.218   1.190   1.213  0.00  0.00    +0.000 A 
ATOM      2  C   UNL     1       3.079   2.552   0.927  0.00  0.00    +0.000 A 
ATOM      3  C   UNL     1       3.364   3.508   1.903  0.00  0.00    +0.000 A 
ATOM      4  C   UNL     1       3.798   3.105   3.166  0.00  0.00    +0.000 A 
ATOM      5  C   UNL     1       3.949   1.747   3.455  0.00  0.00    +0.000 A 
ATOM      6  C   UNL     1       3.658   0.788   2.480  0.00  0.00    +0.000 A 
ENDROOT
BRANCH   1   8
ATOM      7  C   UNL     1       1.147  -0.390   0.476  0.00  0.00    +0.000 C 
ATOM      8  S   UNL     1       2.853  -0.062  -0.039  0.00  0.00    +0.000 S 
ATOM      9  O   UNL     1       2.785   0.672  -1.346  0.00  0.00    +0.000 OA
ENDBRANCH   1   8
BRANCH   5  10
ATOM     10  C   UNL     1       4.412   1.341   4.746  0.00  0.00    +0.000 C 
ATOM     11  C   UNL     1       4.813   1.019   5.831  0.00  0.00    +0.000 C 
BRANCH  11  12
ATOM     12  C   UNL     1       5.303   0.656   7.125  0.00  0.00    +0.000 A 
ATOM     13  C   UNL     1       5.465   1.634   8.110  0.00  0.00    +0.000 A 
ATOM     14  C   UNL     1       5.950   1.284   9.371  0.00  0.00    +0.000 A 
ATOM     15  C   UNL     1       6.273  -0.043   9.650  0.00  0.00    +0.000 A 
ATOM     16  C   UNL     1       6.112  -1.022   8.669  0.00  0.00    +0.000 A 
ATOM     17  C   UNL     1       5.627  -0.673   7.407  0.00  0.00    +0.000 A 
ENDBRANCH  11  12
ENDBRANCH   5  10
TORSDOF 3
