REMARK  Name = *****
REMARK  2 active torsions:
REMARK  status: ('A' for Active; 'I' for Inactive)
REMARK    1  A    between atoms: P_8  and  C_11
REMARK    2  A    between atoms: C_11  and  C_12
REMARK                            x       y       z     vdW  Elec       q    Type
REMARK                         _______ _______ _______ _____ _____    ______ ____
ROOT
ATOM      1  C   UNL     1      -0.739   1.550  -0.601  0.00  0.00    +0.000 C 
ATOM      2  C   UNL     1      -1.967   1.152   0.165  0.00  0.00    +0.000 C 
ATOM      3  C   UNL     1      -2.412  -0.085   0.423  0.00  0.00    +0.000 C 
ATOM      4  C   UNL     1      -1.828  -1.318  -0.038  0.00  0.00    +0.000 C 
ATOM      5  C   UNL     1      -0.539  -1.564  -0.307  0.00  0.00    +0.000 C 
ATOM      6  C   UNL     1       0.577  -0.644  -0.237  0.00  0.00    +0.000 A 
ATOM      7  C   UNL     1       0.476   0.695  -0.390  0.00  0.00    +0.000 A 
ATOM      8  P   UNL     1       2.144   1.491  -0.354  0.00  0.00    +0.000 P 
ATOM      9  C   UNL     1       2.902  -0.138  -0.076  0.00  0.00    +0.000 A 
ATOM     10  C   UNL     1       1.960  -1.090  -0.083  0.00  0.00    +0.000 A 
ENDROOT
BRANCH   8  11
ATOM     11  C   UNL     1       2.125   2.188   1.344  0.00  0.00    +0.000 C 
BRANCH  11  12
ATOM     12  C   UNL     1       3.490   2.806   1.518  0.00  0.00    +0.000 A 
ATOM     13  C   UNL     1       3.760   4.103   1.050  0.00  0.00    +0.000 A 
ATOM     14  C   UNL     1       5.020   4.677   1.231  0.00  0.00    +0.000 A 
ATOM     15  C   UNL     1       6.023   3.968   1.888  0.00  0.00    +0.000 A 
ATOM     16  C   UNL     1       5.768   2.685   2.368  0.00  0.00    +0.000 A 
ATOM     17  C   UNL     1       4.509   2.108   2.188  0.00  0.00    +0.000 A 
ENDBRANCH  11  12
ENDBRANCH   8  11
TORSDOF 2
