REMARK  Name = *****
REMARK  4 active torsions:
REMARK  status: ('A' for Active; 'I' for Inactive)
REMARK    1  A    between atoms: C_1  and  C_2
REMARK    2  A    between atoms: C_5  and  C_8
REMARK    3  A    between atoms: C_9  and  C_10
REMARK    4  A    between atoms: C_13  and  C_16
REMARK                            x       y       z     vdW  Elec       q    Type
REMARK                         _______ _______ _______ _____ _____    ______ ____
ROOT
ATOM      1  C   UNL     1       6.886   0.147  -0.809  0.00  0.00    +0.000 C 
ATOM      2  C   UNL     1       8.061   0.168  -1.060  0.00  0.00    +0.000 C 
ENDROOT
BRANCH   1   7
ATOM      3  C   UNL     1       1.238   0.039   0.188  0.00  0.00    +0.000 C 
ATOM      4  C   UNL     1       2.719   0.077  -0.044  0.00  0.00    +0.000 A 
ATOM      5  C   UNL     1       3.394   1.296  -0.184  0.00  0.00    +0.000 A 
ATOM      6  C   UNL     1       4.770   1.319  -0.427  0.00  0.00    +0.000 A 
ATOM      7  C   UNL     1       5.482   0.123  -0.537  0.00  0.00    +0.000 A 
ATOM      8  C   UNL     1       4.816  -1.096  -0.400  0.00  0.00    +0.000 A 
ATOM      9  C   UNL     1       3.440  -1.119  -0.157  0.00  0.00    +0.000 A 
ENDBRANCH   1   7
BRANCH   2  10
ATOM     10  C   UNL     1       9.453   0.195  -1.386  0.00  0.00    +0.000 A 
ATOM     11  C   UNL     1      10.110   1.417  -1.547  0.00  0.00    +0.000 A 
ATOM     12  C   UNL     1      11.466   1.444  -1.886  0.00  0.00    +0.000 A 
ATOM     13  C   UNL     1      12.170   0.247  -2.066  0.00  0.00    +0.000 A 
ATOM     14  C   UNL     1      11.510  -0.976  -1.899  0.00  0.00    +0.000 A 
ATOM     15  C   UNL     1      10.153  -1.001  -1.560  0.00  0.00    +0.000 A 
BRANCH  13  16
ATOM     16  C   UNL     1      13.560   0.274  -2.422  0.00  0.00    +0.000 C 
ATOM     17  C   UNL     1      14.716   0.297  -2.721  0.00  0.00    +0.000 C 
ENDBRANCH  13  16
ENDBRANCH   2  10
TORSDOF 3
