REMARK  Name = *****
REMARK  5 active torsions:
REMARK  status: ('A' for Active; 'I' for Inactive)
REMARK    1  A    between atoms: C_1  and  C_2
REMARK    2  A    between atoms: C_2  and  C_7
REMARK    3  A    between atoms: C_8  and  C_9
REMARK    4  A    between atoms: C_14  and  O_15
REMARK    5  A    between atoms: O_15  and  C_16
REMARK                            x       y       z     vdW  Elec       q    Type
REMARK                         _______ _______ _______ _____ _____    ______ ____
ROOT
ATOM      1  C   UNL     1       0.503   1.178   1.822  0.00  0.00    +0.000 C 
ATOM      2  C   UNL     1      -0.011   2.260   2.433  0.00  0.00    +0.000 C 
ENDROOT
BRANCH   1   4
ATOM      3  C   UNL     1      -0.618   1.648  -0.456  0.00  0.00    +0.000 C 
ATOM      4  C   UNL     1       0.297   0.754   0.388  0.00  0.00    +0.000 C 
ATOM      5  S   UNL     1      -0.419  -0.938   0.398  0.00  0.00    +0.000 S 
ATOM      6  C   UNL     1       1.081  -1.816  -0.107  0.00  0.00    +0.000 C 
ATOM      7  C   UNL     1       1.798  -0.952  -1.123  0.00  0.00    +0.000 C 
ATOM      8  S   UNL     1       1.950   0.706  -0.417  0.00  0.00    +0.000 S 
ENDBRANCH   1   4
BRANCH   2   9
ATOM      9  C   UNL     1       0.252   2.595   3.843  0.00  0.00    +0.000 A 
ATOM     10  C   UNL     1      -0.845   2.963   4.637  0.00  0.00    +0.000 A 
ATOM     11  C   UNL     1      -0.677   3.296   5.984  0.00  0.00    +0.000 A 
ATOM     12  C   UNL     1       0.592   3.268   6.558  0.00  0.00    +0.000 A 
ATOM     13  C   UNL     1       1.696   2.919   5.782  0.00  0.00    +0.000 A 
ATOM     14  C   UNL     1       1.530   2.610   4.429  0.00  0.00    +0.000 A 
BRANCH  14  15
ATOM     15  O   UNL     1       2.656   2.264   3.725  0.00  0.00    +0.000 OA
ATOM     16  C   UNL     1       3.188   3.407   3.055  0.00  0.00    +0.000 C 
ENDBRANCH  14  15
ENDBRANCH   2   9
TORSDOF 3
