REMARK  Name = *****
REMARK  4 active torsions:
REMARK  status: ('A' for Active; 'I' for Inactive)
REMARK    1  A    between atoms: C_4  and  C_7
REMARK    2  A    between atoms: C_8  and  C_9
REMARK    3  A    between atoms: C_12  and  C_15
REMARK    4  A    between atoms: C_15  and  S_16
REMARK                            x       y       z     vdW  Elec       q    Type
REMARK                         _______ _______ _______ _____ _____    ______ ____
ROOT
ATOM      1  C   UNL     1      -5.142  -0.246  -0.625  0.00  0.00    +0.000 A 
ATOM      2  C   UNL     1      -5.619   0.829  -1.385  0.00  0.00    +0.000 A 
ATOM      3  C   UNL     1      -6.992   1.025  -1.562  0.00  0.00    +0.000 A 
ATOM      4  C   UNL     1      -7.918   0.144  -0.987  0.00  0.00    +0.000 A 
ATOM      5  C   UNL     1      -7.441  -0.946  -0.247  0.00  0.00    +0.000 A 
ATOM      6  C   UNL     1      -6.068  -1.140  -0.072  0.00  0.00    +0.000 A 
ENDROOT
BRANCH   1   8
ATOM      7  C   UNL     1      -2.783   0.455  -0.293  0.00  0.00    +0.000 C 
ATOM      8  C   UNL     1      -3.707  -0.507  -0.444  0.00  0.00    +0.000 C 
BRANCH   7  12
ATOM      9  C   UNL     1       1.409  -0.195   0.277  0.00  0.00    +0.000 A 
ATOM     10  C   UNL     1       0.692  -1.042  -0.566  0.00  0.00    +0.000 A 
ATOM     11  C   UNL     1      -0.679  -0.846  -0.755  0.00  0.00    +0.000 A 
ATOM     12  C   UNL     1      -1.349   0.193  -0.096  0.00  0.00    +0.000 A 
ATOM     13  C   UNL     1      -0.613   1.048   0.736  0.00  0.00    +0.000 A 
ATOM     14  C   UNL     1       0.757   0.852   0.925  0.00  0.00    +0.000 A 
ENDBRANCH   7  12
ENDBRANCH   1   8
BRANCH   4  15
ATOM     15  C   UNL     1      -9.397   0.345  -1.190  0.00  0.00    +0.000 C 
BRANCH  15  16
ATOM     16  S   UNL     1     -10.033  -0.640  -2.572  0.00  0.00    +0.000 S 
ATOM     17  H   UNL     1      -9.414  -0.260  -3.722  0.00  0.00    +0.000 HD
ENDBRANCH  15  16
ENDBRANCH   4  15
TORSDOF 4
