REMARK  Name = *****
REMARK  5 active torsions:
REMARK  status: ('A' for Active; 'I' for Inactive)
REMARK    1  A    between atoms: C_4  and  C_7
REMARK    2  A    between atoms: C_7  and  C_8
REMARK    3  A    between atoms: C_8  and  C_10
REMARK    4  A    between atoms: C_10  and  C_11
REMARK    5  A    between atoms: C_16  and  C_17
REMARK                            x       y       z     vdW  Elec       q    Type
REMARK                         _______ _______ _______ _____ _____    ______ ____
ROOT
ATOM      1  C   UNL     1       6.872  -1.083  -0.943  0.00  0.00    +0.000 C 
ATOM      2  O   UNL     1       6.099  -0.900   0.003  0.00  0.00    +0.000 OA
ENDROOT
BRANCH   1   3
ATOM      3  C   UNL     1       6.413  -0.906  -2.377  0.00  0.00    +0.000 C 
BRANCH   3   7
ATOM      4  C   UNL     1       7.630   2.884  -4.040  0.00  0.00    +0.000 A 
ATOM      5  C   UNL     1       8.006   1.696  -4.665  0.00  0.00    +0.000 A 
ATOM      6  C   UNL     1       7.614   0.468  -4.130  0.00  0.00    +0.000 A 
ATOM      7  C   UNL     1       6.844   0.417  -2.960  0.00  0.00    +0.000 A 
ATOM      8  C   UNL     1       6.460   1.620  -2.348  0.00  0.00    +0.000 A 
ATOM      9  C   UNL     1       6.855   2.846  -2.884  0.00  0.00    +0.000 A 
ENDBRANCH   3   7
ENDBRANCH   1   3
BRANCH   1  10
ATOM     10  C   UNL     1       8.315  -1.493  -0.714  0.00  0.00    +0.000 C 
BRANCH  10  11
ATOM     11  C   UNL     1       8.509  -2.992  -0.778  0.00  0.00    +0.000 A 
ATOM     12  C   UNL     1       7.856  -3.785   0.185  0.00  0.00    +0.000 A 
ATOM     13  C   UNL     1       7.995  -5.172   0.191  0.00  0.00    +0.000 A 
ATOM     14  C   UNL     1       8.794  -5.790  -0.763  0.00  0.00    +0.000 A 
ATOM     15  C   UNL     1       9.453  -5.020  -1.721  0.00  0.00    +0.000 A 
ATOM     16  C   UNL     1       9.323  -3.621  -1.743  0.00  0.00    +0.000 A 
ATOM     17  C   UNL     1      10.071  -2.845  -2.792  0.00  0.00    +0.000 C 
ENDBRANCH  10  11
ENDBRANCH   1  10
TORSDOF 4
