REMARK  Name = *****
REMARK  4 active torsions:
REMARK  status: ('A' for Active; 'I' for Inactive)
REMARK    1  A    between atoms: C_6  and  C_8
REMARK    2  A    between atoms: C_8  and  C_10
REMARK    3  A    between atoms: C_10  and  C_11
REMARK    4  A    between atoms: C_11  and  C_12
REMARK                            x       y       z     vdW  Elec       q    Type
REMARK                         _______ _______ _______ _____ _____    ______ ____
ROOT
ATOM      1  C   UNL     1      -2.593   1.651  -0.424  0.00  0.00    +0.000 C 
ATOM      2  O   UNL     1      -2.483   2.864  -0.245  0.00  0.00    +0.000 OA
ENDROOT
BRANCH   1   8
ATOM      3  C   UNL     1      -0.410  -1.588   0.042  0.00  0.00    +0.000 C 
ATOM      4  C   UNL     1       0.769  -1.097   0.878  0.00  0.00    +0.000 C 
ATOM      5  C   UNL     1       1.750  -0.232   0.102  0.00  0.00    +0.000 C 
ATOM      6  C   UNL     1       1.137   0.781  -0.851  0.00  0.00    +0.000 C 
ATOM      7  C   UNL     1      -0.059   1.538  -0.278  0.00  0.00    +0.000 C 
ATOM      8  C   UNL     1      -1.367   0.771  -0.282  0.00  0.00    +0.000 C 
ATOM      9  C   UNL     1      -1.494  -0.568  -0.199  0.00  0.00    +0.000 C 
ATOM     10  F   UNL     1       2.545  -1.059  -0.642  0.00  0.00    +0.000 F 
ENDBRANCH   1   8
BRANCH   1  11
ATOM     11  C   UNL     1      -3.932   1.018  -0.766  0.00  0.00    +0.000 C 
BRANCH  11  12
ATOM     12  C   UNL     1      -4.984   2.073  -1.106  0.00  0.00    +0.000 C 
BRANCH  12  13
ATOM     13  C   UNL     1      -6.296   1.434  -1.490  0.00  0.00    +0.000 A 
ATOM     14  C   UNL     1      -7.267   1.165  -0.516  0.00  0.00    +0.000 A 
ATOM     15  C   UNL     1      -8.471   0.553  -0.868  0.00  0.00    +0.000 A 
ATOM     16  C   UNL     1      -8.713   0.202  -2.195  0.00  0.00    +0.000 A 
ATOM     17  C   UNL     1      -7.752   0.461  -3.170  0.00  0.00    +0.000 A 
ATOM     18  C   UNL     1      -6.548   1.073  -2.820  0.00  0.00    +0.000 A 
ENDBRANCH  12  13
ENDBRANCH  11  12
ENDBRANCH   1  11
TORSDOF 4
