REMARK  Name = *****
REMARK  4 active torsions:
REMARK  status: ('A' for Active; 'I' for Inactive)
REMARK    1  A    between atoms: C_3  and  C_18
REMARK    2  A    between atoms: C_6  and  C_7
REMARK    3  A    between atoms: C_8  and  C_9
REMARK    4  A    between atoms: C_12  and  C_15
REMARK                            x       y       z     vdW  Elec       q    Type
REMARK                         _______ _______ _______ _____ _____    ______ ____
ROOT
ATOM      1  C   UNL     1       1.796   2.219  -0.377  0.00  0.00    +0.000 C 
ATOM      2  C   UNL     1       3.134   2.110  -0.422  0.00  0.00    +0.000 C 
ENDROOT
BRANCH   1   8
ATOM      3  C   UNL     1       1.104  -0.151  -0.849  0.00  0.00    +0.000 A 
ATOM      4  C   UNL     1       0.205  -1.208  -0.683  0.00  0.00    +0.000 A 
ATOM      5  C   UNL     1      -0.921  -1.041   0.125  0.00  0.00    +0.000 A 
ATOM      6  C   UNL     1      -1.156   0.177   0.765  0.00  0.00    +0.000 A 
ATOM      7  C   UNL     1      -0.253   1.232   0.595  0.00  0.00    +0.000 A 
ATOM      8  C   UNL     1       0.891   1.074  -0.201  0.00  0.00    +0.000 A 
BRANCH   5   9
ATOM      9  C   UNL     1      -1.878  -2.152   0.305  0.00  0.00    +0.000 C 
ATOM     10  O   UNL     1      -1.723  -3.240  -0.234  0.00  0.00    +0.000 OA
ENDBRANCH   5   9
ENDBRANCH   1   8
BRANCH   2  11
ATOM     11  C   UNL     1       4.042   3.251  -0.603  0.00  0.00    +0.000 A 
ATOM     12  C   UNL     1       3.817   4.492   0.005  0.00  0.00    +0.000 A 
ATOM     13  C   UNL     1       4.721   5.545  -0.171  0.00  0.00    +0.000 A 
ATOM     14  C   UNL     1       5.875   5.374  -0.949  0.00  0.00    +0.000 A 
ATOM     15  C   UNL     1       6.111   4.129  -1.544  0.00  0.00    +0.000 A 
ATOM     16  C   UNL     1       5.203   3.077  -1.365  0.00  0.00    +0.000 A 
BRANCH  14  17
ATOM     17  C   UNL     1       6.818   6.530  -1.113  0.00  0.00    +0.000 C 
ATOM     18  O   UNL     1       6.521   7.583  -0.551  0.00  0.00    +0.000 OA
ATOM     19 CL   UNL     1       8.270   6.342  -2.074  0.00  0.00    +0.000 Cl
ENDBRANCH  14  17
ENDBRANCH   2  11
TORSDOF 4
