REMARK  Name = *****
REMARK  2 active torsions:
REMARK  status: ('A' for Active; 'I' for Inactive)
REMARK    1  A    between atoms: C_4  and  C_7
REMARK    2  A    between atoms: N_8  and  C_9
REMARK                            x       y       z     vdW  Elec       q    Type
REMARK                         _______ _______ _______ _____ _____    ______ ____
ROOT
ATOM      1  C   UNL     1      -1.299  -2.524  -0.488  0.00  0.00    +0.000 C 
ATOM      2  N   UNL     1      -1.976  -2.512  -1.594  0.00  0.00    +0.000 NA
ENDROOT
BRANCH   1   6
ATOM      3  C   UNL     1       0.914   1.213  -0.143  0.00  0.00    +0.000 C 
ATOM      4  C   UNL     1       1.485  -0.034   0.526  0.00  0.00    +0.000 C 
ATOM      5  C   UNL     1       0.802  -1.308   0.028  0.00  0.00    +0.000 C 
ATOM      6  C   UNL     1      -0.731  -1.257   0.137  0.00  0.00    +0.000 C 
ATOM      7  C   UNL     1      -1.287   0.027  -0.500  0.00  0.00    +0.000 C 
ATOM      8  C   UNL     1      -0.601   1.295   0.010  0.00  0.00    +0.000 C 
ATOM      9 CL   UNL     1      -1.220  -1.334   1.873  0.00  0.00    +0.000 Cl
ENDBRANCH   1   6
BRANCH   2  10
ATOM     10  C   UNL     1      -2.418  -3.761  -2.048  0.00  0.00    +0.000 A 
ATOM     11  C   UNL     1      -3.644  -4.277  -1.621  0.00  0.00    +0.000 A 
ATOM     12  C   UNL     1      -4.088  -5.518  -2.081  0.00  0.00    +0.000 A 
ATOM     13  C   UNL     1      -3.310  -6.246  -2.980  0.00  0.00    +0.000 A 
ATOM     14  C   UNL     1      -2.092  -5.730  -3.424  0.00  0.00    +0.000 A 
ATOM     15  C   UNL     1      -1.651  -4.489  -2.962  0.00  0.00    +0.000 A 
ENDBRANCH   2  10
TORSDOF 2
