REMARK  Name = *****
REMARK  6 active torsions:
REMARK  status: ('A' for Active; 'I' for Inactive)
REMARK    1  A    between atoms: C_1  and  C_2
REMARK    2  A    between atoms: C_7  and  C_8
REMARK    3  A    between atoms: C_9  and  C_10
REMARK    4  A    between atoms: C_15  and  N_16
REMARK    5  A    between atoms: N_16  and  C_17
REMARK    6  A    between atoms: N_16  and  C_18
REMARK                            x       y       z     vdW  Elec       q    Type
REMARK                         _______ _______ _______ _____ _____    ______ ____
ROOT
ATOM      1  C   UNL     1       2.483  -2.545  -0.218  0.00  0.00    +0.000 C 
ATOM      2  C   UNL     1       1.887  -3.583  -0.326  0.00  0.00    +0.000 C 
ENDROOT
BRANCH   1   9
ATOM      3  C   UNL     1       0.969  -0.058   0.162  0.00  0.00    +0.000 C 
ATOM      4  C   UNL     1       2.471  -0.088   0.080  0.00  0.00    +0.000 A 
ATOM      5  C   UNL     1       3.196   1.109   0.178  0.00  0.00    +0.000 A 
ATOM      6  C   UNL     1       4.591   1.107   0.101  0.00  0.00    +0.000 A 
ATOM      7  C   UNL     1       5.277  -0.091  -0.076  0.00  0.00    +0.000 A 
ATOM      8  C   UNL     1       4.570  -1.289  -0.178  0.00  0.00    +0.000 A 
ATOM      9  C   UNL     1       3.172  -1.294  -0.101  0.00  0.00    +0.000 A 
ENDBRANCH   1   9
BRANCH   2  10
ATOM     10  C   UNL     1       1.164  -4.815  -0.468  0.00  0.00    +0.000 A 
ATOM     11  C   UNL     1       1.856  -6.009  -0.219  0.00  0.00    +0.000 A 
ATOM     12  C   UNL     1       1.204  -7.236  -0.316  0.00  0.00    +0.000 A 
ATOM     13  C   UNL     1      -0.143  -7.275  -0.661  0.00  0.00    +0.000 A 
ATOM     14  C   UNL     1      -0.839  -6.087  -0.909  0.00  0.00    +0.000 A 
ATOM     15  C   UNL     1      -0.208  -4.832  -0.819  0.00  0.00    +0.000 A 
BRANCH  15  16
ATOM     16  N   UNL     1      -0.903  -3.628  -1.085  0.00  0.00    +0.000 N 
ATOM     17  C   UNL     1      -2.305  -3.581  -0.676  0.00  0.00    +0.000 C 
ATOM     18  C   UNL     1      -0.655  -3.154  -2.450  0.00  0.00    +0.000 C 
ENDBRANCH  15  16
ENDBRANCH   2  10
TORSDOF 3
