REMARK  Name = *****
REMARK  5 active torsions:
REMARK  status: ('A' for Active; 'I' for Inactive)
REMARK    1  A    between atoms: C_1  and  C_2
REMARK    2  A    between atoms: C_5  and  C_8
REMARK    3  A    between atoms: C_8  and  O_9
REMARK    4  A    between atoms: O_9  and  S_10
REMARK    5  A    between atoms: S_10  and  C_11
REMARK                            x       y       z     vdW  Elec       q    Type
REMARK                         _______ _______ _______ _____ _____    ______ ____
ROOT
ATOM      1  C   UNL     1      -3.611   0.220  -0.321  0.00  0.00    +0.000 C 
ENDROOT
BRANCH   1   6
ATOM      2  C   UNL     1       2.202   0.282   0.063  0.00  0.00    +0.000 C 
ATOM      3  C   UNL     1       0.704   0.272  -0.009  0.00  0.00    +0.000 A 
ATOM      4  C   UNL     1       0.002   1.431  -0.357  0.00  0.00    +0.000 A 
ATOM      5  C   UNL     1      -1.392   1.413  -0.454  0.00  0.00    +0.000 A 
ATOM      6  C   UNL     1      -2.107   0.230  -0.222  0.00  0.00    +0.000 A 
ATOM      7  C   UNL     1      -1.402  -0.930   0.122  0.00  0.00    +0.000 A 
ATOM      8  C   UNL     1      -0.009  -0.911   0.218  0.00  0.00    +0.000 A 
ENDBRANCH   1   6
BRANCH   1   9
ATOM      9  O   UNL     1      -4.144   0.845   0.844  0.00  0.00    +0.000 OA
BRANCH   9  10
ATOM     10  S   UNL     1      -5.801   1.027   0.826  0.00  0.00    +0.000 S 
BRANCH  10  11
ATOM     11  C   UNL     1      -5.892   2.704   0.212  0.00  0.00    +0.000 A 
ATOM     12  C   UNL     1      -6.926   3.053  -0.663  0.00  0.00    +0.000 A 
ATOM     13  C   UNL     1      -7.023   4.356  -1.157  0.00  0.00    +0.000 A 
ATOM     14  C   UNL     1      -6.090   5.318  -0.776  0.00  0.00    +0.000 A 
ATOM     15  C   UNL     1      -5.061   4.981   0.101  0.00  0.00    +0.000 A 
ATOM     16  C   UNL     1      -4.964   3.678   0.596  0.00  0.00    +0.000 A 
ENDBRANCH  10  11
ENDBRANCH   9  10
ENDBRANCH   1   9
TORSDOF 4
