REMARK  Name = *****
REMARK  3 active torsions:
REMARK  status: ('A' for Active; 'I' for Inactive)
REMARK    1  A    between atoms: C_4  and  C_8
REMARK    2  A    between atoms: C_8  and  S_9
REMARK    3  A    between atoms: S_9  and  C_12
REMARK                            x       y       z     vdW  Elec       q    Type
REMARK                         _______ _______ _______ _____ _____    ______ ____
ROOT
ATOM      1  C   UNL     1      -0.189   2.086   0.203  0.00  0.00    +0.000 C 
ENDROOT
BRANCH   1   5
ATOM      2  C   UNL     1      -0.337  -2.200  -0.498  0.00  0.00    +0.000 A 
ATOM      3  C   UNL     1      -0.165  -1.319  -1.560  0.00  0.00    +0.000 A 
ATOM      4  C   UNL     1      -0.098   0.060  -1.330  0.00  0.00    +0.000 A 
ATOM      5  C   UNL     1      -0.213   0.593  -0.029  0.00  0.00    +0.000 A 
ATOM      6  C   UNL     1      -0.364  -0.321   1.030  0.00  0.00    +0.000 A 
ATOM      7  C   UNL     1      -0.430  -1.700   0.796  0.00  0.00    +0.000 A 
ATOM      8 CL   UNL     1      -0.437   0.182   2.682  0.00  0.00    +0.000 Cl
ATOM      9 CL   UNL     1       0.162   1.065  -2.716  0.00  0.00    +0.000 Cl
ENDBRANCH   1   5
BRANCH   1  10
ATOM     10  S   UNL     1      -1.807   2.806  -0.079  0.00  0.00    +0.000 S 
ATOM     11  O   UNL     1      -1.661   4.242  -0.228  0.00  0.00    +0.000 OA
ATOM     12  O   UNL     1      -2.562   2.031  -1.046  0.00  0.00    +0.000 OA
BRANCH  10  13
ATOM     13  C   UNL     1      -2.697   2.575   1.447  0.00  0.00    +0.000 A 
ATOM     14  C   UNL     1      -3.747   1.739   1.780  0.00  0.00    +0.000 A 
ATOM     15  C   UNL     1      -4.149   1.887   3.138  0.00  0.00    +0.000 A 
ATOM     16  C   UNL     1      -3.400   2.837   3.795  0.00  0.00    +0.000 A 
ATOM     17  S   UNL     1      -2.223   3.546   2.775  0.00  0.00    +0.000 S 
ENDBRANCH  10  13
ENDBRANCH   1  10
TORSDOF 3
