REMARK  Name = *****
REMARK  4 active torsions:
REMARK  status: ('A' for Active; 'I' for Inactive)
REMARK    1  A    between atoms: C_1  and  C_2
REMARK    2  A    between atoms: C_5  and  N_8
REMARK    3  A    between atoms: N_8  and  S_9
REMARK    4  A    between atoms: S_9  and  C_11
REMARK                            x       y       z     vdW  Elec       q    Type
REMARK                         _______ _______ _______ _____ _____    ______ ____
ROOT
ATOM      1  N   UNL     1      -3.342   0.480  -0.141  0.00  0.00    +0.000 N 
ATOM      2  H   UNL     1      -3.864  -0.317  -0.389  0.00  0.00    +0.000 HD
ENDROOT
BRANCH   1   7
ATOM      3  C   UNL     1       2.362  -0.215  -0.035  0.00  0.00    +0.000 C 
ATOM      4  C   UNL     1       0.876  -0.018  -0.024  0.00  0.00    +0.000 A 
ATOM      5  C   UNL     1       0.331   1.268  -0.065  0.00  0.00    +0.000 A 
ATOM      6  C   UNL     1      -1.057   1.454  -0.093  0.00  0.00    +0.000 A 
ATOM      7  C   UNL     1      -1.937   0.365  -0.069  0.00  0.00    +0.000 A 
ATOM      8  C   UNL     1      -1.374  -0.922  -0.077  0.00  0.00    +0.000 A 
ATOM      9  C   UNL     1       0.012  -1.114  -0.049  0.00  0.00    +0.000 A 
ENDBRANCH   1   7
BRANCH   1  10
ATOM     10  S   UNL     1      -4.163   1.901   0.175  0.00  0.00    +0.000 S 
ATOM     11  O   UNL     1      -3.847   2.930  -0.867  0.00  0.00    +0.000 OA
BRANCH  10  12
ATOM     12  C   UNL     1      -5.768   1.197  -0.272  0.00  0.00    +0.000 A 
ATOM     13  C   UNL     1      -6.535   0.547   0.703  0.00  0.00    +0.000 A 
ATOM     14  C   UNL     1      -7.775  -0.005   0.368  0.00  0.00    +0.000 A 
ATOM     15  C   UNL     1      -8.247   0.094  -0.941  0.00  0.00    +0.000 A 
ATOM     16  C   UNL     1      -7.492   0.741  -1.917  0.00  0.00    +0.000 A 
ATOM     17  C   UNL     1      -6.253   1.294  -1.582  0.00  0.00    +0.000 A 
ATOM     18 CL   UNL     1      -9.772  -0.589  -1.351  0.00  0.00    +0.000 Cl
ENDBRANCH  10  12
ENDBRANCH   1  10
TORSDOF 3
