REMARK  Name = *****
REMARK  5 active torsions:
REMARK  status: ('A' for Active; 'I' for Inactive)
REMARK    1  A    between atoms: C_1  and  C_2
REMARK    2  A    between atoms: C_7  and  O_8
REMARK    3  A    between atoms: O_8  and  O_9
REMARK    4  A    between atoms: O_9  and  C_10
REMARK    5  A    between atoms: C_15  and  C_16
REMARK                            x       y       z     vdW  Elec       q    Type
REMARK                         _______ _______ _______ _____ _____    ______ ____
ROOT
ATOM      1  O   UNL     1       0.985  -1.457   1.787  0.00  0.00    +0.000 OA
ENDROOT
BRANCH   1   8
ATOM      2  C   UNL     1       2.013   0.931   0.488  0.00  0.00    +0.000 C 
ATOM      3  C   UNL     1       0.597   0.452   0.350  0.00  0.00    +0.000 A 
ATOM      4  C   UNL     1      -0.306   1.155  -0.459  0.00  0.00    +0.000 A 
ATOM      5  C   UNL     1      -1.626   0.719  -0.599  0.00  0.00    +0.000 A 
ATOM      6  C   UNL     1      -2.059  -0.429   0.063  0.00  0.00    +0.000 A 
ATOM      7  C   UNL     1      -1.169  -1.148   0.858  0.00  0.00    +0.000 A 
ATOM      8  C   UNL     1       0.153  -0.718   0.982  0.00  0.00    +0.000 A 
ENDBRANCH   1   8
BRANCH   1   9
ATOM      9  O   UNL     1       1.912  -2.142   0.884  0.00  0.00    +0.000 OA
BRANCH   9  10
ATOM     10  C   UNL     1       1.739  -3.485   1.114  0.00  0.00    +0.000 A 
ATOM     11  C   UNL     1       1.103  -4.230   0.120  0.00  0.00    +0.000 A 
ATOM     12  C   UNL     1       0.909  -5.598   0.297  0.00  0.00    +0.000 A 
ATOM     13  C   UNL     1       1.358  -6.216   1.463  0.00  0.00    +0.000 A 
ATOM     14  C   UNL     1       2.010  -5.470   2.448  0.00  0.00    +0.000 A 
ATOM     15  C   UNL     1       2.225  -4.095   2.278  0.00  0.00    +0.000 A 
ATOM     16  C   UNL     1       2.921  -3.306   3.348  0.00  0.00    +0.000 C 
ENDBRANCH   9  10
ENDBRANCH   1   9
TORSDOF 3
