REMARK  Name = *****
REMARK  3 active torsions:
REMARK  status: ('A' for Active; 'I' for Inactive)
REMARK    1  A    between atoms: C_1  and  C_2
REMARK    2  A    between atoms: C_2  and  C_10
REMARK    3  A    between atoms: N_3  and  C_4
REMARK                            x       y       z     vdW  Elec       q    Type
REMARK                         _______ _______ _______ _____ _____    ______ ____
ROOT
ATOM      1  C   UNL     1       1.086  -0.627   0.637  0.00  0.00    +0.000 C 
ATOM      2  C   UNL     1       2.409  -0.088   0.133  0.00  0.00    +0.000 C 
ATOM      3  N   UNL     1       2.925  -0.345  -1.034  0.00  0.00    +0.000 NA
ENDROOT
BRANCH   3   4
ATOM      4  C   UNL     1       2.255  -1.178  -1.936  0.00  0.00    +0.000 A 
ATOM      5  C   UNL     1       1.286  -0.657  -2.797  0.00  0.00    +0.000 A 
ATOM      6  C   UNL     1       0.633  -1.488  -3.710  0.00  0.00    +0.000 A 
ATOM      7  C   UNL     1       0.958  -2.842  -3.775  0.00  0.00    +0.000 A 
ATOM      8  C   UNL     1       1.941  -3.364  -2.935  0.00  0.00    +0.000 A 
ATOM      9  C   UNL     1       2.592  -2.531  -2.023  0.00  0.00    +0.000 A 
ENDBRANCH   3   4
BRANCH   2  10
ATOM     10  C   UNL     1       3.171   0.839   0.985  0.00  0.00    +0.000 A 
ATOM     11  C   UNL     1       4.429   1.317   0.653  0.00  0.00    +0.000 A 
ATOM     12  S   UNL     1       5.082   2.377   1.824  0.00  0.00    +0.000 S 
ATOM     13  C   UNL     1       3.692   2.231   2.804  0.00  0.00    +0.000 A 
ATOM     14  C   UNL     1       2.754   1.390   2.246  0.00  0.00    +0.000 A 
ENDBRANCH   2  10
TORSDOF 2
