REMARK  Name = *****
REMARK  4 active torsions:
REMARK  status: ('A' for Active; 'I' for Inactive)
REMARK    1  A    between atoms: C_1  and  C_2
REMARK    2  A    between atoms: C_5  and  C_8
REMARK    3  A    between atoms: C_8  and  S_10
REMARK    4  A    between atoms: S_10  and  C_11
REMARK                            x       y       z     vdW  Elec       q    Type
REMARK                         _______ _______ _______ _____ _____    ______ ____
ROOT
ATOM      1  C   UNL     1      -3.562   0.293   0.241  0.00  0.00    +0.000 C 
ATOM      2  O   UNL     1      -4.048   1.302  -0.257  0.00  0.00    +0.000 OA
ENDROOT
BRANCH   1   7
ATOM      3  C   UNL     1       2.181  -0.523  -0.198  0.00  0.00    +0.000 C 
ATOM      4  C   UNL     1       0.702  -0.316  -0.049  0.00  0.00    +0.000 A 
ATOM      5  C   UNL     1       0.076   0.779  -0.652  0.00  0.00    +0.000 A 
ATOM      6  C   UNL     1      -1.306   0.954  -0.540  0.00  0.00    +0.000 A 
ATOM      7  C   UNL     1      -2.092   0.032   0.169  0.00  0.00    +0.000 A 
ATOM      8  C   UNL     1      -1.463  -1.072   0.761  0.00  0.00    +0.000 A 
ATOM      9  C   UNL     1      -0.079  -1.245   0.646  0.00  0.00    +0.000 A 
ENDBRANCH   1   7
BRANCH   1  10
ATOM     10  S   UNL     1      -4.596  -0.868   1.068  0.00  0.00    +0.000 S 
BRANCH  10  11
ATOM     11  C   UNL     1      -5.070  -1.904  -0.303  0.00  0.00    +0.000 A 
ATOM     12  C   UNL     1      -5.673  -1.372  -1.447  0.00  0.00    +0.000 A 
ATOM     13  C   UNL     1      -6.041  -2.207  -2.505  0.00  0.00    +0.000 A 
ATOM     14  C   UNL     1      -5.815  -3.580  -2.421  0.00  0.00    +0.000 A 
ATOM     15  C   UNL     1      -5.227  -4.120  -1.279  0.00  0.00    +0.000 A 
ATOM     16  C   UNL     1      -4.859  -3.285  -0.221  0.00  0.00    +0.000 A 
ENDBRANCH  10  11
ENDBRANCH   1  10
TORSDOF 3
