REMARK  Name = *****
REMARK  5 active torsions:
REMARK  status: ('A' for Active; 'I' for Inactive)
REMARK    1  A    between atoms: C_1  and  C_2
REMARK    2  A    between atoms: C_2  and  N_3
REMARK    3  A    between atoms: N_3  and  C_4
REMARK    4  A    between atoms: C_8  and  C_10
REMARK    5  A    between atoms: C_11  and  C_13
REMARK                            x       y       z     vdW  Elec       q    Type
REMARK                         _______ _______ _______ _____ _____    ______ ____
ROOT
ATOM      1  N   UNL     1       3.083  -0.494   1.418  0.00  0.00    +0.000 N 
ATOM      2  C   UNL     1       4.339   0.049   1.765  0.00  0.00    +0.000 C 
ATOM      3  O   UNL     1       4.679   0.458   2.873  0.00  0.00    +0.000 OA
ENDROOT
BRANCH   1   4
ATOM      4  C   UNL     1       2.149  -0.909   2.446  0.00  0.00    +0.000 A 
ATOM      5  C   UNL     1       2.590  -1.249   3.734  0.00  0.00    +0.000 A 
ATOM      6  C   UNL     1       1.700  -1.669   4.729  0.00  0.00    +0.000 A 
ATOM      7  C   UNL     1       0.341  -1.771   4.456  0.00  0.00    +0.000 A 
ATOM      8  C   UNL     1      -0.135  -1.469   3.181  0.00  0.00    +0.000 A 
ATOM      9  C   UNL     1       0.770  -1.034   2.194  0.00  0.00    +0.000 A 
ATOM     10  C   UNL     1      -1.604  -1.537   2.884  0.00  0.00    +0.000 C 
ENDBRANCH   1   4
BRANCH   2  11
ATOM     11  C   UNL     1       5.371   0.177   0.712  0.00  0.00    +0.000 A 
ATOM     12  C   UNL     1       5.847   1.449   0.374  0.00  0.00    +0.000 A 
ATOM     13  C   UNL     1       6.846   1.576  -0.591  0.00  0.00    +0.000 A 
ATOM     14  C   UNL     1       7.369   0.434  -1.192  0.00  0.00    +0.000 A 
ATOM     15  C   UNL     1       6.919  -0.837  -0.840  0.00  0.00    +0.000 A 
ATOM     16  C   UNL     1       5.920  -0.971   0.125  0.00  0.00    +0.000 A 
ATOM     17  F   UNL     1       8.328   0.558  -2.118  0.00  0.00    +0.000 F 
ENDBRANCH   2  11
BRANCH   1  19
ATOM     18  C   UNL     1       2.064   0.881  -0.394  0.00  0.00    +0.000 C 
ATOM     19  C   UNL     1       2.620  -0.477   0.018  0.00  0.00    +0.000 C 
ENDBRANCH   1  19
TORSDOF 3
