REMARK  Name = *****
REMARK  2 active torsions:
REMARK  status: ('A' for Active; 'I' for Inactive)
REMARK    1  A    between atoms: C_4  and  C_6
REMARK    2  A    between atoms: C_7  and  C_8
REMARK                            x       y       z     vdW  Elec       q    Type
REMARK                         _______ _______ _______ _____ _____    ______ ____
ROOT
ATOM      1  C   UNL     1      -1.032   1.310   1.821  0.00  0.00    +0.000 C 
ATOM      2  C   UNL     1      -2.084   2.117   2.031  0.00  0.00    +0.000 C 
ATOM      3  F   UNL     1      -0.194   1.004   2.839  0.00  0.00    +0.000 F 
ENDROOT
BRANCH   1   7
ATOM      4  C   UNL     1       1.307  -0.206  -0.561  0.00  0.00    +0.000 C 
ATOM      5  C   UNL     1       0.160  -1.198  -0.667  0.00  0.00    +0.000 C 
ATOM      6  C   UNL     1      -0.726  -0.825   0.510  0.00  0.00    +0.000 C 
ATOM      7  C   UNL     1      -0.721   0.706   0.479  0.00  0.00    +0.000 C 
ATOM      8  C   UNL     1       0.676   1.086  -0.041  0.00  0.00    +0.000 C 
ENDBRANCH   1   7
BRANCH   2   9
ATOM      9  C   UNL     1      -2.410   2.708   3.289  0.00  0.00    +0.000 A 
ATOM     10  C   UNL     1      -1.794   2.642   4.529  0.00  0.00    +0.000 A 
ATOM     11  C   UNL     1      -2.462   3.397   5.538  0.00  0.00    +0.000 A 
ATOM     12  C   UNL     1      -3.580   4.028   5.049  0.00  0.00    +0.000 A 
ATOM     13  S   UNL     1      -3.817   3.711   3.390  0.00  0.00    +0.000 S 
ENDBRANCH   2   9
TORSDOF 2
