REMARK  Name = *****
REMARK  5 active torsions:
REMARK  status: ('A' for Active; 'I' for Inactive)
REMARK    1  A    between atoms: C_1  and  C_2
REMARK    2  A    between atoms: C_5  and  S_8
REMARK    3  A    between atoms: S_8  and  C_9
REMARK    4  A    between atoms: S_8  and  C_10
REMARK    5  A    between atoms: C_10  and  C_11
REMARK                            x       y       z     vdW  Elec       q    Type
REMARK                         _______ _______ _______ _____ _____    ______ ____
ROOT
ATOM      1  S   UNL     1      -3.449  -0.072  -0.122  0.00  0.00    +0.000 S 
ATOM      2  C   UNL     1      -4.633  -0.725   1.073  0.00  0.00    +0.000 C 
ENDROOT
BRANCH   1   7
ATOM      3  C   UNL     1       1.858  -0.275   2.909  0.00  0.00    +0.000 C 
ATOM      4  C   UNL     1       0.538  -0.249   2.199  0.00  0.00    +0.000 A 
ATOM      5  C   UNL     1       0.457  -0.569   0.841  0.00  0.00    +0.000 A 
ATOM      6  C   UNL     1      -0.768  -0.512   0.172  0.00  0.00    +0.000 A 
ATOM      7  C   UNL     1      -1.931  -0.125   0.844  0.00  0.00    +0.000 A 
ATOM      8  C   UNL     1      -1.849   0.212   2.196  0.00  0.00    +0.000 A 
ATOM      9  C   UNL     1      -0.622   0.155   2.868  0.00  0.00    +0.000 A 
ENDBRANCH   1   7
BRANCH   1  10
ATOM     10  C   UNL     1      -3.891   1.680   0.087  0.00  0.00    +0.000 C 
BRANCH  10  11
ATOM     11  C   UNL     1      -3.065   2.577  -0.799  0.00  0.00    +0.000 A 
ATOM     12  C   UNL     1      -3.385   2.725  -2.157  0.00  0.00    +0.000 A 
ATOM     13  C   UNL     1      -2.616   3.548  -2.981  0.00  0.00    +0.000 A 
ATOM     14  C   UNL     1      -1.517   4.227  -2.460  0.00  0.00    +0.000 A 
ATOM     15  C   UNL     1      -1.183   4.081  -1.115  0.00  0.00    +0.000 A 
ATOM     16  C   UNL     1      -1.952   3.259  -0.289  0.00  0.00    +0.000 A 
ENDBRANCH  10  11
ENDBRANCH   1  10
TORSDOF 3
