REMARK  Name = *****
REMARK  4 active torsions:
REMARK  status: ('A' for Active; 'I' for Inactive)
REMARK    1  A    between atoms: C_1  and  C_2
REMARK    2  A    between atoms: C_3  and  C_9
REMARK    3  A    between atoms: C_9  and  C_10
REMARK    4  A    between atoms: C_10  and  C_11
REMARK                            x       y       z     vdW  Elec       q    Type
REMARK                         _______ _______ _______ _____ _____    ______ ____
ROOT
ATOM      1  C   UNL     1      -0.057  -0.783   2.301  0.00  0.00    +0.000 C 
ATOM      2  C   UNL     1      -0.249  -0.194   0.925  0.00  0.00    +0.000 C 
ATOM      3  C   UNL     1      -0.287  -0.924  -0.213  0.00  0.00    +0.000 C 
ATOM      4  C   UNL     1      -0.445  -0.219  -1.535  0.00  0.00    +0.000 C 
ATOM      5  O   UNL     1      -0.526  -0.859  -2.583  0.00  0.00    +0.000 OA
ATOM      6  C   UNL     1      -0.422   1.291  -1.555  0.00  0.00    +0.000 C 
ATOM      7  C   UNL     1      -1.082   1.853  -0.314  0.00  0.00    +0.000 C 
ATOM      8  C   UNL     1      -0.417   1.311   0.943  0.00  0.00    +0.000 C 
ENDROOT
BRANCH   3   9
ATOM      9  C   UNL     1      -0.128  -2.426  -0.305  0.00  0.00    +0.000 C 
BRANCH   9  10
ATOM     10  C   UNL     1      -1.482  -3.140  -0.226  0.00  0.00    +0.000 C 
BRANCH  10  11
ATOM     11  C   UNL     1      -1.392  -4.661  -0.467  0.00  0.00    +0.000 C 
ATOM     12  C   UNL     1      -2.809  -5.259  -0.513  0.00  0.00    +0.000 C 
ATOM     13  C   UNL     1      -2.787  -6.772  -0.715  0.00  0.00    +0.000 C 
ATOM     14  C   UNL     1      -1.942  -7.466   0.346  0.00  0.00    +0.000 C 
ATOM     15  C   UNL     1      -0.532  -6.891   0.396  0.00  0.00    +0.000 C 
ATOM     16  C   UNL     1      -0.542  -5.376   0.596  0.00  0.00    +0.000 C 
ENDBRANCH  10  11
ENDBRANCH   9  10
ENDBRANCH   3   9
TORSDOF 3
