REMARK  Name = *****
REMARK  5 active torsions:
REMARK  status: ('A' for Active; 'I' for Inactive)
REMARK    1  A    between atoms: C_1  and  C_2
REMARK    2  A    between atoms: C_2  and  C_3
REMARK    3  A    between atoms: C_2  and  N_9
REMARK    4  A    between atoms: N_9  and  C_10
REMARK    5  A    between atoms: N_9  and  C_11
REMARK                            x       y       z     vdW  Elec       q    Type
REMARK                         _______ _______ _______ _____ _____    ______ ____
ROOT
ATOM      1  C   UNL     1       1.359  -0.327  -0.357  0.00  0.00    +0.000 C 
ATOM      2  C   UNL     1       2.725   0.005   0.263  0.00  0.00    +0.000 C 
ENDROOT
BRANCH   2   3
ATOM      3  C   UNL     1       2.784   1.365   1.021  0.00  0.00    +0.000 C 
ATOM      4  C   UNL     1       1.772   1.508   2.172  0.00  0.00    +0.000 C 
ATOM      5  C   UNL     1       1.896   2.861   2.875  0.00  0.00    +0.000 C 
ATOM      6  C   UNL     1       1.773   4.023   1.896  0.00  0.00    +0.000 C 
ATOM      7  C   UNL     1       2.772   3.895   0.753  0.00  0.00    +0.000 C 
ATOM      8  C   UNL     1       2.640   2.549   0.043  0.00  0.00    +0.000 C 
ENDBRANCH   2   3
BRANCH   2   9
ATOM      9  N   UNL     1       3.231  -1.097   1.121  0.00  0.00    +0.000 N 
ATOM     10  C   UNL     1       2.283  -1.904   1.886  0.00  0.00    +0.000 C 
BRANCH   9  11
ATOM     11  C   UNL     1       4.526  -1.591   0.921  0.00  0.00    +0.000 A 
ATOM     12  C   UNL     1       5.571  -0.771   0.459  0.00  0.00    +0.000 A 
ATOM     13  C   UNL     1       6.874  -1.251   0.268  0.00  0.00    +0.000 A 
ATOM     14  C   UNL     1       7.174  -2.579   0.539  0.00  0.00    +0.000 A 
ATOM     15  C   UNL     1       6.171  -3.419   1.006  0.00  0.00    +0.000 A 
ATOM     16  C   UNL     1       4.872  -2.927   1.196  0.00  0.00    +0.000 A 
ENDBRANCH   9  11
ENDBRANCH   2   9
TORSDOF 3
