REMARK  Name = *****
REMARK  4 active torsions:
REMARK  status: ('A' for Active; 'I' for Inactive)
REMARK    1  A    between atoms: C_1  and  O_2
REMARK    2  A    between atoms: O_2  and  C_3
REMARK    3  A    between atoms: C_8  and  C_9
REMARK    4  A    between atoms: C_11  and  C_12
REMARK                            x       y       z     vdW  Elec       q    Type
REMARK                         _______ _______ _______ _____ _____    ______ ____
ROOT
ATOM      1  C   UNL     1       4.434  -0.572  -2.019  0.00  0.00    +0.000 C 
ATOM      2  C   UNL     1       3.629  -1.581  -2.785  0.00  0.00    +0.000 C 
ATOM      3  C   UNL     1       4.022  -1.887  -1.361  0.00  0.00    +0.000 C 
ENDROOT
BRANCH   3   4
ATOM      4  C   UNL     1       2.942  -1.984  -0.301  0.00  0.00    +0.000 A 
ATOM      5  C   UNL     1       1.723  -2.642  -0.547  0.00  0.00    +0.000 A 
ATOM      6  C   UNL     1       0.730  -2.741   0.433  0.00  0.00    +0.000 A 
ATOM      7  C   UNL     1       0.948  -2.189   1.691  0.00  0.00    +0.000 A 
ATOM      8  C   UNL     1       2.150  -1.552   1.976  0.00  0.00    +0.000 A 
ATOM      9  C   UNL     1       3.138  -1.462   0.989  0.00  0.00    +0.000 A 
ATOM     10 CL   UNL     1      -0.271  -2.302   2.899  0.00  0.00    +0.000 Cl
ENDBRANCH   3   4
BRANCH   1  16
ATOM     11  C   UNL     1       2.791   1.459  -1.957  0.00  0.00    +0.000 A 
ATOM     12  C   UNL     1       2.441   2.715  -1.435  0.00  0.00    +0.000 A 
ATOM     13  C   UNL     1       3.190   3.289  -0.412  0.00  0.00    +0.000 A 
ATOM     14  C   UNL     1       4.304   2.621   0.078  0.00  0.00    +0.000 A 
ATOM     15  C   UNL     1       4.663   1.384  -0.462  0.00  0.00    +0.000 A 
ATOM     16  C   UNL     1       3.922   0.760  -1.491  0.00  0.00    +0.000 A 
BRANCH  11  18
ATOM     17  C   UNL     1       0.691   0.758  -2.649  0.00  0.00    +0.000 C 
ATOM     18  O   UNL     1       2.064   0.939  -2.999  0.00  0.00    +0.000 OA
ENDBRANCH  11  18
ENDBRANCH   1  16
TORSDOF 3
