REMARK  Name = *****
REMARK  0 active torsions:
REMARK  status: ('A' for Active; 'I' for Inactive)
REMARK                            x       y       z     vdW  Elec       q    Type
REMARK                         _______ _______ _______ _____ _____    ______ ____
ROOT
ATOM      1  C   UNL     1      -0.756  -1.424  -0.307  0.00  0.00    +0.000 C 
ATOM      2  C   UNL     1       0.694  -1.375   0.131  0.00  0.00    +0.000 C 
ATOM      3  S   UNL     1       1.419   0.135  -0.566  0.00  0.00    +0.000 S 
ATOM      4  C   UNL     1      -0.020   1.138  -0.400  0.00  0.00    +0.000 C 
ATOM      5  C   UNL     1      -0.013   2.486  -0.561  0.00  0.00    +0.000 C 
ATOM      6  S   UNL     1      -1.471   3.473  -0.388  0.00  0.00    +0.000 S 
ATOM      7  C   UNL     1      -0.654   4.952  -0.714  0.00  0.00    +0.000 A 
ATOM      8  C   UNL     1       0.656   4.915  -0.969  0.00  0.00    +0.000 A 
ATOM      9  S   UNL     1       1.454   3.390  -0.959  0.00  0.00    +0.000 S 
ATOM     10  S   UNL     1       1.455   6.412  -1.291  0.00  0.00    +0.000 S 
ATOM     11  C   UNL     1       0.018   7.412  -1.114  0.00  0.00    +0.000 A 
ATOM     12  O   UNL     1       0.027   8.626  -1.246  0.00  0.00    +0.000 OA
ATOM     13  S   UNL     1      -1.432   6.493  -0.728  0.00  0.00    +0.000 S 
ATOM     14  S   UNL     1      -1.469   0.216  -0.001  0.00  0.00    +0.000 S 
ENDROOT
TORSDOF 0
