REMARK  Name = *****
REMARK  4 active torsions:
REMARK  status: ('A' for Active; 'I' for Inactive)
REMARK    1  A    between atoms: C_4  and  S_16
REMARK    2  A    between atoms: C_5  and  O_7
REMARK    3  A    between atoms: O_7  and  C_8
REMARK    4  A    between atoms: C_8  and  C_10
REMARK                            x       y       z     vdW  Elec       q    Type
REMARK                         _______ _______ _______ _____ _____    ______ ____
ROOT
ATOM      1  O   UNL     1      -1.221  -1.024  -1.281  0.00  0.00    +0.000 OA
ENDROOT
BRANCH   1   6
ATOM      2  C   UNL     1       0.770   1.147  -0.598  0.00  0.00    +0.000 C 
ATOM      3  C   UNL     1       1.632   0.376   0.395  0.00  0.00    +0.000 C 
ATOM      4  C   UNL     1       1.132  -1.055   0.586  0.00  0.00    +0.000 C 
ATOM      5  C   UNL     1      -0.359  -1.141   0.948  0.00  0.00    +0.000 C 
ATOM      6  C   UNL     1      -1.234  -0.315  -0.017  0.00  0.00    +0.000 C 
ATOM      7  C   UNL     1      -0.710   1.114  -0.220  0.00  0.00    +0.000 C 
BRANCH   5   8
ATOM      8  S   UNL     1      -0.643  -0.686   2.702  0.00  0.00    +0.000 S 
ATOM      9  H   UNL     1      -0.274   0.607   2.901  0.00  0.00    +0.000 HD
ENDBRANCH   5   8
ENDBRANCH   1   6
BRANCH   1  10
ATOM     10  C   UNL     1      -2.300  -0.859  -2.085  0.00  0.00    +0.000 C 
ATOM     11  O   UNL     1      -3.218  -0.078  -1.898  0.00  0.00    +0.000 OA
BRANCH  10  12
ATOM     12  C   UNL     1      -2.242  -1.813  -3.226  0.00  0.00    +0.000 A 
ATOM     13  C   UNL     1      -3.296  -1.806  -4.150  0.00  0.00    +0.000 A 
ATOM     14  C   UNL     1      -3.308  -2.713  -5.212  0.00  0.00    +0.000 A 
ATOM     15  C   UNL     1      -2.269  -3.632  -5.356  0.00  0.00    +0.000 A 
ATOM     16  C   UNL     1      -1.214  -3.642  -4.445  0.00  0.00    +0.000 A 
ATOM     17  C   UNL     1      -1.197  -2.735  -3.383  0.00  0.00    +0.000 A 
ENDBRANCH  10  12
ENDBRANCH   1  10
TORSDOF 4
