REMARK  Name = *****
REMARK  4 active torsions:
REMARK  status: ('A' for Active; 'I' for Inactive)
REMARK    1  A    between atoms: C_1  and  C_2
REMARK    2  A    between atoms: C_3  and  C_16
REMARK    3  A    between atoms: C_5  and  C_7
REMARK    4  A    between atoms: C_8  and  C_9
REMARK                            x       y       z     vdW  Elec       q    Type
REMARK                         _______ _______ _______ _____ _____    ______ ____
ROOT
ATOM      1  C   UNL     1       5.734  -1.483  -0.091  0.00  0.00    +0.000 C 
ATOM      2  C   UNL     1       5.770  -2.821   0.006  0.00  0.00    +0.000 C 
ENDROOT
BRANCH   1   7
ATOM      3  C   UNL     1       2.186   2.133  -0.225  0.00  0.00    +0.000 C 
ATOM      4  C   UNL     1       2.877   0.825  -0.145  0.00  0.00    +0.000 A 
ATOM      5  C   UNL     1       2.305  -0.421  -0.001  0.00  0.00    +0.000 A 
ATOM      6  O   UNL     1       3.264  -1.382   0.030  0.00  0.00    +0.000 OA
ATOM      7  C   UNL     1       4.497  -0.782  -0.088  0.00  0.00    +0.000 A 
ATOM      8  C   UNL     1       4.278   0.586  -0.196  0.00  0.00    +0.000 A 
ATOM      9  C   UNL     1       0.912  -0.899   0.113  0.00  0.00    +0.000 C 
ENDBRANCH   1   7
BRANCH   2  10
ATOM     10  C   UNL     1       7.011  -3.608  -0.002  0.00  0.00    +0.000 A 
ATOM     11  C   UNL     1       8.158  -3.199   0.695  0.00  0.00    +0.000 A 
ATOM     12  C   UNL     1       9.310  -3.990   0.687  0.00  0.00    +0.000 A 
ATOM     13  C   UNL     1       9.312  -5.192  -0.009  0.00  0.00    +0.000 A 
ATOM     14  C   UNL     1       8.182  -5.623  -0.692  0.00  0.00    +0.000 A 
ATOM     15  C   UNL     1       7.029  -4.834  -0.684  0.00  0.00    +0.000 A 
ATOM     16  F   UNL     1      10.416  -5.950  -0.015  0.00  0.00    +0.000 F 
ENDBRANCH   2  10
TORSDOF 2
