REMARK  Name = *****
REMARK  3 active torsions:
REMARK  status: ('A' for Active; 'I' for Inactive)
REMARK    1  A    between atoms: C_1  and  C_2
REMARK    2  A    between atoms: C_5  and  C_8
REMARK    3  A    between atoms: C_8  and  C_9
REMARK                            x       y       z     vdW  Elec       q    Type
REMARK                         _______ _______ _______ _____ _____    ______ ____
ROOT
ATOM      1  C   UNL     1      -3.855   1.474  -0.030  0.00  0.00    +0.000 A 
ATOM      2  N   UNL     1      -4.328   2.111   1.027  0.00  0.00    +0.000 NA
ATOM      3  C   UNL     1      -4.732   3.320   0.520  0.00  0.00    +0.000 A 
ATOM      4  C   UNL     1      -5.309   4.434   1.142  0.00  0.00    +0.000 A 
ATOM      5  C   UNL     1      -5.622   5.548   0.347  0.00  0.00    +0.000 A 
ATOM      6  C   UNL     1      -5.367   5.549  -1.031  0.00  0.00    +0.000 A 
ATOM      7  C   UNL     1      -4.791   4.442  -1.667  0.00  0.00    +0.000 A 
ATOM      8  C   UNL     1      -4.496   3.362  -0.845  0.00  0.00    +0.000 A 
ATOM      9  O   UNL     1      -3.938   2.172  -1.210  0.00  0.00    +0.000 OA
ENDROOT
BRANCH   1  10
ATOM     10  C   UNL     1      -3.276   0.106  -0.109  0.00  0.00    +0.000 C 
BRANCH  10  15
ATOM     11  C   UNL     1       2.551   0.168   0.047  0.00  0.00    +0.000 C 
ATOM     12  C   UNL     1       1.052   0.118   0.009  0.00  0.00    +0.000 A 
ATOM     13  C   UNL     1       0.309   0.200   1.191  0.00  0.00    +0.000 A 
ATOM     14  C   UNL     1      -1.087   0.190   1.153  0.00  0.00    +0.000 A 
ATOM     15  C   UNL     1      -1.765   0.102  -0.070  0.00  0.00    +0.000 A 
ATOM     16  C   UNL     1      -1.020   0.045  -1.255  0.00  0.00    +0.000 A 
ATOM     17  C   UNL     1       0.377   0.056  -1.215  0.00  0.00    +0.000 A 
ENDBRANCH  10  15
ENDBRANCH   1  10
TORSDOF 2
