REMARK  Name = *****
REMARK  4 active torsions:
REMARK  status: ('A' for Active; 'I' for Inactive)
REMARK    1  A    between atoms: C_4  and  S_7
REMARK    2  A    between atoms: S_7  and  C_8
REMARK    3  A    between atoms: C_8  and  C_10
REMARK    4  A    between atoms: C_13  and  C_16
REMARK                            x       y       z     vdW  Elec       q    Type
REMARK                         _______ _______ _______ _____ _____    ______ ____
ROOT
ATOM      1  C   UNL     1      -3.995  -0.926  -0.361  0.00  0.00    +0.000 C 
ATOM      2  O   UNL     1      -3.388  -1.985  -0.252  0.00  0.00    +0.000 OA
ENDROOT
BRANCH   1   3
ATOM      3  C   UNL     1      -5.460  -0.935  -0.647  0.00  0.00    +0.000 A 
ATOM      4  C   UNL     1      -6.314   0.135  -0.338  0.00  0.00    +0.000 A 
ATOM      5  C   UNL     1      -7.679   0.059  -0.639  0.00  0.00    +0.000 A 
ATOM      6  C   UNL     1      -8.207  -1.084  -1.248  0.00  0.00    +0.000 A 
ATOM      7  C   UNL     1      -7.364  -2.158  -1.547  0.00  0.00    +0.000 A 
ATOM      8  C   UNL     1      -6.000  -2.085  -1.244  0.00  0.00    +0.000 A 
BRANCH   6   9
ATOM      9  C   UNL     1      -9.605  -1.154  -1.561  0.00  0.00    +0.000 C 
ATOM     10  N   UNL     1     -10.736  -1.207  -1.815  0.00  0.00    +0.000 NA
ENDBRANCH   6   9
ENDBRANCH   1   3
BRANCH   1  11
ATOM     11  S   UNL     1      -3.204   0.641  -0.233  0.00  0.00    +0.000 S 
BRANCH  11  15
ATOM     12  C   UNL     1       1.227  -0.105  -1.165  0.00  0.00    +0.000 A 
ATOM     13  C   UNL     1       0.253  -0.734  -1.938  0.00  0.00    +0.000 A 
ATOM     14  C   UNL     1      -1.102  -0.528  -1.662  0.00  0.00    +0.000 A 
ATOM     15  C   UNL     1      -1.494   0.293  -0.599  0.00  0.00    +0.000 A 
ATOM     16  C   UNL     1      -0.507   0.928   0.165  0.00  0.00    +0.000 A 
ATOM     17  C   UNL     1       0.848   0.728  -0.115  0.00  0.00    +0.000 A 
ENDBRANCH  11  15
ENDBRANCH   1  11
TORSDOF 4
