REMARK  Name = *****
REMARK  2 active torsions:
REMARK  status: ('A' for Active; 'I' for Inactive)
REMARK    1  A    between atoms: C_3  and  C_9
REMARK    2  A    between atoms: N_10  and  C_11
REMARK                            x       y       z     vdW  Elec       q    Type
REMARK                         _______ _______ _______ _____ _____    ______ ____
ROOT
ATOM      1  C   UNL     1      -2.624   2.747   0.029  0.00  0.00    +0.000 C 
ATOM      2  N   UNL     1      -1.890   3.700  -0.456  0.00  0.00    +0.000 NA
ENDROOT
BRANCH   1   5
ATOM      3  C   UNL     1      -1.859  -0.189  -2.225  0.00  0.00    +0.000 A 
ATOM      4  C   UNL     1      -1.831   1.097  -1.676  0.00  0.00    +0.000 A 
ATOM      5  C   UNL     1      -2.634   1.402  -0.571  0.00  0.00    +0.000 A 
ATOM      6  C   UNL     1      -3.460   0.428  -0.020  0.00  0.00    +0.000 A 
ATOM      7  C   UNL     1      -3.484  -0.848  -0.571  0.00  0.00    +0.000 A 
ATOM      8  C   UNL     1      -2.690  -1.164  -1.670  0.00  0.00    +0.000 A 
ATOM      9  F   UNL     1      -4.279  -1.791  -0.046  0.00  0.00    +0.000 F 
ATOM     10  F   UNL     1      -4.236   0.708   1.038  0.00  0.00    +0.000 F 
ENDBRANCH   1   5
BRANCH   2  11
ATOM     11  C   UNL     1      -1.967   4.933   0.203  0.00  0.00    +0.000 A 
ATOM     12  C   UNL     1      -1.005   5.277   1.155  0.00  0.00    +0.000 A 
ATOM     13  C   UNL     1      -1.073   6.514   1.788  0.00  0.00    +0.000 A 
ATOM     14  C   UNL     1      -2.086   7.412   1.475  0.00  0.00    +0.000 A 
ATOM     15  C   UNL     1      -3.042   7.089   0.518  0.00  0.00    +0.000 A 
ATOM     16  C   UNL     1      -2.977   5.848  -0.121  0.00  0.00    +0.000 A 
ATOM     17  F   UNL     1      -2.148   8.602   2.088  0.00  0.00    +0.000 F 
ATOM     18  F   UNL     1      -0.150   6.833   2.706  0.00  0.00    +0.000 F 
ENDBRANCH   2  11
TORSDOF 2
