REMARK  Name = *****
REMARK  6 active torsions:
REMARK  status: ('A' for Active; 'I' for Inactive)
REMARK    1  A    between atoms: C_1  and  C_2
REMARK    2  A    between atoms: C_4  and  C_20
REMARK    3  A    between atoms: C_5  and  C_8
REMARK    4  A    between atoms: C_8  and  C_9
REMARK    5  A    between atoms: C_9  and  C_10
REMARK    6  A    between atoms: C_10  and  C_12
REMARK                            x       y       z     vdW  Elec       q    Type
REMARK                         _______ _______ _______ _____ _____    ______ ____
ROOT
ATOM      1  C   UNL     1      -2.220  -3.352   0.005  0.00  0.00    +0.000 C 
ENDROOT
BRANCH   1   2
ATOM      2  C   UNL     1      -3.509  -4.150   0.004  0.00  0.00    +0.000 C 
ATOM      3  O   UNL     1      -4.613  -3.605   0.023  0.00  0.00    +0.000 OA
BRANCH   2   4
ATOM      4  C   UNL     1      -3.456  -5.642  -0.024  0.00  0.00    +0.000 A 
ATOM      5  C   UNL     1      -2.261  -6.368   0.006  0.00  0.00    +0.000 A 
ATOM      6  C   UNL     1      -2.265  -7.761  -0.022  0.00  0.00    +0.000 A 
ATOM      7  C   UNL     1      -3.476  -8.437  -0.081  0.00  0.00    +0.000 A 
ATOM      8  C   UNL     1      -4.679  -7.744  -0.111  0.00  0.00    +0.000 A 
ATOM      9  C   UNL     1      -4.671  -6.347  -0.082  0.00  0.00    +0.000 A 
ATOM     10  F   UNL     1      -3.483  -9.775  -0.108  0.00  0.00    +0.000 F 
ATOM     11  F   UNL     1      -1.071  -5.757   0.066  0.00  0.00    +0.000 F 
ENDBRANCH   2   4
ENDBRANCH   1   2
BRANCH   1  12
ATOM     12  C   UNL     1      -2.487  -1.846  -0.019  0.00  0.00    +0.000 C 
BRANCH  12  17
ATOM     13  C   UNL     1       2.503   1.177   0.066  0.00  0.00    +0.000 C 
ATOM     14  C   UNL     1       1.235   0.377   0.028  0.00  0.00    +0.000 A 
ATOM     15  C   UNL     1       0.616   0.084  -1.193  0.00  0.00    +0.000 A 
ATOM     16  C   UNL     1      -0.589  -0.639  -1.248  0.00  0.00    +0.000 A 
ATOM     17  C   UNL     1      -1.198  -1.054  -0.047  0.00  0.00    +0.000 A 
ATOM     18  C   UNL     1      -0.576  -0.747   1.175  0.00  0.00    +0.000 A 
ATOM     19  C   UNL     1       0.623  -0.034   1.213  0.00  0.00    +0.000 A 
ATOM     20  C   UNL     1      -1.208  -0.916  -2.592  0.00  0.00    +0.000 C 
ENDBRANCH  12  17
ENDBRANCH   1  12
TORSDOF 4
