REMARK  Name = *****
REMARK  3 active torsions:
REMARK  status: ('A' for Active; 'I' for Inactive)
REMARK    1  A    between atoms: C_5  and  O_7
REMARK    2  A    between atoms: O_7  and  C_8
REMARK    3  A    between atoms: C_8  and  C_9
REMARK                            x       y       z     vdW  Elec       q    Type
REMARK                         _______ _______ _______ _____ _____    ______ ____
ROOT
ATOM      1  O   UNL     1       0.864  -2.365   0.128  0.00  0.00    +0.000 OA
ENDROOT
BRANCH   1   6
ATOM      2  C   UNL     1      -1.919  -0.041   0.146  0.00  0.00    +0.000 A 
ATOM      3  C   UNL     1      -1.306   1.194  -0.054  0.00  0.00    +0.000 A 
ATOM      4  C   UNL     1       0.078   1.263  -0.199  0.00  0.00    +0.000 A 
ATOM      5  C   UNL     1       0.844   0.098  -0.145  0.00  0.00    +0.000 A 
ATOM      6  C   UNL     1       0.244  -1.148   0.053  0.00  0.00    +0.000 A 
ATOM      7  C   UNL     1      -1.146  -1.204   0.200  0.00  0.00    +0.000 A 
ATOM      8  F   UNL     1       2.172   0.223  -0.289  0.00  0.00    +0.000 F 
ENDBRANCH   1   6
BRANCH   1   9
ATOM      9  C   UNL     1       2.282  -2.388  -0.037  0.00  0.00    +0.000 C 
BRANCH   9  10
ATOM     10  C   UNL     1       2.759  -3.821   0.034  0.00  0.00    +0.000 A 
ATOM     11  C   UNL     1       3.851  -4.169   0.841  0.00  0.00    +0.000 A 
ATOM     12  C   UNL     1       4.298  -5.486   0.876  0.00  0.00    +0.000 A 
ATOM     13  C   UNL     1       3.685  -6.474   0.115  0.00  0.00    +0.000 A 
ATOM     14  C   UNL     1       2.605  -6.140  -0.699  0.00  0.00    +0.000 A 
ATOM     15  C   UNL     1       2.147  -4.821  -0.742  0.00  0.00    +0.000 A 
ATOM     16  F   UNL     1       5.341  -5.806   1.653  0.00  0.00    +0.000 F 
ENDBRANCH   9  10
ENDBRANCH   1   9
TORSDOF 3
