REMARK  Name = *****
REMARK  5 active torsions:
REMARK  status: ('A' for Active; 'I' for Inactive)
REMARK    1  A    between atoms: C_1  and  C_2
REMARK    2  A    between atoms: C_2  and  C_3
REMARK    3  A    between atoms: C_2  and  C_4
REMARK    4  A    between atoms: C_7  and  C_9
REMARK    5  A    between atoms: C_10  and  C_11
REMARK                            x       y       z     vdW  Elec       q    Type
REMARK                         _______ _______ _______ _____ _____    ______ ____
ROOT
ATOM      1  C   UNL     1       3.049  -0.553   1.396  0.00  0.00    +0.000 A 
ATOM      2  C   UNL     1       3.658   0.006   2.488  0.00  0.00    +0.000 A 
ATOM      3  N   UNL     1       3.885  -0.957   3.436  0.00  0.00    +0.000 NA
ATOM      4  C   UNL     1       3.416  -2.086   2.917  0.00  0.00    +0.000 A 
ATOM      5  O   UNL     1       2.887  -1.884   1.653  0.00  0.00    +0.000 OA
ENDROOT
BRANCH   1   7
ATOM      6  C   UNL     1       3.337  -0.670  -1.071  0.00  0.00    +0.000 C 
ATOM      7  C   UNL     1       2.571  -0.031   0.087  0.00  0.00    +0.000 C 
ATOM      8  C   UNL     1       1.066  -0.243  -0.075  0.00  0.00    +0.000 C 
ENDBRANCH   1   7
BRANCH   4   9
ATOM      9  C   UNL     1       3.420  -3.375   3.518  0.00  0.00    +0.000 C 
ATOM     10  C   UNL     1       3.952  -3.577   4.734  0.00  0.00    +0.000 C 
BRANCH  10  11
ATOM     11  C   UNL     1       3.981  -4.878   5.417  0.00  0.00    +0.000 A 
ATOM     12  C   UNL     1       4.178  -6.084   4.731  0.00  0.00    +0.000 A 
ATOM     13  C   UNL     1       4.229  -7.296   5.425  0.00  0.00    +0.000 A 
ATOM     14  C   UNL     1       4.094  -7.314   6.811  0.00  0.00    +0.000 A 
ATOM     15  C   UNL     1       3.915  -6.121   7.506  0.00  0.00    +0.000 A 
ATOM     16  C   UNL     1       3.865  -4.909   6.813  0.00  0.00    +0.000 A 
ENDBRANCH  10  11
ENDBRANCH   4   9
TORSDOF 3
