REMARK  Name = *****
REMARK  4 active torsions:
REMARK  status: ('A' for Active; 'I' for Inactive)
REMARK    1  A    between atoms: C_1  and  C_2
REMARK    2  A    between atoms: C_5  and  N_8
REMARK    3  A    between atoms: C_9  and  O_18
REMARK    4  A    between atoms: O_18  and  O_19
REMARK                            x       y       z     vdW  Elec       q    Type
REMARK                         _______ _______ _______ _____ _____    ______ ____
ROOT
ATOM      1  N   UNL     1      -3.192  -0.285  -0.269  0.00  0.00    +0.000 N 
ATOM      2  C   UNL     1      -4.095  -0.742   0.788  0.00  0.00    +0.000 C 
ATOM      3  C   UNL     1      -5.474  -0.344   0.375  0.00  0.00    +0.000 C 
ATOM      4  C   UNL     1      -5.551   0.258  -0.817  0.00  0.00    +0.000 C 
ATOM      5  S   UNL     1      -3.971   0.356  -1.619  0.00  0.00    +0.000 S 
ATOM      6  O   UNL     1      -3.667   1.813  -1.780  0.00  0.00    +0.000 OA
ATOM      7  C   UNL     1      -6.824   0.743  -1.427  0.00  0.00    +0.000 C 
ATOM      8  C   UNL     1      -8.055   0.166  -0.716  0.00  0.00    +0.000 C 
ATOM      9  C   UNL     1      -7.892   0.194   0.805  0.00  0.00    +0.000 C 
ATOM     10  C   UNL     1      -6.652  -0.586   1.262  0.00  0.00    +0.000 C 
ENDROOT
BRANCH   1  15
ATOM     11  C   UNL     1       2.533  -0.272   0.460  0.00  0.00    +0.000 C 
ATOM     12  C   UNL     1       1.048  -0.297   0.259  0.00  0.00    +0.000 A 
ATOM     13  C   UNL     1       0.474   0.267  -0.878  0.00  0.00    +0.000 A 
ATOM     14  C   UNL     1      -0.919   0.272  -1.047  0.00  0.00    +0.000 A 
ATOM     15  C   UNL     1      -1.796  -0.268  -0.089  0.00  0.00    +0.000 A 
ATOM     16  C   UNL     1      -1.187  -0.815   1.056  0.00  0.00    +0.000 A 
ATOM     17  C   UNL     1       0.205  -0.827   1.233  0.00  0.00    +0.000 A 
ENDBRANCH   1  15
BRANCH   2  18
ATOM     18  O   UNL     1      -4.027  -2.164   1.011  0.00  0.00    +0.000 OA
BRANCH  18  19
ATOM     19  O   UNL     1      -4.154  -2.839  -0.287  0.00  0.00    +0.000 OA
ATOM     20  H   UNL     1      -4.110  -3.799  -0.157  0.00  0.00    +0.000 HD
ENDBRANCH  18  19
ENDBRANCH   2  18
TORSDOF 3
