REMARK  Name = *****
REMARK  2 active torsions:
REMARK  status: ('A' for Active; 'I' for Inactive)
REMARK    1  A    between atoms: C_9  and  O_11
REMARK    2  A    between atoms: O_11  and  C_12
REMARK                            x       y       z     vdW  Elec       q    Type
REMARK                         _______ _______ _______ _____ _____    ______ ____
ROOT
ATOM      1  C   UNL     1       2.478  -0.773   0.011  0.00  0.00    +0.000 A 
ATOM      2  C   UNL     1       2.469   0.615  -0.066  0.00  0.00    +0.000 A 
ATOM      3  C   UNL     1       1.252   1.303  -0.107  0.00  0.00    +0.000 A 
ATOM      4  C   UNL     1       0.035   0.636  -0.073  0.00  0.00    +0.000 A 
ATOM      5  C   UNL     1       0.050  -0.774   0.007  0.00  0.00    +0.000 A 
ATOM      6  C   UNL     1       1.271  -1.469   0.048  0.00  0.00    +0.000 A 
ATOM      7  C   UNL     1      -1.180  -1.443   0.047  0.00  0.00    +0.000 A 
ATOM      8  C   UNL     1      -2.362  -0.714   0.004  0.00  0.00    +0.000 A 
ATOM      9  C   UNL     1      -2.274   0.664  -0.092  0.00  0.00    +0.000 A 
ATOM     10  N   UNL     1      -1.106   1.344  -0.116  0.00  0.00    +0.000 NA
ENDROOT
BRANCH   9  11
ATOM     11  O   UNL     1      -3.474   1.357  -0.082  0.00  0.00    +0.000 OA
BRANCH  11  12
ATOM     12  C   UNL     1      -3.606   2.569  -0.636  0.00  0.00    +0.000 A 
ATOM     13  C   UNL     1      -2.853   3.228  -1.593  0.00  0.00    +0.000 A 
ATOM     14  C   UNL     1      -3.380   4.501  -1.905  0.00  0.00    +0.000 A 
ATOM     15  C   UNL     1      -4.522   4.806  -1.218  0.00  0.00    +0.000 A 
ATOM     16  S   UNL     1      -4.970   3.524  -0.181  0.00  0.00    +0.000 S 
ATOM     17  F   UNL     1      -2.833   5.307  -2.774  0.00  0.00    +0.000 F 
ENDBRANCH  11  12
ENDBRANCH   9  11
TORSDOF 2
