REMARK  Name = *****
REMARK  5 active torsions:
REMARK  status: ('A' for Active; 'I' for Inactive)
REMARK    1  A    between atoms: C_1  and  C_2
REMARK    2  A    between atoms: C_5  and  C_16
REMARK    3  A    between atoms: C_6  and  C_8
REMARK    4  A    between atoms: C_9  and  C_10
REMARK    5  A    between atoms: C_16  and  C_18
REMARK                            x       y       z     vdW  Elec       q    Type
REMARK                         _______ _______ _______ _____ _____    ______ ____
ROOT
ATOM      1  C   UNL     1       0.885   0.107   0.240  0.00  0.00    +0.000 C 
ATOM      2  C   UNL     1       2.402  -0.003   0.102  0.00  0.00    +0.000 C 
ATOM      3  C   UNL     1       2.996   1.023  -0.865  0.00  0.00    +0.000 C 
ATOM      4  C   UNL     1       2.754   0.652  -2.325  0.00  0.00    +0.000 C 
ATOM      5  C   UNL     1       3.186  -0.796  -2.625  0.00  0.00    +0.000 C 
ATOM      6  C   UNL     1       2.520  -1.737  -1.576  0.00  0.00    +0.000 C 
ATOM      7  O   UNL     1       2.799  -1.335  -0.230  0.00  0.00    +0.000 OA
ENDROOT
BRANCH   5   8
ATOM      8  C   UNL     1       4.709  -0.873  -2.809  0.00  0.00    +0.000 C 
ATOM      9  C   UNL     1       5.579  -1.259  -1.860  0.00  0.00    +0.000 C 
ATOM     10  C   UNL     1       5.212  -0.496  -4.180  0.00  0.00    +0.000 C 
ENDBRANCH   5   8
BRANCH   6  11
ATOM     11  C   UNL     1       2.873  -3.194  -1.778  0.00  0.00    +0.000 C 
ATOM     12  C   UNL     1       3.348  -4.030  -0.838  0.00  0.00    +0.000 C 
BRANCH  12  13
ATOM     13  C   UNL     1       3.676  -5.440  -1.082  0.00  0.00    +0.000 A 
ATOM     14  C   UNL     1       4.316  -5.865  -2.253  0.00  0.00    +0.000 A 
ATOM     15  C   UNL     1       4.641  -7.212  -2.438  0.00  0.00    +0.000 A 
ATOM     16  C   UNL     1       4.338  -8.144  -1.448  0.00  0.00    +0.000 A 
ATOM     17  C   UNL     1       3.717  -7.731  -0.271  0.00  0.00    +0.000 A 
ATOM     18  C   UNL     1       3.393  -6.384  -0.087  0.00  0.00    +0.000 A 
ENDBRANCH  12  13
ENDBRANCH   6  11
TORSDOF 3
