REMARK  Name = *****
REMARK  4 active torsions:
REMARK  status: ('A' for Active; 'I' for Inactive)
REMARK    1  A    between atoms: C_4  and  C_7
REMARK    2  A    between atoms: C_7  and  S_8
REMARK    3  A    between atoms: S_8  and  C_9
REMARK    4  A    between atoms: C_9  and  C_11
REMARK                            x       y       z     vdW  Elec       q    Type
REMARK                         _______ _______ _______ _____ _____    ______ ____
ROOT
ATOM      1  S   UNL     1      -3.720  -1.360  -0.130  0.00  0.00    +0.000 S 
ENDROOT
BRANCH   1   2
ATOM      2  C   UNL     1      -5.398  -0.849  -0.341  0.00  0.00    +0.000 C 
ATOM      3  O   UNL     1      -5.673   0.343  -0.426  0.00  0.00    +0.000 OA
BRANCH   2   4
ATOM      4  C   UNL     1      -6.357  -1.945  -0.399  0.00  0.00    +0.000 A 
ATOM      5  C   UNL     1      -6.192  -3.319  -0.305  0.00  0.00    +0.000 A 
ATOM      6  C   UNL     1      -7.419  -4.037  -0.419  0.00  0.00    +0.000 A 
ATOM      7  C   UNL     1      -8.492  -3.196  -0.596  0.00  0.00    +0.000 A 
ATOM      8  S   UNL     1      -8.021  -1.556  -0.624  0.00  0.00    +0.000 S 
ENDBRANCH   2   4
ENDBRANCH   1   2
BRANCH   1   9
ATOM      9  C   UNL     1      -2.922   0.269  -0.179  0.00  0.00    +0.000 C 
BRANCH   9  13
ATOM     10  C   UNL     1       1.358  -0.108   0.216  0.00  0.00    +0.000 A 
ATOM     11  C   UNL     1       0.769  -0.138  -1.047  0.00  0.00    +0.000 A 
ATOM     12  C   UNL     1      -0.615  -0.014  -1.176  0.00  0.00    +0.000 A 
ATOM     13  C   UNL     1      -1.424   0.148  -0.041  0.00  0.00    +0.000 A 
ATOM     14  C   UNL     1      -0.820   0.168   1.225  0.00  0.00    +0.000 A 
ATOM     15  C   UNL     1       0.564   0.043   1.351  0.00  0.00    +0.000 A 
ENDBRANCH   9  13
ENDBRANCH   1   9
TORSDOF 4
