REMARK  Name = *****
REMARK  5 active torsions:
REMARK  status: ('A' for Active; 'I' for Inactive)
REMARK    1  A    between atoms: C_1  and  C_2
REMARK    2  A    between atoms: C_7  and  C_8
REMARK    3  A    between atoms: C_9  and  C_10
REMARK    4  A    between atoms: C_13  and  O_16
REMARK    5  A    between atoms: O_16  and  C_17
REMARK                            x       y       z     vdW  Elec       q    Type
REMARK                         _______ _______ _______ _____ _____    ______ ____
ROOT
ATOM      1  C   UNL     1       1.028  -2.436  -0.167  0.00  0.00    +0.000 C 
ATOM      2  C   UNL     1       2.335  -2.647   0.062  0.00  0.00    +0.000 C 
ENDROOT
BRANCH   1   9
ATOM      3  C   UNL     1      -1.363  -1.871   1.496  0.00  0.00    +0.000 C 
ATOM      4  C   UNL     1      -0.722  -0.821   0.628  0.00  0.00    +0.000 A 
ATOM      5  C   UNL     1      -1.286   0.466   0.587  0.00  0.00    +0.000 A 
ATOM      6  C   UNL     1      -0.725   1.468  -0.204  0.00  0.00    +0.000 A 
ATOM      7  C   UNL     1       0.403   1.197  -0.971  0.00  0.00    +0.000 A 
ATOM      8  C   UNL     1       0.971  -0.078  -0.946  0.00  0.00    +0.000 A 
ATOM      9  C   UNL     1       0.424  -1.094  -0.146  0.00  0.00    +0.000 A 
ENDBRANCH   1   9
BRANCH   2  10
ATOM     10  C   UNL     1       2.965  -3.975   0.070  0.00  0.00    +0.000 A 
ATOM     11  C   UNL     1       2.576  -4.998  -0.803  0.00  0.00    +0.000 A 
ATOM     12  C   UNL     1       3.221  -6.242  -0.786  0.00  0.00    +0.000 A 
ATOM     13  C   UNL     1       4.273  -6.475   0.098  0.00  0.00    +0.000 A 
ATOM     14  C   UNL     1       4.677  -5.452   0.957  0.00  0.00    +0.000 A 
ATOM     15  C   UNL     1       4.034  -4.211   0.941  0.00  0.00    +0.000 A 
BRANCH  13  16
ATOM     16  O   UNL     1       4.984  -7.637   0.216  0.00  0.00    +0.000 OA
ATOM     17  C   UNL     1       4.594  -8.717  -0.622  0.00  0.00    +0.000 C 
ENDBRANCH  13  16
ENDBRANCH   2  10
TORSDOF 3
