REMARK  Name = *****
REMARK  4 active torsions:
REMARK  status: ('A' for Active; 'I' for Inactive)
REMARK    1  A    between atoms: C_1  and  C_2
REMARK    2  A    between atoms: C_4  and  C_9
REMARK    3  A    between atoms: C_9  and  O_11
REMARK    4  A    between atoms: O_11  and  C_12
REMARK                            x       y       z     vdW  Elec       q    Type
REMARK                         _______ _______ _______ _____ _____    ______ ____
ROOT
ATOM      1  C   UNL     1       5.391  -2.282   0.644  0.00  0.00    +0.000 C 
ATOM      2  O   UNL     1       6.434  -2.537   0.065  0.00  0.00    +0.000 OA
ENDROOT
BRANCH   1   6
ATOM      3  C   UNL     1       0.927  -0.352  -0.514  0.00  0.00    +0.000 C 
ATOM      4  C   UNL     1       2.387  -0.169  -0.223  0.00  0.00    +0.000 A 
ATOM      5  C   UNL     1       3.189  -1.275   0.087  0.00  0.00    +0.000 A 
ATOM      6  C   UNL     1       4.552  -1.125   0.332  0.00  0.00    +0.000 A 
ATOM      7  C   UNL     1       5.128   0.136   0.245  0.00  0.00    +0.000 A 
ATOM      8  C   UNL     1       4.351   1.248  -0.076  0.00  0.00    +0.000 A 
ATOM      9  C   UNL     1       2.983   1.096  -0.314  0.00  0.00    +0.000 A 
ATOM     10  F   UNL     1       6.432   0.317   0.491  0.00  0.00    +0.000 F 
ATOM     11  F   UNL     1       2.627  -2.494   0.126  0.00  0.00    +0.000 F 
ENDBRANCH   1   6
BRANCH   1  12
ATOM     12  O   UNL     1       4.811  -2.948   1.705  0.00  0.00    +0.000 OA
BRANCH  12  13
ATOM     13  C   UNL     1       5.529  -4.078   2.102  0.00  0.00    +0.000 A 
ATOM     14  C   UNL     1       6.670  -3.940   2.893  0.00  0.00    +0.000 A 
ATOM     15  C   UNL     1       7.343  -5.086   3.320  0.00  0.00    +0.000 A 
ATOM     16  C   UNL     1       6.859  -6.347   2.966  0.00  0.00    +0.000 A 
ATOM     17  C   UNL     1       5.705  -6.475   2.190  0.00  0.00    +0.000 A 
ATOM     18  C   UNL     1       5.029  -5.333   1.760  0.00  0.00    +0.000 A 
ATOM     19 CL   UNL     1       7.689  -7.758   3.498  0.00  0.00    +0.000 Cl
ENDBRANCH  12  13
ENDBRANCH   1  12
TORSDOF 3
