REMARK  Name = *****
REMARK  4 active torsions:
REMARK  status: ('A' for Active; 'I' for Inactive)
REMARK    1  A    between atoms: C_1  and  C_2
REMARK    2  A    between atoms: C_5  and  O_8
REMARK    3  A    between atoms: O_8  and  C_9
REMARK    4  A    between atoms: C_9  and  C_11
REMARK                            x       y       z     vdW  Elec       q    Type
REMARK                         _______ _______ _______ _____ _____    ______ ____
ROOT
ATOM      1  C   UNL     1      -3.908   1.081  -0.509  0.00  0.00    +0.000 C 
ATOM      2  O   UNL     1      -3.409   2.017  -1.114  0.00  0.00    +0.000 OA
ENDROOT
BRANCH   1   3
ATOM      3  C   UNL     1      -5.381   0.908  -0.364  0.00  0.00    +0.000 A 
ATOM      4  C   UNL     1      -5.950  -0.173   0.323  0.00  0.00    +0.000 A 
ATOM      5  C   UNL     1      -7.336  -0.273   0.418  0.00  0.00    +0.000 A 
ATOM      6  C   UNL     1      -8.159   0.688  -0.158  0.00  0.00    +0.000 A 
ATOM      7  C   UNL     1      -7.609   1.766  -0.841  0.00  0.00    +0.000 A 
ATOM      8  C   UNL     1      -6.219   1.876  -0.944  0.00  0.00    +0.000 A 
ATOM      9  F   UNL     1      -9.491   0.583  -0.059  0.00  0.00    +0.000 F 
ATOM     10  F   UNL     1      -7.872  -1.310   1.076  0.00  0.00    +0.000 F 
ENDBRANCH   1   3
BRANCH   1  11
ATOM     11  O   UNL     1      -3.253   0.044   0.128  0.00  0.00    +0.000 OA
BRANCH  11  16
ATOM     12  C   UNL     1       2.435  -0.053   0.124  0.00  0.00    +0.000 C 
ATOM     13  C   UNL     1       0.936   0.001   0.095  0.00  0.00    +0.000 A 
ATOM     14  C   UNL     1       0.257   1.096   0.650  0.00  0.00    +0.000 A 
ATOM     15  C   UNL     1      -1.138   1.136   0.654  0.00  0.00    +0.000 A 
ATOM     16  C   UNL     1      -1.853   0.081   0.093  0.00  0.00    +0.000 A 
ATOM     17  C   UNL     1      -1.198  -1.031  -0.431  0.00  0.00    +0.000 A 
ATOM     18  C   UNL     1       0.197  -1.068  -0.431  0.00  0.00    +0.000 A 
ENDBRANCH  11  16
ENDBRANCH   1  11
TORSDOF 3
