REMARK  Name = *****
REMARK  4 active torsions:
REMARK  status: ('A' for Active; 'I' for Inactive)
REMARK    1  A    between atoms: C_4  and  C_7
REMARK    2  A    between atoms: C_7  and  C_8
REMARK    3  A    between atoms: C_8  and  C_9
REMARK    4  A    between atoms: C_11  and  C_15
REMARK                            x       y       z     vdW  Elec       q    Type
REMARK                         _______ _______ _______ _____ _____    ______ ____
ROOT
ATOM      1  C   UNL     1      -3.610  -0.872  -0.336  0.00  0.00    +0.000 C 
ENDROOT
BRANCH   1   2
ATOM      2  C   UNL     1      -5.094  -0.645  -0.499  0.00  0.00    +0.000 A 
ATOM      3  C   UNL     1      -5.648  -0.450  -1.773  0.00  0.00    +0.000 A 
ATOM      4  C   UNL     1      -7.021  -0.221  -1.923  0.00  0.00    +0.000 A 
ATOM      5  C   UNL     1      -7.847  -0.183  -0.795  0.00  0.00    +0.000 A 
ATOM      6  C   UNL     1      -7.302  -0.370   0.475  0.00  0.00    +0.000 A 
ATOM      7  C   UNL     1      -5.932  -0.597   0.623  0.00  0.00    +0.000 A 
BRANCH   4   8
ATOM      8  C   UNL     1      -7.578  -0.026  -3.229  0.00  0.00    +0.000 C 
ATOM      9  N   UNL     1      -8.028   0.134  -4.287  0.00  0.00    +0.000 NA
ENDBRANCH   4   8
ENDBRANCH   1   2
BRANCH   1  10
ATOM     10  C   UNL     1      -2.847   0.449  -0.199  0.00  0.00    +0.000 C 
BRANCH  10  14
ATOM     11  C   UNL     1       1.382  -0.254   0.262  0.00  0.00    +0.000 A 
ATOM     12  C   UNL     1       0.838  -0.079  -1.010  0.00  0.00    +0.000 A 
ATOM     13  C   UNL     1      -0.530   0.154  -1.160  0.00  0.00    +0.000 A 
ATOM     14  C   UNL     1      -1.365   0.219  -0.037  0.00  0.00    +0.000 A 
ATOM     15  C   UNL     1      -0.810   0.036   1.237  0.00  0.00    +0.000 A 
ATOM     16  C   UNL     1       0.558  -0.197   1.384  0.00  0.00    +0.000 A 
ENDBRANCH  10  14
ENDBRANCH   1  10
TORSDOF 4
