REMARK  Name = *****
REMARK  3 active torsions:
REMARK  status: ('A' for Active; 'I' for Inactive)
REMARK    1  A    between atoms: C_4  and  C_7
REMARK    2  A    between atoms: C_8  and  C_9
REMARK    3  A    between atoms: C_12  and  S_15
REMARK                            x       y       z     vdW  Elec       q    Type
REMARK                         _______ _______ _______ _____ _____    ______ ____
ROOT
ATOM      1  C   UNL     1      -5.173  -0.321  -0.624  0.00  0.00    +0.000 A 
ATOM      2  C   UNL     1      -5.677   0.765  -1.355  0.00  0.00    +0.000 A 
ATOM      3  C   UNL     1      -7.055   0.940  -1.513  0.00  0.00    +0.000 A 
ATOM      4  C   UNL     1      -7.936   0.022  -0.938  0.00  0.00    +0.000 A 
ATOM      5  C   UNL     1      -7.451  -1.083  -0.233  0.00  0.00    +0.000 A 
ATOM      6  C   UNL     1      -6.072  -1.250  -0.080  0.00  0.00    +0.000 A 
ENDROOT
BRANCH   4   7
ATOM      7  S   UNL     1      -9.681   0.222  -1.156  0.00  0.00    +0.000 S 
ATOM      8  O   UNL     1      -9.921   1.119  -2.267  0.00  0.00    +0.000 OA
ATOM      9  O   UNL     1     -10.323  -1.071  -1.039  0.00  0.00    +0.000 OA
ATOM     10 CL   UNL     1     -10.187   1.261   0.528  0.00  0.00    +0.000 Cl
ENDBRANCH   4   7
BRANCH   1  12
ATOM     11  C   UNL     1      -2.831   0.424  -0.276  0.00  0.00    +0.000 C 
ATOM     12  C   UNL     1      -3.731  -0.555  -0.465  0.00  0.00    +0.000 C 
BRANCH  11  16
ATOM     13  C   UNL     1       1.376  -0.158   0.242  0.00  0.00    +0.000 A 
ATOM     14  C   UNL     1       0.678  -0.961  -0.658  0.00  0.00    +0.000 A 
ATOM     15  C   UNL     1      -0.697  -0.786  -0.832  0.00  0.00    +0.000 A 
ATOM     16  C   UNL     1      -1.390   0.186  -0.099  0.00  0.00    +0.000 A 
ATOM     17  C   UNL     1      -0.674   0.998   0.790  0.00  0.00    +0.000 A 
ATOM     18  C   UNL     1       0.701   0.823   0.964  0.00  0.00    +0.000 A 
ENDBRANCH  11  16
ENDBRANCH   1  12
TORSDOF 3
