REMARK  Name = *****
REMARK  4 active torsions:
REMARK  status: ('A' for Active; 'I' for Inactive)
REMARK    1  A    between atoms: C_1  and  C_2
REMARK    2  A    between atoms: C_2  and  C_9
REMARK    3  A    between atoms: C_9  and  C_10
REMARK    4  A    between atoms: C_10  and  C_11
REMARK                            x       y       z     vdW  Elec       q    Type
REMARK                         _______ _______ _______ _____ _____    ______ ____
ROOT
ATOM      1  C   UNL     1       3.207   0.582   1.393  0.00  0.00    +0.000 C 
ATOM      2  C   UNL     1       2.609   0.164   0.034  0.00  0.00    +0.000 C 
ATOM      3  S   UNL     1       3.251   1.385  -1.197  0.00  0.00    +0.000 S 
ATOM      4  C   UNL     1       2.643   0.661  -2.746  0.00  0.00    +0.000 C 
ATOM      5  C   UNL     1       3.164  -0.749  -2.979  0.00  0.00    +0.000 C 
ATOM      6  C   UNL     1       2.630  -1.763  -1.984  0.00  0.00    +0.000 C 
ATOM      7  S   UNL     1       3.304  -1.527  -0.323  0.00  0.00    +0.000 S 
ATOM      8  O   UNL     1       2.633  -2.513   0.588  0.00  0.00    +0.000 OA
ENDROOT
BRANCH   2   9
ATOM      9  C   UNL     1       1.063   0.127   0.107  0.00  0.00    +0.000 C 
BRANCH   9  10
ATOM     10  C   UNL     1       0.392   1.432   0.561  0.00  0.00    +0.000 C 
BRANCH  10  11
ATOM     11  C   UNL     1      -1.112   1.338   0.458  0.00  0.00    +0.000 A 
ATOM     12  C   UNL     1      -1.854   0.697   1.459  0.00  0.00    +0.000 A 
ATOM     13  C   UNL     1      -3.242   0.594   1.353  0.00  0.00    +0.000 A 
ATOM     14  C   UNL     1      -3.900   1.126   0.246  0.00  0.00    +0.000 A 
ATOM     15  C   UNL     1      -3.171   1.761  -0.758  0.00  0.00    +0.000 A 
ATOM     16  C   UNL     1      -1.783   1.865  -0.654  0.00  0.00    +0.000 A 
ENDBRANCH  10  11
ENDBRANCH   9  10
ENDBRANCH   2   9
TORSDOF 3
