REMARK  Name = *****
REMARK  4 active torsions:
REMARK  status: ('A' for Active; 'I' for Inactive)
REMARK    1  A    between atoms: C_1  and  C_2
REMARK    2  A    between atoms: C_5  and  S_8
REMARK    3  A    between atoms: S_8  and  C_9
REMARK    4  A    between atoms: C_9  and  C_10
REMARK                            x       y       z     vdW  Elec       q    Type
REMARK                         _______ _______ _______ _____ _____    ______ ____
ROOT
ATOM      1  C   UNL     1       2.418   0.100  -0.224  0.00  0.00    +0.000 C 
ATOM      2  C   UNL     1       0.924   0.091  -0.094  0.00  0.00    +0.000 A 
ATOM      3  C   UNL     1       0.244   1.228   0.356  0.00  0.00    +0.000 A 
ATOM      4  C   UNL     1      -1.145   1.209   0.511  0.00  0.00    +0.000 A 
ATOM      5  C   UNL     1      -1.872   0.051   0.221  0.00  0.00    +0.000 A 
ATOM      6  C   UNL     1      -1.192  -1.095  -0.199  0.00  0.00    +0.000 A 
ATOM      7  C   UNL     1       0.196  -1.076  -0.355  0.00  0.00    +0.000 A 
ENDROOT
BRANCH   5   8
ATOM      8  S   UNL     1      -3.642  -0.006   0.417  0.00  0.00    +0.000 S 
BRANCH   8   9
ATOM      9  C   UNL     1      -4.121   1.248  -0.820  0.00  0.00    +0.000 C 
BRANCH   9  10
ATOM     10  C   UNL     1      -5.612   1.311  -0.955  0.00  0.00    +0.000 A 
ATOM     11  C   UNL     1      -6.441   0.492  -1.699  0.00  0.00    +0.000 A 
ATOM     12  C   UNL     1      -7.812   0.862  -1.590  0.00  0.00    +0.000 A 
ATOM     13  C   UNL     1      -7.987   1.954  -0.769  0.00  0.00    +0.000 A 
ATOM     14  S   UNL     1      -6.505   2.527  -0.139  0.00  0.00    +0.000 S 
ENDBRANCH   9  10
ENDBRANCH   8   9
ENDBRANCH   5   8
TORSDOF 3
