REMARK  Name = *****
REMARK  6 active torsions:
REMARK  status: ('A' for Active; 'I' for Inactive)
REMARK    1  A    between atoms: C_1  and  C_2
REMARK    2  A    between atoms: C_5  and  C_16
REMARK    3  A    between atoms: C_6  and  C_8
REMARK    4  A    between atoms: C_8  and  C_9
REMARK    5  A    between atoms: C_9  and  C_10
REMARK    6  A    between atoms: C_16  and  C_18
REMARK                            x       y       z     vdW  Elec       q    Type
REMARK                         _______ _______ _______ _____ _____    ______ ____
ROOT
ATOM      1  C   UNL     1       2.485   0.355  -0.020  0.00  0.00    +0.000 C 
ATOM      2  C   UNL     1       1.024   0.279   0.400  0.00  0.00    +0.000 C 
ATOM      3  C   UNL     1       0.237   1.476  -0.128  0.00  0.00    +0.000 C 
ATOM      4  C   UNL     1      -1.241   1.338   0.224  0.00  0.00    +0.000 C 
ATOM      5  C   UNL     1      -1.789  -0.023  -0.240  0.00  0.00    +0.000 C 
ATOM      6  C   UNL     1      -0.877  -1.166   0.280  0.00  0.00    +0.000 C 
ATOM      7  O   UNL     1       0.482  -0.933  -0.130  0.00  0.00    +0.000 OA
ENDROOT
BRANCH   5   8
ATOM      8  C   UNL     1      -3.265  -0.170   0.119  0.00  0.00    +0.000 C 
ATOM      9  C   UNL     1      -4.208  -0.208  -0.838  0.00  0.00    +0.000 C 
ATOM     10  C   UNL     1      -3.642  -0.278   1.573  0.00  0.00    +0.000 C 
ENDBRANCH   5   8
BRANCH   6  11
ATOM     11  C   UNL     1      -1.294  -2.539  -0.271  0.00  0.00    +0.000 C 
BRANCH  11  12
ATOM     12  C   UNL     1      -0.403  -3.664   0.268  0.00  0.00    +0.000 C 
BRANCH  12  13
ATOM     13  C   UNL     1      -0.851  -5.015  -0.234  0.00  0.00    +0.000 A 
ATOM     14  C   UNL     1      -0.348  -5.525  -1.438  0.00  0.00    +0.000 A 
ATOM     15  C   UNL     1      -0.775  -6.766  -1.914  0.00  0.00    +0.000 A 
ATOM     16  C   UNL     1      -1.711  -7.505  -1.193  0.00  0.00    +0.000 A 
ATOM     17  C   UNL     1      -2.223  -7.003   0.003  0.00  0.00    +0.000 A 
ATOM     18  C   UNL     1      -1.797  -5.762   0.479  0.00  0.00    +0.000 A 
ENDBRANCH  12  13
ENDBRANCH  11  12
ENDBRANCH   6  11
TORSDOF 4
