REMARK  Name = *****
REMARK  5 active torsions:
REMARK  status: ('A' for Active; 'I' for Inactive)
REMARK    1  A    between atoms: C_1  and  C_2
REMARK    2  A    between atoms: C_2  and  C_4
REMARK    3  A    between atoms: C_5  and  C_11
REMARK    4  A    between atoms: C_11  and  C_12
REMARK    5  A    between atoms: C_12  and  C_13
REMARK                            x       y       z     vdW  Elec       q    Type
REMARK                         _______ _______ _______ _____ _____    ______ ____
ROOT
ATOM      1  C   UNL     1       3.389  -1.917   0.339  0.00  0.00    +0.000 A 
ATOM      2  C   UNL     1       2.407  -2.918   0.483  0.00  0.00    +0.000 A 
ATOM      3  C   UNL     1       2.533  -3.829   1.551  0.00  0.00    +0.000 A 
ATOM      4  C   UNL     1       3.603  -3.744   2.442  0.00  0.00    +0.000 A 
ATOM      5  C   UNL     1       4.568  -2.754   2.293  0.00  0.00    +0.000 A 
ATOM      6  C   UNL     1       4.460  -1.839   1.245  0.00  0.00    +0.000 A 
ATOM      7 CL   UNL     1       3.734  -4.877   3.729  0.00  0.00    +0.000 Cl
ENDROOT
BRANCH   1   9
ATOM      8  C   UNL     1       4.564  -0.668  -1.563  0.00  0.00    +0.000 C 
ATOM      9  C   UNL     1       3.326  -0.893  -0.736  0.00  0.00    +0.000 C 
ATOM     10  O   UNL     1       2.311  -0.219  -0.885  0.00  0.00    +0.000 OA
ENDBRANCH   1   9
BRANCH   2  11
ATOM     11  C   UNL     1       1.257  -3.108  -0.485  0.00  0.00    +0.000 C 
BRANCH  11  12
ATOM     12  C   UNL     1       1.464  -4.281  -1.454  0.00  0.00    +0.000 C 
BRANCH  12  13
ATOM     13  C   UNL     1       2.612  -4.081  -2.415  0.00  0.00    +0.000 A 
ATOM     14  C   UNL     1       3.827  -4.752  -2.222  0.00  0.00    +0.000 A 
ATOM     15  C   UNL     1       4.890  -4.561  -3.106  0.00  0.00    +0.000 A 
ATOM     16  C   UNL     1       4.748  -3.697  -4.191  0.00  0.00    +0.000 A 
ATOM     17  C   UNL     1       3.545  -3.023  -4.391  0.00  0.00    +0.000 A 
ATOM     18  C   UNL     1       2.482  -3.211  -3.506  0.00  0.00    +0.000 A 
ENDBRANCH  12  13
ENDBRANCH  11  12
ENDBRANCH   2  11
TORSDOF 4
