REMARK  Name = *****
REMARK  3 active torsions:
REMARK  status: ('A' for Active; 'I' for Inactive)
REMARK    1  A    between atoms: C_3  and  S_8
REMARK    2  A    between atoms: S_8  and  S_9
REMARK    3  A    between atoms: S_9  and  C_10
REMARK                            x       y       z     vdW  Elec       q    Type
REMARK                         _______ _______ _______ _____ _____    ______ ____
ROOT
ATOM      1  S   UNL     1      -3.288   1.731  -2.302  0.00  0.00    +0.000 S 
ENDROOT
BRANCH   1   4
ATOM      2  C   UNL     1      -1.967  -0.955   0.449  0.00  0.00    +0.000 A 
ATOM      3  C   UNL     1      -2.731  -0.311  -0.526  0.00  0.00    +0.000 A 
ATOM      4  C   UNL     1      -2.307   0.915  -1.057  0.00  0.00    +0.000 A 
ATOM      5  C   UNL     1      -1.106   1.482  -0.612  0.00  0.00    +0.000 A 
ATOM      6  C   UNL     1      -0.342   0.836   0.362  0.00  0.00    +0.000 A 
ATOM      7  C   UNL     1      -0.780  -0.376   0.884  0.00  0.00    +0.000 A 
ATOM      8  F   UNL     1      -0.049  -0.994   1.819  0.00  0.00    +0.000 F 
ENDBRANCH   1   4
BRANCH   1   9
ATOM      9  S   UNL     1      -4.188   3.225  -1.210  0.00  0.00    +0.000 S 
BRANCH   9  10
ATOM     10  C   UNL     1      -5.578   2.364  -0.501  0.00  0.00    +0.000 A 
ATOM     11  C   UNL     1      -5.512   1.891   0.816  0.00  0.00    +0.000 A 
ATOM     12  C   UNL     1      -6.600   1.217   1.374  0.00  0.00    +0.000 A 
ATOM     13  C   UNL     1      -7.750   1.026   0.617  0.00  0.00    +0.000 A 
ATOM     14  C   UNL     1      -7.834   1.496  -0.689  0.00  0.00    +0.000 A 
ATOM     15  C   UNL     1      -6.746   2.168  -1.249  0.00  0.00    +0.000 A 
ATOM     16  F   UNL     1      -8.793   0.380   1.153  0.00  0.00    +0.000 F 
ENDBRANCH   9  10
ENDBRANCH   1   9
TORSDOF 3
