REMARK  Name = *****
REMARK  3 active torsions:
REMARK  status: ('A' for Active; 'I' for Inactive)
REMARK    1  A    between atoms: C_5  and  C_7
REMARK    2  A    between atoms: C_8  and  C_9
REMARK    3  A    between atoms: C_9  and  C_11
REMARK                            x       y       z     vdW  Elec       q    Type
REMARK                         _______ _______ _______ _____ _____    ______ ____
ROOT
ATOM      1  C   UNL     1      -1.924  -1.911  -0.771  0.00  0.00    +0.000 C 
ATOM      2  C   UNL     1      -3.267  -1.925  -0.766  0.00  0.00    +0.000 C 
ENDROOT
BRANCH   1   7
ATOM      3  C   UNL     1       0.867   0.584   0.090  0.00  0.00    +0.000 C 
ATOM      4  C   UNL     1       1.788  -0.454   0.735  0.00  0.00    +0.000 C 
ATOM      5  C   UNL     1       1.041  -1.614   1.324  0.00  0.00    +0.000 C 
ATOM      6  C   UNL     1      -0.251  -1.865   1.060  0.00  0.00    +0.000 C 
ATOM      7  C   UNL     1      -1.085  -1.031   0.119  0.00  0.00    +0.000 C 
ATOM      8  C   UNL     1      -0.224  -0.087  -0.742  0.00  0.00    +0.000 C 
ENDBRANCH   1   7
BRANCH   2   9
ATOM      9  C   UNL     1      -4.009  -2.819  -1.698  0.00  0.00    +0.000 C 
ATOM     10  O   UNL     1      -3.451  -3.390  -2.629  0.00  0.00    +0.000 OA
BRANCH   9  11
ATOM     11  C   UNL     1      -5.477  -2.968  -1.501  0.00  0.00    +0.000 A 
ATOM     12  C   UNL     1      -6.266  -3.254  -2.623  0.00  0.00    +0.000 A 
ATOM     13  C   UNL     1      -7.647  -3.410  -2.491  0.00  0.00    +0.000 A 
ATOM     14  C   UNL     1      -8.244  -3.290  -1.237  0.00  0.00    +0.000 A 
ATOM     15  C   UNL     1      -7.463  -3.024  -0.113  0.00  0.00    +0.000 A 
ATOM     16  C   UNL     1      -6.080  -2.866  -0.241  0.00  0.00    +0.000 A 
ENDBRANCH   9  11
ENDBRANCH   2   9
TORSDOF 3
