REMARK  Name = *****
REMARK  3 active torsions:
REMARK  status: ('A' for Active; 'I' for Inactive)
REMARK    1  A    between atoms: C_4  and  C_7
REMARK    2  A    between atoms: C_7  and  O_8
REMARK    3  A    between atoms: O_8  and  P_9
REMARK                            x       y       z     vdW  Elec       q    Type
REMARK                         _______ _______ _______ _____ _____    ______ ____
ROOT
ATOM      1  P   UNL     1      -5.663   0.806  -1.513  0.00  0.00    +0.000 P 
ATOM      2  O   UNL     1      -6.442  -0.593  -1.875  0.00  0.00    +0.000 OA
ATOM      3  C   UNL     1      -7.268  -0.947  -0.845  0.00  0.00    +0.000 A 
ATOM      4  C   UNL     1      -8.083  -2.058  -0.808  0.00  0.00    +0.000 A 
ATOM      5  C   UNL     1      -8.858  -2.254   0.339  0.00  0.00    +0.000 A 
ATOM      6  C   UNL     1      -8.800  -1.342   1.411  0.00  0.00    +0.000 A 
ATOM      7  C   UNL     1      -7.966  -0.222   1.352  0.00  0.00    +0.000 A 
ATOM      8  C   UNL     1      -7.211  -0.049   0.211  0.00  0.00    +0.000 A 
ATOM      9  O   UNL     1      -6.341   0.980  -0.027  0.00  0.00    +0.000 OA
ENDROOT
BRANCH   1  10
ATOM     10  O   UNL     1      -4.251   0.158  -1.044  0.00  0.00    +0.000 OA
BRANCH  10  11
ATOM     11  C   UNL     1      -3.225   1.080  -0.687  0.00  0.00    +0.000 C 
BRANCH  11  15
ATOM     12  C   UNL     1       0.444  -0.964   0.330  0.00  0.00    +0.000 A 
ATOM     13  C   UNL     1      -0.382  -1.477  -0.668  0.00  0.00    +0.000 A 
ATOM     14  C   UNL     1      -1.573  -0.827  -0.993  0.00  0.00    +0.000 A 
ATOM     15  C   UNL     1      -1.959   0.339  -0.316  0.00  0.00    +0.000 A 
ATOM     16  C   UNL     1      -1.112   0.853   0.677  0.00  0.00    +0.000 A 
ATOM     17  C   UNL     1       0.081   0.202   1.001  0.00  0.00    +0.000 A 
ENDBRANCH  11  15
ENDBRANCH  10  11
ENDBRANCH   1  10
TORSDOF 3
