REMARK  Name = *****
REMARK  7 active torsions:
REMARK  status: ('A' for Active; 'I' for Inactive)
REMARK    1  A    between atoms: C_1  and  C_2
REMARK    2  A    between atoms: C_4  and  C_8
REMARK    3  A    between atoms: C_8  and  C_10
REMARK    4  A    between atoms: C_10  and  C_11
REMARK    5  A    between atoms: C_12  and  C_19
REMARK    6  A    between atoms: C_14  and  C_18
REMARK    7  A    between atoms: C_16  and  C_17
REMARK                            x       y       z     vdW  Elec       q    Type
REMARK                         _______ _______ _______ _____ _____    ______ ____
ROOT
ATOM      1  C   UNL     1      -0.985   3.900  -0.303  0.00  0.00    +0.000 C 
ENDROOT
BRANCH   1   2
ATOM      2  C   UNL     1       0.450   3.653   0.135  0.00  0.00    +0.000 A 
ATOM      3  C   UNL     1       0.826   2.418   0.715  0.00  0.00    +0.000 A 
ATOM      4  C   UNL     1       2.163   2.205   1.092  0.00  0.00    +0.000 A 
ATOM      5  C   UNL     1       3.133   3.193   0.915  0.00  0.00    +0.000 A 
ATOM      6  C   UNL     1       2.752   4.426   0.382  0.00  0.00    +0.000 A 
ATOM      7  C   UNL     1       1.424   4.673  -0.006  0.00  0.00    +0.000 A 
ATOM      8  C   UNL     1       1.090   6.026  -0.579  0.00  0.00    +0.000 C 
ATOM      9  C   UNL     1       4.546   2.963   1.362  0.00  0.00    +0.000 C 
ATOM     10  C   UNL     1      -0.163   1.304   0.936  0.00  0.00    +0.000 C 
ENDBRANCH   1   2
BRANCH   1  11
ATOM     11  C   UNL     1      -1.847   4.564   0.761  0.00  0.00    +0.000 C 
ATOM     12  O   UNL     1      -1.664   4.412   1.967  0.00  0.00    +0.000 OA
BRANCH  11  16
ATOM     13  C   UNL     1      -5.218   6.037  -2.711  0.00  0.00    +0.000 C 
ATOM     14  C   UNL     1      -4.605   6.160  -1.346  0.00  0.00    +0.000 A 
ATOM     15  C   UNL     1      -3.545   5.323  -0.965  0.00  0.00    +0.000 A 
ATOM     16  C   UNL     1      -2.989   5.419   0.318  0.00  0.00    +0.000 A 
ATOM     17  C   UNL     1      -3.522   6.337   1.232  0.00  0.00    +0.000 A 
ATOM     18  C   UNL     1      -4.587   7.159   0.865  0.00  0.00    +0.000 A 
ATOM     19  C   UNL     1      -5.127   7.069  -0.418  0.00  0.00    +0.000 A 
ENDBRANCH  11  16
ENDBRANCH   1  11
TORSDOF 3
