REMARK  Name = *****
REMARK  2 active torsions:
REMARK  status: ('A' for Active; 'I' for Inactive)
REMARK    1  A    between atoms: C_6  and  C_7
REMARK    2  A    between atoms: C_8  and  C_9
REMARK                            x       y       z     vdW  Elec       q    Type
REMARK                         _______ _______ _______ _____ _____    ______ ____
ROOT
ATOM      1  C   UNL     1       1.314   2.638  -0.288  0.00  0.00    +0.000 C 
ATOM      2  C   UNL     1       1.844   3.709  -0.414  0.00  0.00    +0.000 C 
ENDROOT
BRANCH   1   8
ATOM      3  C   UNL     1      -0.713   1.277  -0.084  0.00  0.00    +0.000 A 
ATOM      4  C   UNL     1      -1.328   0.032   0.060  0.00  0.00    +0.000 A 
ATOM      5  C   UNL     1      -0.545  -1.114   0.147  0.00  0.00    +0.000 A 
ATOM      6  C   UNL     1       0.842  -1.040   0.092  0.00  0.00    +0.000 A 
ATOM      7  C   UNL     1       1.460   0.204  -0.051  0.00  0.00    +0.000 A 
ATOM      8  C   UNL     1       0.682   1.364  -0.140  0.00  0.00    +0.000 A 
ATOM      9  F   UNL     1      -1.137  -2.308   0.284  0.00  0.00    +0.000 F 
ENDBRANCH   1   8
BRANCH   2  10
ATOM     10  C   UNL     1       2.474   4.984  -0.565  0.00  0.00    +0.000 A 
ATOM     11  C   UNL     1       1.819   6.143  -0.140  0.00  0.00    +0.000 A 
ATOM     12  C   UNL     1       2.433   7.389  -0.288  0.00  0.00    +0.000 A 
ATOM     13  C   UNL     1       3.701   7.470  -0.863  0.00  0.00    +0.000 A 
ATOM     14  C   UNL     1       4.361   6.318  -1.289  0.00  0.00    +0.000 A 
ATOM     15  C   UNL     1       3.745   5.072  -1.140  0.00  0.00    +0.000 A 
ATOM     16 BR   UNL     1       4.533   9.155  -1.065  0.00  0.00    +0.000 Br
ENDBRANCH   2  10
TORSDOF 2
