REMARK  Name = *****
REMARK  5 active torsions:
REMARK  status: ('A' for Active; 'I' for Inactive)
REMARK    1  A    between atoms: C_1  and  O_2
REMARK    2  A    between atoms: O_2  and  C_3
REMARK    3  A    between atoms: C_6  and  C_9
REMARK    4  A    between atoms: C_9  and  C_10
REMARK    5  A    between atoms: C_10  and  C_11
REMARK                            x       y       z     vdW  Elec       q    Type
REMARK                         _______ _______ _______ _____ _____    ______ ____
ROOT
ATOM      1  C   UNL     1       5.358  -4.369   1.822  0.00  0.00    +0.000 C 
ENDROOT
BRANCH   1   5
ATOM      2  C   UNL     1       2.592  -1.408   0.297  0.00  0.00    +0.000 A 
ATOM      3  C   UNL     1       2.261  -2.169   1.417  0.00  0.00    +0.000 A 
ATOM      4  C   UNL     1       3.159  -3.121   1.914  0.00  0.00    +0.000 A 
ATOM      5  C   UNL     1       4.402  -3.320   1.298  0.00  0.00    +0.000 A 
ATOM      6  C   UNL     1       4.729  -2.554   0.174  0.00  0.00    +0.000 A 
ATOM      7  C   UNL     1       3.829  -1.607  -0.319  0.00  0.00    +0.000 A 
BRANCH   2   9
ATOM      8  C   UNL     1       0.538  -0.213   0.302  0.00  0.00    +0.000 C 
ATOM      9  O   UNL     1       1.809  -0.452  -0.288  0.00  0.00    +0.000 OA
ENDBRANCH   2   9
ENDBRANCH   1   5
BRANCH   1  10
ATOM     10  C   UNL     1       5.070  -5.773   1.261  0.00  0.00    +0.000 C 
ATOM     11 CL   UNL     1       5.970  -7.000   2.222  0.00  0.00    +0.000 Cl
BRANCH  10  12
ATOM     12  C   UNL     1       5.412  -5.929  -0.209  0.00  0.00    +0.000 A 
ATOM     13  C   UNL     1       6.733  -5.828  -0.678  0.00  0.00    +0.000 A 
ATOM     14  C   UNL     1       7.017  -5.948  -2.040  0.00  0.00    +0.000 A 
ATOM     15  C   UNL     1       5.988  -6.166  -2.952  0.00  0.00    +0.000 A 
ATOM     16  C   UNL     1       4.673  -6.266  -2.504  0.00  0.00    +0.000 A 
ATOM     17  C   UNL     1       4.386  -6.148  -1.143  0.00  0.00    +0.000 A 
ENDBRANCH  10  12
ENDBRANCH   1  10
TORSDOF 4
