REMARK  Name = *****
REMARK  2 active torsions:
REMARK  status: ('A' for Active; 'I' for Inactive)
REMARK    1  A    between atoms: C_1  and  C_2
REMARK    2  A    between atoms: C_9  and  C_12
REMARK                            x       y       z     vdW  Elec       q    Type
REMARK                         _______ _______ _______ _____ _____    ______ ____
ROOT
ATOM      1  C   UNL     1       0.886   0.051  -0.191  0.00  0.00    +0.000 C 
ATOM      2  C   UNL     1       2.379   0.096  -0.004  0.00  0.00    +0.000 A 
ATOM      3  C   UNL     1       3.111  -1.099   0.057  0.00  0.00    +0.000 A 
ATOM      4  C   UNL     1       4.507  -1.030   0.217  0.00  0.00    +0.000 A 
ATOM      5  C   UNL     1       5.147   0.217   0.302  0.00  0.00    +0.000 A 
ATOM      6  C   UNL     1       4.411   1.396   0.229  0.00  0.00    +0.000 A 
ATOM      7  C   UNL     1       3.031   1.337   0.075  0.00  0.00    +0.000 A 
ATOM      8  C   UNL     1       5.239  -2.225   0.284  0.00  0.00    +0.000 A 
ATOM      9  C   UNL     1       4.585  -3.446   0.196  0.00  0.00    +0.000 A 
ATOM     10  N   UNL     1       3.247  -3.473   0.033  0.00  0.00    +0.000 NA
ATOM     11  N   UNL     1       2.517  -2.301  -0.034  0.00  0.00    +0.000 NA
ENDROOT
BRANCH   9  12
ATOM     12  C   UNL     1       5.269  -4.752   0.257  0.00  0.00    +0.000 A 
ATOM     13  C   UNL     1       6.440  -4.949   1.012  0.00  0.00    +0.000 A 
ATOM     14  C   UNL     1       7.078  -6.194   1.056  0.00  0.00    +0.000 A 
ATOM     15  C   UNL     1       6.556  -7.272   0.347  0.00  0.00    +0.000 A 
ATOM     16  C   UNL     1       5.394  -7.108  -0.401  0.00  0.00    +0.000 A 
ATOM     17  C   UNL     1       4.759  -5.863  -0.442  0.00  0.00    +0.000 A 
ENDBRANCH   9  12
TORSDOF 1
