REMARK  Name = *****
REMARK  1 active torsions:
REMARK  status: ('A' for Active; 'I' for Inactive)
REMARK    1  A    between atoms: C_4  and  C_7
REMARK                            x       y       z     vdW  Elec       q    Type
REMARK                         _______ _______ _______ _____ _____    ______ ____
ROOT
ATOM      1  C   UNL     1      -2.863  -1.185  -0.070  0.00  0.00    +0.000 C 
ATOM      2  C   UNL     1      -4.045  -1.063   0.554  0.00  0.00    +0.000 C 
ATOM      3  S   UNL     1      -5.529  -1.805   0.072  0.00  0.00    +0.000 S 
ATOM      4  C   UNL     1      -4.929  -3.340  -0.615  0.00  0.00    +0.000 A 
ATOM      5  C   UNL     1      -5.766  -4.462  -0.507  0.00  0.00    +0.000 A 
ATOM      6  C   UNL     1      -5.381  -5.695  -1.035  0.00  0.00    +0.000 A 
ATOM      7  C   UNL     1      -4.157  -5.819  -1.683  0.00  0.00    +0.000 A 
ATOM      8  C   UNL     1      -3.320  -4.709  -1.803  0.00  0.00    +0.000 A 
ATOM      9  C   UNL     1      -3.694  -3.465  -1.270  0.00  0.00    +0.000 A 
ATOM     10  S   UNL     1      -2.560  -2.106  -1.501  0.00  0.00    +0.000 S 
ENDROOT
BRANCH   1  14
ATOM     11  C   UNL     1       0.483   0.966   1.493  0.00  0.00    +0.000 A 
ATOM     12  C   UNL     1       0.109  -0.251   2.061  0.00  0.00    +0.000 A 
ATOM     13  C   UNL     1      -0.980  -0.957   1.546  0.00  0.00    +0.000 A 
ATOM     14  C   UNL     1      -1.701  -0.451   0.455  0.00  0.00    +0.000 A 
ATOM     15  C   UNL     1      -1.320   0.777  -0.106  0.00  0.00    +0.000 A 
ATOM     16  C   UNL     1      -0.230   1.480   0.411  0.00  0.00    +0.000 A 
ENDBRANCH   1  14
TORSDOF 1
