REMARK  Name = *****
REMARK  5 active torsions:
REMARK  status: ('A' for Active; 'I' for Inactive)
REMARK    1  A    between atoms: C_1  and  O_2
REMARK    2  A    between atoms: O_2  and  P_3
REMARK    3  A    between atoms: P_3  and  C_5
REMARK    4  A    between atoms: P_3  and  O_11
REMARK    5  A    between atoms: O_11  and  C_12
REMARK                            x       y       z     vdW  Elec       q    Type
REMARK                         _______ _______ _______ _____ _____    ______ ____
ROOT
ATOM      1  P   UNL     1       2.930   0.152  -1.294  0.00  0.00    +0.000 P 
ATOM      2  O   UNL     1       2.755   1.421  -0.506  0.00  0.00    +0.000 OA
ENDROOT
BRANCH   1   3
ATOM      3  C   UNL     1       3.872  -1.147  -0.541  0.00  0.00    +0.000 A 
ATOM      4  C   UNL     1       3.862  -2.445  -1.074  0.00  0.00    +0.000 A 
ATOM      5  C   UNL     1       4.603  -3.465  -0.476  0.00  0.00    +0.000 A 
ATOM      6  C   UNL     1       5.365  -3.197   0.659  0.00  0.00    +0.000 A 
ATOM      7  C   UNL     1       5.387  -1.912   1.198  0.00  0.00    +0.000 A 
ATOM      8  C   UNL     1       4.644  -0.892   0.601  0.00  0.00    +0.000 A 
ENDBRANCH   1   3
BRANCH   1  10
ATOM      9  C   UNL     1       0.542  -0.593  -0.631  0.00  0.00    +0.000 C 
ATOM     10  O   UNL     1       1.496  -0.507  -1.671  0.00  0.00    +0.000 OA
ENDBRANCH   1  10
BRANCH   1  11
ATOM     11  O   UNL     1       3.616   0.373  -2.750  0.00  0.00    +0.000 OA
BRANCH  11  12
ATOM     12  C   UNL     1       2.945   1.056  -3.730  0.00  0.00    +0.000 A 
ATOM     13  C   UNL     1       2.999   2.450  -3.805  0.00  0.00    +0.000 A 
ATOM     14  C   UNL     1       2.295   3.126  -4.807  0.00  0.00    +0.000 A 
ATOM     15  C   UNL     1       1.558   2.411  -5.752  0.00  0.00    +0.000 A 
ATOM     16  C   UNL     1       1.539   1.018  -5.707  0.00  0.00    +0.000 A 
ATOM     17  C   UNL     1       2.238   0.341  -4.704  0.00  0.00    +0.000 A 
ATOM     18 CL   UNL     1       2.230  -1.386  -4.729  0.00  0.00    +0.000 Cl
ATOM     19 CL   UNL     1       3.972   3.384  -2.730  0.00  0.00    +0.000 Cl
ENDBRANCH  11  12
ENDBRANCH   1  11
TORSDOF 4
