REMARK  Name = *****
REMARK  4 active torsions:
REMARK  status: ('A' for Active; 'I' for Inactive)
REMARK    1  A    between atoms: C_1  and  O_2
REMARK    2  A    between atoms: O_2  and  C_3
REMARK    3  A    between atoms: C_3  and  C_11
REMARK    4  A    between atoms: C_4  and  C_5
REMARK                            x       y       z     vdW  Elec       q    Type
REMARK                         _______ _______ _______ _____ _____    ______ ____
ROOT
ATOM      1  C   UNL     1       3.227   0.822  -1.044  0.00  0.00    +0.000 C 
ATOM      2  C   UNL     1       2.506   1.781  -1.654  0.00  0.00    +0.000 C 
ENDROOT
BRANCH   2   3
ATOM      3  C   UNL     1       1.040   1.834  -1.741  0.00  0.00    +0.000 A 
ATOM      4  C   UNL     1       0.219   1.647  -0.623  0.00  0.00    +0.000 A 
ATOM      5  C   UNL     1      -1.170   1.746  -0.736  0.00  0.00    +0.000 A 
ATOM      6  C   UNL     1      -1.751   2.043  -1.968  0.00  0.00    +0.000 A 
ATOM      7  C   UNL     1      -0.943   2.245  -3.085  0.00  0.00    +0.000 A 
ATOM      8  C   UNL     1       0.446   2.147  -2.971  0.00  0.00    +0.000 A 
ENDBRANCH   2   3
BRANCH   1   9
ATOM      9  C   UNL     1       4.701   0.856  -1.110  0.00  0.00    +0.000 A 
ATOM     10  C   UNL     1       5.424   1.930  -0.571  0.00  0.00    +0.000 A 
ATOM     11  C   UNL     1       6.819   1.947  -0.637  0.00  0.00    +0.000 A 
ATOM     12  C   UNL     1       7.502   0.893  -1.241  0.00  0.00    +0.000 A 
ATOM     13  C   UNL     1       6.793  -0.180  -1.780  0.00  0.00    +0.000 A 
ATOM     14  C   UNL     1       5.399  -0.199  -1.713  0.00  0.00    +0.000 A 
ENDBRANCH   1   9
BRANCH   1  16
ATOM     15  C   UNL     1       3.071  -0.544   0.854  0.00  0.00    +0.000 C 
ATOM     16  O   UNL     1       2.638  -0.296  -0.483  0.00  0.00    +0.000 OA
ENDBRANCH   1  16
TORSDOF 3
