REMARK  Name = *****
REMARK  1 active torsions:
REMARK  status: ('A' for Active; 'I' for Inactive)
REMARK    1  A    between atoms: C_3  and  C_4
REMARK                            x       y       z     vdW  Elec       q    Type
REMARK                         _______ _______ _______ _____ _____    ______ ____
ROOT
ATOM      1  C   UNL     1      -1.056  -1.750   0.017  0.00  0.00    +0.000 C 
ATOM      2  C   UNL     1      -2.289  -0.860   0.035  0.00  0.00    +0.000 C 
ATOM      3  C   UNL     1      -3.568  -1.269   0.060  0.00  0.00    +0.000 C 
ATOM      4  C   UNL     1      -1.874   0.601   0.025  0.00  0.00    +0.000 C 
ATOM      5  C   UNL     1      -0.375   0.547   0.008  0.00  0.00    +0.000 A 
ATOM      6  C   UNL     1       0.513   1.611  -0.004  0.00  0.00    +0.000 A 
ATOM      7  C   UNL     1       1.882   1.333  -0.020  0.00  0.00    +0.000 A 
ATOM      8  C   UNL     1       2.343   0.008  -0.025  0.00  0.00    +0.000 A 
ATOM      9  C   UNL     1       1.442  -1.059  -0.013  0.00  0.00    +0.000 A 
ATOM     10  C   UNL     1       0.085  -0.775   0.003  0.00  0.00    +0.000 A 
ENDROOT
BRANCH   3  11
ATOM     11  C   UNL     1      -3.956  -2.679   0.071  0.00  0.00    +0.000 A 
ATOM     12  C   UNL     1      -4.144  -3.347   1.285  0.00  0.00    +0.000 A 
ATOM     13  C   UNL     1      -4.502  -4.696   1.296  0.00  0.00    +0.000 A 
ATOM     14  C   UNL     1      -4.670  -5.383   0.094  0.00  0.00    +0.000 A 
ATOM     15  C   UNL     1      -4.482  -4.722  -1.120  0.00  0.00    +0.000 A 
ATOM     16  C   UNL     1      -4.124  -3.373  -1.132  0.00  0.00    +0.000 A 
ENDBRANCH   3  11
TORSDOF 1
