REMARK  Name = *****
REMARK  4 active torsions:
REMARK  status: ('A' for Active; 'I' for Inactive)
REMARK    1  A    between atoms: C_1  and  C_2
REMARK    2  A    between atoms: C_4  and  N_8
REMARK    3  A    between atoms: C_9  and  C_10
REMARK    4  A    between atoms: C_9  and  C_11
REMARK                            x       y       z     vdW  Elec       q    Type
REMARK                         _______ _______ _______ _____ _____    ______ ____
ROOT
ATOM      1  N   UNL     1      -1.544   2.585  -0.227  0.00  0.00    +0.000 NA
ATOM      2  C   UNL     1      -1.129   3.677   0.349  0.00  0.00    +0.000 C 
ATOM      3  C   UNL     1       0.086   3.750   1.256  0.00  0.00    +0.000 C 
ENDROOT
BRANCH   1   7
ATOM      4  C   UNL     1       2.116  -0.477  -1.536  0.00  0.00    +0.000 C 
ATOM      5  C   UNL     1       0.948  -0.139  -0.659  0.00  0.00    +0.000 A 
ATOM      6  C   UNL     1       0.257   1.068  -0.834  0.00  0.00    +0.000 A 
ATOM      7  C   UNL     1      -0.850   1.383  -0.039  0.00  0.00    +0.000 A 
ATOM      8  C   UNL     1      -1.297   0.458   0.906  0.00  0.00    +0.000 A 
ATOM      9  C   UNL     1      -0.628  -0.753   1.080  0.00  0.00    +0.000 A 
ATOM     10  C   UNL     1       0.489  -1.051   0.299  0.00  0.00    +0.000 A 
ENDBRANCH   1   7
BRANCH   2  11
ATOM     11  C   UNL     1      -1.888   4.940   0.089  0.00  0.00    +0.000 A 
ATOM     12  C   UNL     1      -3.249   4.859  -0.236  0.00  0.00    +0.000 A 
ATOM     13  C   UNL     1      -3.985   6.019  -0.490  0.00  0.00    +0.000 A 
ATOM     14  C   UNL     1      -3.359   7.262  -0.430  0.00  0.00    +0.000 A 
ATOM     15  C   UNL     1      -2.002   7.353  -0.122  0.00  0.00    +0.000 A 
ATOM     16  C   UNL     1      -1.264   6.193   0.134  0.00  0.00    +0.000 A 
ATOM     17 CL   UNL     1      -4.261   8.692  -0.744  0.00  0.00    +0.000 Cl
ENDBRANCH   2  11
TORSDOF 2
