REMARK  Name = *****
REMARK  6 active torsions:
REMARK  status: ('A' for Active; 'I' for Inactive)
REMARK    1  A    between atoms: C_1  and  C_2
REMARK    2  A    between atoms: C_2  and  N_17
REMARK    3  A    between atoms: C_6  and  C_7
REMARK    4  A    between atoms: C_6  and  O_8
REMARK    5  A    between atoms: O_8  and  C_9
REMARK    6  A    between atoms: C_9  and  C_11
REMARK                            x       y       z     vdW  Elec       q    Type
REMARK                         _______ _______ _______ _____ _____    ______ ____
ROOT
ATOM      1  C   UNL     1       3.287   0.173  -1.495  0.00  0.00    +0.000 C 
ATOM      2  C   UNL     1       2.632  -0.025  -0.112  0.00  0.00    +0.000 C 
ATOM      3  C   UNL     1       3.148  -1.328   0.527  0.00  0.00    +0.000 C 
ATOM      4  C   UNL     1       4.416  -0.942   1.288  0.00  0.00    +0.000 C 
ATOM      5  C   UNL     1       4.450   0.584   1.340  0.00  0.00    +0.000 C 
ATOM      6  C   UNL     1       3.039   1.061   0.941  0.00  0.00    +0.000 C 
ATOM      7  C   UNL     1       2.108   1.108   2.170  0.00  0.00    +0.000 C 
ENDROOT
BRANCH   2   8
ATOM      8  N   UNL     1       1.138  -0.145  -0.304  0.00  0.00    +0.000 NA
ATOM      9  O   UNL     1       0.626   0.893  -0.741  0.00  0.00    +0.000 OA
ENDBRANCH   2   8
BRANCH   6  10
ATOM     10  O   UNL     1       3.061   2.358   0.294  0.00  0.00    +0.000 OA
BRANCH  10  11
ATOM     11  C   UNL     1       3.604   3.426   0.922  0.00  0.00    +0.000 C 
ATOM     12  O   UNL     1       4.156   3.422   2.010  0.00  0.00    +0.000 OA
BRANCH  11  13
ATOM     13  C   UNL     1       3.457   4.645   0.081  0.00  0.00    +0.000 A 
ATOM     14  C   UNL     1       4.079   5.825   0.512  0.00  0.00    +0.000 A 
ATOM     15  C   UNL     1       3.969   6.995  -0.242  0.00  0.00    +0.000 A 
ATOM     16  C   UNL     1       3.237   6.993  -1.429  0.00  0.00    +0.000 A 
ATOM     17  C   UNL     1       2.612   5.825  -1.863  0.00  0.00    +0.000 A 
ATOM     18  C   UNL     1       2.719   4.652  -1.111  0.00  0.00    +0.000 A 
ENDBRANCH  11  13
ENDBRANCH  10  11
ENDBRANCH   6  10
TORSDOF 4
