REMARK  Name = *****
REMARK  3 active torsions:
REMARK  status: ('A' for Active; 'I' for Inactive)
REMARK    1  A    between atoms: C_4  and  C_7
REMARK    2  A    between atoms: C_8  and  C_9
REMARK    3  A    between atoms: C_9  and  C_10
REMARK                            x       y       z     vdW  Elec       q    Type
REMARK                         _______ _______ _______ _____ _____    ______ ____
ROOT
ATOM      1  C   UNL     1      -2.732   0.445  -0.435  0.00  0.00    +0.000 C 
ATOM      2  C   UNL     1      -3.688  -0.492  -0.333  0.00  0.00    +0.000 C 
ENDROOT
BRANCH   1   6
ATOM      3  C   UNL     1       1.429  -0.152   0.351  0.00  0.00    +0.000 A 
ATOM      4  C   UNL     1       0.695  -1.163  -0.267  0.00  0.00    +0.000 A 
ATOM      5  C   UNL     1      -0.667  -0.983  -0.522  0.00  0.00    +0.000 A 
ATOM      6  C   UNL     1      -1.311   0.205  -0.152  0.00  0.00    +0.000 A 
ATOM      7  C   UNL     1      -0.558   1.220   0.453  0.00  0.00    +0.000 A 
ATOM      8  C   UNL     1       0.804   1.040   0.709  0.00  0.00    +0.000 A 
ENDBRANCH   1   6
BRANCH   2   9
ATOM      9  C   UNL     1      -5.140  -0.239  -0.624  0.00  0.00    +0.000 C 
BRANCH   9  10
ATOM     10  C   UNL     1      -5.665  -1.129  -1.727  0.00  0.00    +0.000 A 
ATOM     11  C   UNL     1      -6.453  -2.251  -1.426  0.00  0.00    +0.000 A 
ATOM     12  C   UNL     1      -6.925  -3.076  -2.448  0.00  0.00    +0.000 A 
ATOM     13  C   UNL     1      -6.606  -2.784  -3.769  0.00  0.00    +0.000 A 
ATOM     14  C   UNL     1      -5.821  -1.682  -4.088  0.00  0.00    +0.000 A 
ATOM     15  C   UNL     1      -5.349  -0.855  -3.068  0.00  0.00    +0.000 A 
ATOM     16  F   UNL     1      -7.058  -3.578  -4.748  0.00  0.00    +0.000 F 
ENDBRANCH   9  10
ENDBRANCH   2   9
TORSDOF 3
