REMARK  Name = *****
REMARK  4 active torsions:
REMARK  status: ('A' for Active; 'I' for Inactive)
REMARK    1  A    between atoms: C_6  and  C_8
REMARK    2  A    between atoms: C_8  and  O_10
REMARK    3  A    between atoms: O_10  and  C_11
REMARK    4  A    between atoms: C_11  and  C_12
REMARK                            x       y       z     vdW  Elec       q    Type
REMARK                         _______ _______ _______ _____ _____    ______ ____
ROOT
ATOM      1  C   UNL     1       2.569  -1.463   0.183  0.00  0.00    +0.000 C 
ATOM      2  O   UNL     1       2.559  -2.250   1.118  0.00  0.00    +0.000 OA
ENDROOT
BRANCH   1   8
ATOM      3  C   UNL     1      -1.172  -0.827  -0.562  0.00  0.00    +0.000 C 
ATOM      4  C   UNL     1      -1.140   0.707  -0.616  0.00  0.00    +0.000 C 
ATOM      5  C   UNL     1       0.064   1.059   0.273  0.00  0.00    +0.000 C 
ATOM      6  C   UNL     1      -0.008  -0.023   1.346  0.00  0.00    +0.000 C 
ATOM      7  C   UNL     1       0.037  -1.166   0.329  0.00  0.00    +0.000 C 
ATOM      8  C   UNL     1       1.332  -0.862  -0.463  0.00  0.00    +0.000 C 
ATOM      9  C   UNL     1       1.362   0.682  -0.464  0.00  0.00    +0.000 C 
ENDBRANCH   1   8
BRANCH   1  10
ATOM     10  O   UNL     1       3.683  -1.020  -0.462  0.00  0.00    +0.000 OA
BRANCH  10  11
ATOM     11  C   UNL     1       4.937  -1.504   0.035  0.00  0.00    +0.000 C 
BRANCH  11  12
ATOM     12  C   UNL     1       5.530  -2.479  -0.948  0.00  0.00    +0.000 A 
ATOM     13  C   UNL     1       5.927  -2.049  -2.223  0.00  0.00    +0.000 A 
ATOM     14  C   UNL     1       6.494  -2.946  -3.129  0.00  0.00    +0.000 A 
ATOM     15  C   UNL     1       6.668  -4.282  -2.771  0.00  0.00    +0.000 A 
ATOM     16  C   UNL     1       6.268  -4.723  -1.511  0.00  0.00    +0.000 A 
ATOM     17  C   UNL     1       5.698  -3.827  -0.604  0.00  0.00    +0.000 A 
ENDBRANCH  11  12
ENDBRANCH  10  11
ENDBRANCH   1  10
TORSDOF 4
