REMARK  Name = *****
REMARK  3 active torsions:
REMARK  status: ('A' for Active; 'I' for Inactive)
REMARK    1  A    between atoms: N_6  and  C_7
REMARK    2  A    between atoms: C_7  and  C_9
REMARK    3  A    between atoms: C_9  and  C_10
REMARK                            x       y       z     vdW  Elec       q    Type
REMARK                         _______ _______ _______ _____ _____    ______ ____
ROOT
ATOM      1  C   UNL     1       2.975  -0.175  -0.524  0.00  0.00    +0.000 C 
ATOM      2  S   UNL     1       3.817  -1.491   0.129  0.00  0.00    +0.000 S 
ENDROOT
BRANCH   1   8
ATOM      3  C   UNL     1       0.686  -1.044   0.106  0.00  0.00    +0.000 C 
ATOM      4  C   UNL     1       0.263  -0.629   1.517  0.00  0.00    +0.000 C 
ATOM      5  S   UNL     1      -0.667   0.948   1.511  0.00  0.00    +0.000 S 
ATOM      6  C   UNL     1       0.481   1.944   0.496  0.00  0.00    +0.000 C 
ATOM      7  C   UNL     1       0.887   1.227  -0.795  0.00  0.00    +0.000 C 
ATOM      8  N   UNL     1       1.580  -0.042  -0.512  0.00  0.00    +0.000 N 
ENDBRANCH   1   8
BRANCH   1   9
ATOM      9  C   UNL     1       3.819   0.941  -1.161  0.00  0.00    +0.000 C 
BRANCH   9  10
ATOM     10  C   UNL     1       3.689   1.075  -2.668  0.00  0.00    +0.000 A 
ATOM     11  C   UNL     1       3.510  -0.036  -3.505  0.00  0.00    +0.000 A 
ATOM     12  C   UNL     1       3.427   0.124  -4.891  0.00  0.00    +0.000 A 
ATOM     13  C   UNL     1       3.541   1.392  -5.452  0.00  0.00    +0.000 A 
ATOM     14  C   UNL     1       3.744   2.504  -4.640  0.00  0.00    +0.000 A 
ATOM     15  C   UNL     1       3.825   2.345  -3.254  0.00  0.00    +0.000 A 
ATOM     16 CL   UNL     1       3.440   1.587  -7.159  0.00  0.00    +0.000 Cl
ENDBRANCH   9  10
ENDBRANCH   1   9
TORSDOF 3
