REMARK  Name = *****
REMARK  3 active torsions:
REMARK  status: ('A' for Active; 'I' for Inactive)
REMARK    1  A    between atoms: C_4  and  C_7
REMARK    2  A    between atoms: C_8  and  C_9
REMARK    3  A    between atoms: C_10  and  C_16
REMARK                            x       y       z     vdW  Elec       q    Type
REMARK                         _______ _______ _______ _____ _____    ______ ____
ROOT
ATOM      1  C   UNL     1       5.542   0.323  -0.620  0.00  0.00    +0.000 A 
ATOM      2  C   UNL     1       6.225   1.548  -0.700  0.00  0.00    +0.000 A 
ATOM      3  C   UNL     1       7.620   1.567  -0.863  0.00  0.00    +0.000 A 
ATOM      4  C   UNL     1       8.331   0.369  -0.946  0.00  0.00    +0.000 A 
ATOM      5  C   UNL     1       7.647  -0.837  -0.866  0.00  0.00    +0.000 A 
ATOM      6  C   UNL     1       6.266  -0.872  -0.705  0.00  0.00    +0.000 A 
ATOM      7  F   UNL     1       8.329  -1.987  -0.946  0.00  0.00    +0.000 F 
ENDROOT
BRANCH   1   9
ATOM      8  C   UNL     1       2.929   0.168  -0.322  0.00  0.00    +0.000 C 
ATOM      9  C   UNL     1       4.121   0.241  -0.457  0.00  0.00    +0.000 C 
BRANCH   8  13
ATOM     10  C   UNL     1      -1.262  -0.080   0.140  0.00  0.00    +0.000 A 
ATOM     11  C   UNL     1      -0.641   1.167   0.063  0.00  0.00    +0.000 A 
ATOM     12  C   UNL     1       0.744   1.250  -0.089  0.00  0.00    +0.000 A 
ATOM     13  C   UNL     1       1.510   0.084  -0.164  0.00  0.00    +0.000 A 
ATOM     14  C   UNL     1       0.887  -1.164  -0.086  0.00  0.00    +0.000 A 
ATOM     15  C   UNL     1      -0.499  -1.245   0.066  0.00  0.00    +0.000 A 
ENDBRANCH   8  13
ENDBRANCH   1   9
BRANCH   2  16
ATOM     16  C   UNL     1       5.510   2.843  -0.616  0.00  0.00    +0.000 C 
ATOM     17  O   UNL     1       6.103   3.913  -0.688  0.00  0.00    +0.000 OA
ENDBRANCH   2  16
TORSDOF 3
