REMARK  Name = *****
REMARK  4 active torsions:
REMARK  status: ('A' for Active; 'I' for Inactive)
REMARK    1  A    between atoms: C_1  and  C_2
REMARK    2  A    between atoms: C_5  and  N_8
REMARK    3  A    between atoms: C_9  and  C_10
REMARK    4  A    between atoms: C_9  and  C_11
REMARK                            x       y       z     vdW  Elec       q    Type
REMARK                         _______ _______ _______ _____ _____    ______ ____
ROOT
ATOM      1  N   UNL     1      -3.230   0.108   0.202  0.00  0.00    +0.000 NA
ATOM      2  C   UNL     1      -3.900   1.150  -0.207  0.00  0.00    +0.000 C 
ATOM      3  C   UNL     1      -3.248   2.404  -0.759  0.00  0.00    +0.000 C 
ENDROOT
BRANCH   1   8
ATOM      4  C   UNL     1       2.479  -0.007   0.029  0.00  0.00    +0.000 C 
ATOM      5  C   UNL     1       0.981   0.054   0.059  0.00  0.00    +0.000 A 
ATOM      6  C   UNL     1       0.316   0.610   1.159  0.00  0.00    +0.000 A 
ATOM      7  C   UNL     1      -1.080   0.633   1.203  0.00  0.00    +0.000 A 
ATOM      8  C   UNL     1      -1.831   0.107   0.150  0.00  0.00    +0.000 A 
ATOM      9  C   UNL     1      -1.170  -0.482  -0.929  0.00  0.00    +0.000 A 
ATOM     10  C   UNL     1       0.226  -0.507  -0.978  0.00  0.00    +0.000 A 
ENDBRANCH   1   8
BRANCH   2  11
ATOM     11  C   UNL     1      -5.380   1.100  -0.099  0.00  0.00    +0.000 C 
ATOM     12  C   UNL     1      -6.282   2.064  -0.350  0.00  0.00    +0.000 C 
ATOM     13  C   UNL     1      -7.609   1.556  -0.093  0.00  0.00    +0.000 C 
ATOM     14  C   UNL     1      -7.527   0.284   0.319  0.00  0.00    +0.000 C 
ATOM     15  C   UNL     1      -6.087  -0.146   0.363  0.00  0.00    +0.000 C 
ENDBRANCH   2  11
TORSDOF 2
