REMARK  Name = *****
REMARK  3 active torsions:
REMARK  status: ('A' for Active; 'I' for Inactive)
REMARK    1  A    between atoms: C_1  and  C_9
REMARK    2  A    between atoms: C_2  and  C_3
REMARK    3  A    between atoms: C_14  and  C_15
REMARK                            x       y       z     vdW  Elec       q    Type
REMARK                         _______ _______ _______ _____ _____    ______ ____
ROOT
ATOM      1  C   UNL     1       2.018   0.121  -0.151  0.00  0.00    +0.000 C 
ATOM      2  C   UNL     1       2.525  -1.115  -0.297  0.00  0.00    +0.000 C 
ENDROOT
BRANCH   2   3
ATOM      3  C   UNL     1       1.836  -2.264  -0.915  0.00  0.00    +0.000 A 
ATOM      4  C   UNL     1       0.454  -2.302  -1.147  0.00  0.00    +0.000 A 
ATOM      5  C   UNL     1      -0.145  -3.426  -1.725  0.00  0.00    +0.000 A 
ATOM      6  C   UNL     1       0.627  -4.532  -2.070  0.00  0.00    +0.000 A 
ATOM      7  C   UNL     1       1.999  -4.516  -1.835  0.00  0.00    +0.000 A 
ATOM      8  C   UNL     1       2.597  -3.391  -1.260  0.00  0.00    +0.000 A 
ENDBRANCH   2   3
BRANCH   1   9
ATOM      9  C   UNL     1       2.766   1.235   0.464  0.00  0.00    +0.000 A 
ATOM     10  C   UNL     1       4.078   1.508   0.040  0.00  0.00    +0.000 A 
ATOM     11  C   UNL     1       4.796   2.582   0.571  0.00  0.00    +0.000 A 
ATOM     12  C   UNL     1       4.211   3.406   1.526  0.00  0.00    +0.000 A 
ATOM     13  C   UNL     1       2.905   3.158   1.950  0.00  0.00    +0.000 A 
ATOM     14  C   UNL     1       2.177   2.082   1.423  0.00  0.00    +0.000 A 
BRANCH  14  15
ATOM     15  C   UNL     1       0.839   1.877   1.903  0.00  0.00    +0.000 C 
ATOM     16  C   UNL     1      -0.278   1.713   2.313  0.00  0.00    +0.000 C 
ENDBRANCH  14  15
ENDBRANCH   1   9
TORSDOF 3
