REMARK  Name = *****
REMARK  4 active torsions:
REMARK  status: ('A' for Active; 'I' for Inactive)
REMARK    1  A    between atoms: C_1  and  C_2
REMARK    2  A    between atoms: C_5  and  C_8
REMARK    3  A    between atoms: C_9  and  C_10
REMARK    4  A    between atoms: C_13  and  C_15
REMARK                            x       y       z     vdW  Elec       q    Type
REMARK                         _______ _______ _______ _____ _____    ______ ____
ROOT
ATOM      1  C   UNL     1       6.675  -0.015  -0.647  0.00  0.00    +0.000 C 
ATOM      2  C   UNL     1       7.856  -0.041  -0.865  0.00  0.00    +0.000 C 
ENDROOT
BRANCH   1   7
ATOM      3  C   UNL     1       1.012  -0.003   0.269  0.00  0.00    +0.000 C 
ATOM      4  C   UNL     1       2.496   0.005   0.053  0.00  0.00    +0.000 A 
ATOM      5  C   UNL     1       3.198   1.209  -0.081  0.00  0.00    +0.000 A 
ATOM      6  C   UNL     1       4.577   1.204  -0.305  0.00  0.00    +0.000 A 
ATOM      7  C   UNL     1       5.266  -0.006  -0.403  0.00  0.00    +0.000 A 
ATOM      8  C   UNL     1       4.573  -1.211  -0.275  0.00  0.00    +0.000 A 
ATOM      9  C   UNL     1       3.194  -1.205  -0.051  0.00  0.00    +0.000 A 
ENDBRANCH   1   7
BRANCH   2  10
ATOM     10  C   UNL     1       9.254  -0.088  -1.139  0.00  0.00    +0.000 A 
ATOM     11  C   UNL     1      10.068   1.013  -1.293  0.00  0.00    +0.000 A 
ATOM     12  C   UNL     1      11.419   0.646  -1.571  0.00  0.00    +0.000 A 
ATOM     13  C   UNL     1      11.585  -0.723  -1.617  0.00  0.00    +0.000 A 
ATOM     14  S   UNL     1      10.120  -1.550  -1.323  0.00  0.00    +0.000 S 
BRANCH  13  15
ATOM     15  C   UNL     1      12.794  -1.470  -1.874  0.00  0.00    +0.000 C 
ATOM     16  O   UNL     1      13.892  -0.964  -2.098  0.00  0.00    +0.000 OA
ENDBRANCH  13  15
ENDBRANCH   2  10
TORSDOF 3
