REMARK  Name = *****
REMARK  5 active torsions:
REMARK  status: ('A' for Active; 'I' for Inactive)
REMARK    1  A    between atoms: C_1  and  C_2
REMARK    2  A    between atoms: C_4  and  C_17
REMARK    3  A    between atoms: C_6  and  C_8
REMARK    4  A    between atoms: C_8  and  S_10
REMARK    5  A    between atoms: S_10  and  C_11
REMARK                            x       y       z     vdW  Elec       q    Type
REMARK                         _______ _______ _______ _____ _____    ______ ____
ROOT
ATOM      1  C   UNL     1      -2.360   1.702   0.179  0.00  0.00    +0.000 C 
ATOM      2  O   UNL     1      -2.156   2.901   0.336  0.00  0.00    +0.000 OA
ENDROOT
BRANCH   1   8
ATOM      3  C   UNL     1       2.558   0.899   0.453  0.00  0.00    +0.000 C 
ATOM      4  C   UNL     1       1.186   0.387   0.126  0.00  0.00    +0.000 A 
ATOM      5  C   UNL     1       0.999  -0.944  -0.263  0.00  0.00    +0.000 A 
ATOM      6  C   UNL     1      -0.281  -1.433  -0.552  0.00  0.00    +0.000 A 
ATOM      7  C   UNL     1      -1.390  -0.586  -0.408  0.00  0.00    +0.000 A 
ATOM      8  C   UNL     1      -1.226   0.745   0.005  0.00  0.00    +0.000 A 
ATOM      9  C   UNL     1       0.069   1.221   0.265  0.00  0.00    +0.000 A 
ATOM     10  C   UNL     1      -0.473  -2.866  -0.953  0.00  0.00    +0.000 C 
ENDBRANCH   1   8
BRANCH   1  11
ATOM     11  S   UNL     1      -4.001   1.080   0.219  0.00  0.00    +0.000 S 
BRANCH  11  12
ATOM     12  C   UNL     1      -4.439   1.471  -1.455  0.00  0.00    +0.000 A 
ATOM     13  C   UNL     1      -4.944   2.725  -1.780  0.00  0.00    +0.000 A 
ATOM     14  C   UNL     1      -5.277   2.987  -3.106  0.00  0.00    +0.000 A 
ATOM     15  C   UNL     1      -5.099   1.992  -4.061  0.00  0.00    +0.000 A 
ATOM     16  C   UNL     1      -4.594   0.771  -3.647  0.00  0.00    +0.000 A 
ATOM     17  N   UNL     1      -4.262   0.488  -2.368  0.00  0.00    +0.000 NA
ENDBRANCH  11  12
ENDBRANCH   1  11
TORSDOF 3
