REMARK  Name = *****
REMARK  3 active torsions:
REMARK  status: ('A' for Active; 'I' for Inactive)
REMARK    1  A    between atoms: C_1  and  C_2
REMARK    2  A    between atoms: C_2  and  C_11
REMARK    3  A    between atoms: N_4  and  C_5
REMARK                            x       y       z     vdW  Elec       q    Type
REMARK                         _______ _______ _______ _____ _____    ______ ____
ROOT
ATOM      1  C   UNL     1       0.448   0.308   0.184  0.00  0.00    +0.000 C 
ATOM      2  C   UNL     1       1.889  -0.055  -0.098  0.00  0.00    +0.000 C 
ATOM      3  C   UNL     1       2.501   0.502  -1.365  0.00  0.00    +0.000 C 
ATOM      4  N   UNL     1       2.102  -0.898  -1.301  0.00  0.00    +0.000 N 
ENDROOT
BRANCH   4   5
ATOM      5  C   UNL     1       3.069  -1.932  -1.364  0.00  0.00    +0.000 A 
ATOM      6  C   UNL     1       2.613  -3.182  -1.816  0.00  0.00    +0.000 A 
ATOM      7  C   UNL     1       3.474  -4.277  -1.930  0.00  0.00    +0.000 A 
ATOM      8  C   UNL     1       4.817  -4.139  -1.596  0.00  0.00    +0.000 A 
ATOM      9  C   UNL     1       5.294  -2.909  -1.152  0.00  0.00    +0.000 A 
ATOM     10  C   UNL     1       4.428  -1.814  -1.041  0.00  0.00    +0.000 A 
ENDBRANCH   4   5
BRANCH   2  11
ATOM     11  C   UNL     1       2.747  -0.202   1.151  0.00  0.00    +0.000 A 
ATOM     12  C   UNL     1       2.743  -1.387   1.908  0.00  0.00    +0.000 A 
ATOM     13  C   UNL     1       3.513  -1.519   3.067  0.00  0.00    +0.000 A 
ATOM     14  C   UNL     1       4.297  -0.457   3.505  0.00  0.00    +0.000 A 
ATOM     15  C   UNL     1       4.308   0.735   2.786  0.00  0.00    +0.000 A 
ATOM     16  C   UNL     1       3.538   0.860   1.627  0.00  0.00    +0.000 A 
ENDBRANCH   2  11
TORSDOF 2
