REMARK  Name = *****
REMARK  3 active torsions:
REMARK  status: ('A' for Active; 'I' for Inactive)
REMARK    1  A    between atoms: C_6  and  C_7
REMARK    2  A    between atoms: C_7  and  N_9
REMARK    3  A    between atoms: N_9  and  C_10
REMARK                            x       y       z     vdW  Elec       q    Type
REMARK                         _______ _______ _______ _____ _____    ______ ____
ROOT
ATOM      1  C   UNL     1      -3.348  -0.389   0.618  0.00  0.00    +0.000 C 
ATOM      2  S   UNL     1      -3.766  -1.906   1.196  0.00  0.00    +0.000 S 
ENDROOT
BRANCH   1   8
ATOM      3  C   UNL     1      -1.220   0.874   0.946  0.00  0.00    +0.000 A 
ATOM      4  C   UNL     1       0.099   1.158   0.593  0.00  0.00    +0.000 A 
ATOM      5  C   UNL     1       0.696   0.460  -0.453  0.00  0.00    +0.000 A 
ATOM      6  C   UNL     1       0.001  -0.520  -1.155  0.00  0.00    +0.000 A 
ATOM      7  C   UNL     1      -1.319  -0.812  -0.808  0.00  0.00    +0.000 A 
ATOM      8  C   UNL     1      -1.927  -0.116   0.247  0.00  0.00    +0.000 A 
ATOM      9  F   UNL     1       1.962   0.738  -0.791  0.00  0.00    +0.000 F 
ENDBRANCH   1   8
BRANCH   1  10
ATOM     10  N   UNL     1      -4.156   0.716   0.374  0.00  0.00    +0.000 N 
ATOM     11  H   UNL     1      -3.690   1.451  -0.086  0.00  0.00    +0.000 HD
BRANCH  10  12
ATOM     12  C   UNL     1      -5.514   0.992   0.654  0.00  0.00    +0.000 A 
ATOM     13  C   UNL     1      -6.340   0.242   1.491  0.00  0.00    +0.000 A 
ATOM     14  C   UNL     1      -7.672   0.620   1.711  0.00  0.00    +0.000 A 
ATOM     15  C   UNL     1      -8.185   1.759   1.100  0.00  0.00    +0.000 A 
ATOM     16  C   UNL     1      -7.374   2.530   0.276  0.00  0.00    +0.000 A 
ATOM     17  C   UNL     1      -6.045   2.149   0.060  0.00  0.00    +0.000 A 
ATOM     18 CL   UNL     1      -9.818   2.221   1.373  0.00  0.00    +0.000 Cl
ENDBRANCH  10  12
ENDBRANCH   1  10
TORSDOF 3
