REMARK  Name = *****
REMARK  4 active torsions:
REMARK  status: ('A' for Active; 'I' for Inactive)
REMARK    1  A    between atoms: C_1  and  C_2
REMARK    2  A    between atoms: C_5  and  S_8
REMARK    3  A    between atoms: S_8  and  S_9
REMARK    4  A    between atoms: S_9  and  C_12
REMARK                            x       y       z     vdW  Elec       q    Type
REMARK                         _______ _______ _______ _____ _____    ______ ____
ROOT
ATOM      1  S   UNL     1      -4.219   2.074  -0.059  0.00  0.00    +0.000 S 
ATOM      2  O   UNL     1      -3.722   2.626   1.186  0.00  0.00    +0.000 OA
ATOM      3  O   UNL     1      -3.905   2.688  -1.335  0.00  0.00    +0.000 OA
ENDROOT
BRANCH   1   4
ATOM      4  C   UNL     1      -5.991   1.982   0.066  0.00  0.00    +0.000 A 
ATOM      5  C   UNL     1      -6.596   1.969   1.327  0.00  0.00    +0.000 A 
ATOM      6  C   UNL     1      -7.986   1.914   1.419  0.00  0.00    +0.000 A 
ATOM      7  C   UNL     1      -8.763   1.882   0.259  0.00  0.00    +0.000 A 
ATOM      8  C   UNL     1      -8.155   1.911  -0.997  0.00  0.00    +0.000 A 
ATOM      9  C   UNL     1      -6.765   1.966  -1.099  0.00  0.00    +0.000 A 
ENDBRANCH   1   4
BRANCH   1  10
ATOM     10  S   UNL     1      -3.664   0.057  -0.151  0.00  0.00    +0.000 S 
BRANCH  10  15
ATOM     11  C   UNL     1       2.416   0.438  -0.153  0.00  0.00    +0.000 C 
ATOM     12  C   UNL     1       0.920   0.318  -0.165  0.00  0.00    +0.000 A 
ATOM     13  C   UNL     1       0.235  -0.154   0.960  0.00  0.00    +0.000 A 
ATOM     14  C   UNL     1      -1.160  -0.231   0.959  0.00  0.00    +0.000 A 
ATOM     15  C   UNL     1      -1.890   0.180  -0.160  0.00  0.00    +0.000 A 
ATOM     16  C   UNL     1      -1.208   0.656  -1.283  0.00  0.00    +0.000 A 
ATOM     17  C   UNL     1       0.187   0.734  -1.282  0.00  0.00    +0.000 A 
ENDBRANCH  10  15
ENDBRANCH   1  10
TORSDOF 3
