REMARK  Name = *****
REMARK  2 active torsions:
REMARK  status: ('A' for Active; 'I' for Inactive)
REMARK    1  A    between atoms: C_4  and  C_7
REMARK    2  A    between atoms: C_8  and  C_9
REMARK                            x       y       z     vdW  Elec       q    Type
REMARK                         _______ _______ _______ _____ _____    ______ ____
ROOT
ATOM      1  C   UNL     1       6.150  -0.085  -0.849  0.00  0.00    +0.000 C 
ATOM      2  C   UNL     1       7.039  -1.076  -0.667  0.00  0.00    +0.000 C 
ENDROOT
BRANCH   1   6
ATOM      3  C   UNL     1       2.019  -0.237   0.251  0.00  0.00    +0.000 A 
ATOM      4  C   UNL     1       2.631  -1.373  -0.274  0.00  0.00    +0.000 A 
ATOM      5  C   UNL     1       3.982  -1.340  -0.630  0.00  0.00    +0.000 A 
ATOM      6  C   UNL     1       4.737  -0.172  -0.456  0.00  0.00    +0.000 A 
ATOM      7  C   UNL     1       4.105   0.968   0.057  0.00  0.00    +0.000 A 
ATOM      8  C   UNL     1       2.755   0.934   0.415  0.00  0.00    +0.000 A 
ENDBRANCH   1   6
BRANCH   2   9
ATOM      9  C   UNL     1       8.453  -0.993  -1.059  0.00  0.00    +0.000 A 
ATOM     10  C   UNL     1       9.204   0.181  -0.913  0.00  0.00    +0.000 A 
ATOM     11  C   UNL     1      10.555   0.210  -1.269  0.00  0.00    +0.000 A 
ATOM     12  C   UNL     1      11.172  -0.937  -1.764  0.00  0.00    +0.000 A 
ATOM     13  C   UNL     1      10.441  -2.115  -1.898  0.00  0.00    +0.000 A 
ATOM     14  C   UNL     1       9.090  -2.144  -1.542  0.00  0.00    +0.000 A 
ENDBRANCH   2   9
TORSDOF 2
