REMARK  Name = *****
REMARK  3 active torsions:
REMARK  status: ('A' for Active; 'I' for Inactive)
REMARK    1  A    between atoms: C_5  and  S_6
REMARK    2  A    between atoms: S_6  and  S_7
REMARK    3  A    between atoms: S_7  and  C_8
REMARK                            x       y       z     vdW  Elec       q    Type
REMARK                         _______ _______ _______ _____ _____    ______ ____
ROOT
ATOM      1  S   UNL     1      -2.908  -1.093   0.011  0.00  0.00    +0.000 S 
ENDROOT
BRANCH   1   6
ATOM      2  C   UNL     1      -0.027  -1.360   0.008  0.00  0.00    +0.000 C 
ATOM      3  C   UNL     1       1.044  -0.304   0.001  0.00  0.00    +0.000 C 
ATOM      4  C   UNL     1       0.480   0.913  -0.004  0.00  0.00    +0.000 C 
ATOM      5  C   UNL     1      -0.956   0.771  -0.001  0.00  0.00    +0.000 C 
ATOM      6  C   UNL     1      -1.287  -0.531   0.006  0.00  0.00    +0.000 C 
ENDBRANCH   1   6
BRANCH   1   7
ATOM      7  S   UNL     1      -2.685  -3.133   0.026  0.00  0.00    +0.000 S 
BRANCH   7   8
ATOM      8  C   UNL     1      -4.306  -3.695   0.030  0.00  0.00    +0.000 C 
ATOM      9  C   UNL     1      -4.637  -4.999   0.041  0.00  0.00    +0.000 C 
ATOM     10  C   UNL     1      -6.073  -5.139   0.042  0.00  0.00    +0.000 C 
ATOM     11  C   UNL     1      -6.636  -3.924   0.032  0.00  0.00    +0.000 C 
ATOM     12  C   UNL     1      -5.566  -2.867   0.023  0.00  0.00    +0.000 C 
ENDBRANCH   7   8
ENDBRANCH   1   7
TORSDOF 3
