REMARK  Name = *****
REMARK  3 active torsions:
REMARK  status: ('A' for Active; 'I' for Inactive)
REMARK    1  A    between atoms: N_4  and  C_7
REMARK    2  A    between atoms: C_7  and  S_9
REMARK    3  A    between atoms: S_9  and  C_10
REMARK                            x       y       z     vdW  Elec       q    Type
REMARK                         _______ _______ _______ _____ _____    ______ ____
ROOT
ATOM      1  C   UNL     1       2.827   0.103   0.856  0.00  0.00    +0.000 C 
ATOM      2  S   UNL     1       3.681   1.556   0.849  0.00  0.00    +0.000 S 
ENDROOT
BRANCH   1   6
ATOM      3  C   UNL     1      -1.385  -0.429   0.108  0.00  0.00    +0.000 C 
ATOM      4  C   UNL     1      -0.814   0.862   0.682  0.00  0.00    +0.000 C 
ATOM      5  C   UNL     1       0.618   1.107   0.210  0.00  0.00    +0.000 C 
ATOM      6  N   UNL     1       1.484  -0.055   0.470  0.00  0.00    +0.000 N 
ATOM      7  C   UNL     1       0.958  -1.314  -0.086  0.00  0.00    +0.000 C 
ATOM      8  C   UNL     1      -0.457  -1.600   0.406  0.00  0.00    +0.000 C 
ENDBRANCH   1   6
BRANCH   1   9
ATOM      9  S   UNL     1       3.676  -1.344   1.427  0.00  0.00    +0.000 S 
BRANCH   9  10
ATOM     10  C   UNL     1       2.735  -1.768   2.884  0.00  0.00    +0.000 A 
ATOM     11  C   UNL     1       2.319  -3.095   3.056  0.00  0.00    +0.000 A 
ATOM     12  C   UNL     1       1.580  -3.465   4.183  0.00  0.00    +0.000 A 
ATOM     13  C   UNL     1       1.264  -2.510   5.147  0.00  0.00    +0.000 A 
ATOM     14  C   UNL     1       1.686  -1.192   4.996  0.00  0.00    +0.000 A 
ATOM     15  C   UNL     1       2.426  -0.823   3.869  0.00  0.00    +0.000 A 
ATOM     16 CL   UNL     1       0.351  -2.964   6.533  0.00  0.00    +0.000 Cl
ENDBRANCH   9  10
ENDBRANCH   1   9
TORSDOF 3
