REMARK  Name = *****
REMARK  3 active torsions:
REMARK  status: ('A' for Active; 'I' for Inactive)
REMARK    1  A    between atoms: C_1  and  C_2
REMARK    2  A    between atoms: C_4  and  C_7
REMARK    3  A    between atoms: C_8  and  C_9
REMARK                            x       y       z     vdW  Elec       q    Type
REMARK                         _______ _______ _______ _____ _____    ______ ____
ROOT
ATOM      1  C   UNL     1       5.745   1.586  -0.084  0.00  0.00    +0.000 C 
ATOM      2  C   UNL     1       6.655   2.371  -0.105  0.00  0.00    +0.000 C 
ENDROOT
BRANCH   2   3
ATOM      3  C   UNL     1       7.732   3.311  -0.128  0.00  0.00    +0.000 A 
ATOM      4  C   UNL     1       7.464   4.680  -0.059  0.00  0.00    +0.000 A 
ATOM      5  C   UNL     1       8.520   5.590  -0.083  0.00  0.00    +0.000 A 
ATOM      6  C   UNL     1       9.838   5.145  -0.175  0.00  0.00    +0.000 A 
ATOM      7  C   UNL     1      10.105   3.778  -0.245  0.00  0.00    +0.000 A 
ATOM      8  C   UNL     1       9.052   2.861  -0.221  0.00  0.00    +0.000 A 
ATOM      9 CL   UNL     1       8.195   7.278   0.003  0.00  0.00    +0.000 Cl
ENDBRANCH   2   3
BRANCH   1  13
ATOM     10  C   UNL     1       1.048   0.283  -0.051  0.00  0.00    +0.000 C 
ATOM     11  C   UNL     1       2.529   0.138  -0.047  0.00  0.00    +0.000 A 
ATOM     12  N   UNL     1       3.376   1.146  -0.072  0.00  0.00    +0.000 NA
ATOM     13  C   UNL     1       4.664   0.659  -0.061  0.00  0.00    +0.000 A 
ATOM     14  C   UNL     1       4.796  -0.710  -0.026  0.00  0.00    +0.000 A 
ATOM     15  S   UNL     1       3.240  -1.430  -0.008  0.00  0.00    +0.000 S 
ENDBRANCH   1  13
TORSDOF 2
