REMARK  Name = *****
REMARK  5 active torsions:
REMARK  status: ('A' for Active; 'I' for Inactive)
REMARK    1  A    between atoms: C_3  and  O_16
REMARK    2  A    between atoms: C_6  and  C_7
REMARK    3  A    between atoms: C_8  and  C_9
REMARK    4  A    between atoms: C_11  and  C_14
REMARK    5  A    between atoms: O_16  and  C_17
REMARK                            x       y       z     vdW  Elec       q    Type
REMARK                         _______ _______ _______ _____ _____    ______ ____
ROOT
ATOM      1  C   UNL     1       1.446  -0.290  -0.046  0.00  0.00    +0.000 A 
ATOM      2  C   UNL     1       0.527  -1.341   0.074  0.00  0.00    +0.000 A 
ATOM      3  C   UNL     1      -0.838  -1.071   0.166  0.00  0.00    +0.000 A 
ATOM      4  C   UNL     1      -1.275   0.253   0.106  0.00  0.00    +0.000 A 
ATOM      5  C   UNL     1      -0.358   1.302  -0.013  0.00  0.00    +0.000 A 
ATOM      6  C   UNL     1       1.015   1.042  -0.072  0.00  0.00    +0.000 A 
ENDROOT
BRANCH   6   7
ATOM      7  C   UNL     1       1.944   2.170  -0.224  0.00  0.00    +0.000 C 
ATOM      8  C   UNL     1       3.164   2.220   0.335  0.00  0.00    +0.000 C 
BRANCH   8   9
ATOM      9  C   UNL     1       4.010   3.351   0.162  0.00  0.00    +0.000 A 
ATOM     10  N   UNL     1       3.740   4.459  -0.519  0.00  0.00    +0.000 NA
ATOM     11  C   UNL     1       4.863   5.252  -0.406  0.00  0.00    +0.000 A 
ATOM     12  C   UNL     1       5.790   4.599   0.367  0.00  0.00    +0.000 A 
ATOM     13  O   UNL     1       5.270   3.400   0.732  0.00  0.00    +0.000 OA
BRANCH  11  14
ATOM     14  C   UNL     1       4.931   6.591  -1.033  0.00  0.00    +0.000 C 
ATOM     15 CL   UNL     1       6.254   6.645  -2.219  0.00  0.00    +0.000 Cl
ENDBRANCH  11  14
ENDBRANCH   8   9
ENDBRANCH   6   7
BRANCH   3  16
ATOM     16  O   UNL     1      -1.834  -2.000   0.281  0.00  0.00    +0.000 OA
BRANCH  16  17
ATOM     17  C   UNL     1      -1.442  -3.283   0.738  0.00  0.00    +0.000 C 
ATOM     18  F   UNL     1      -2.575  -3.974   1.024  0.00  0.00    +0.000 F 
ATOM     19  F   UNL     1      -0.828  -3.948  -0.271  0.00  0.00    +0.000 F 
ENDBRANCH  16  17
ENDBRANCH   3  16
TORSDOF 5
