REMARK  Name = *****
REMARK  3 active torsions:
REMARK  status: ('A' for Active; 'I' for Inactive)
REMARK    1  A    between atoms: C_1  and  C_2
REMARK    2  A    between atoms: C_1  and  C_9
REMARK    3  A    between atoms: C_2  and  C_3
REMARK                            x       y       z     vdW  Elec       q    Type
REMARK                         _______ _______ _______ _____ _____    ______ ____
ROOT
ATOM      1  C   UNL     1       2.536  -0.132   0.009  0.00  0.00    +0.000 C 
ATOM      2  F   UNL     1       3.566  -1.028  -0.105  0.00  0.00    +0.000 F 
ENDROOT
BRANCH   1   3
ATOM      3  C   UNL     1       2.649   0.691   1.276  0.00  0.00    +0.000 A 
ATOM      4  C   UNL     1       1.521   1.322   1.821  0.00  0.00    +0.000 A 
ATOM      5  C   UNL     1       1.632   2.092   2.980  0.00  0.00    +0.000 A 
ATOM      6  C   UNL     1       2.869   2.240   3.604  0.00  0.00    +0.000 A 
ATOM      7  C   UNL     1       3.996   1.617   3.072  0.00  0.00    +0.000 A 
ATOM      8  C   UNL     1       3.888   0.847   1.913  0.00  0.00    +0.000 A 
ENDBRANCH   1   3
BRANCH   1   9
ATOM      9  C   UNL     1       2.544   0.767  -1.236  0.00  0.00    +0.000 C 
BRANCH   9  10
ATOM     10  C   UNL     1       2.087   0.035  -2.478  0.00  0.00    +0.000 A 
ATOM     11  C   UNL     1       0.804   0.250  -3.000  0.00  0.00    +0.000 A 
ATOM     12  C   UNL     1       0.382  -0.436  -4.141  0.00  0.00    +0.000 A 
ATOM     13  C   UNL     1       1.234  -1.343  -4.767  0.00  0.00    +0.000 A 
ATOM     14  C   UNL     1       2.510  -1.566  -4.253  0.00  0.00    +0.000 A 
ATOM     15  C   UNL     1       2.935  -0.882  -3.114  0.00  0.00    +0.000 A 
ENDBRANCH   9  10
ENDBRANCH   1   9
TORSDOF 3
