REMARK  Name = *****
REMARK  6 active torsions:
REMARK  status: ('A' for Active; 'I' for Inactive)
REMARK    1  A    between atoms: C_1  and  C_2
REMARK    2  A    between atoms: C_4  and  C_10
REMARK    3  A    between atoms: C_5  and  O_8
REMARK    4  A    between atoms: O_8  and  C_9
REMARK    5  A    between atoms: C_10  and  C_11
REMARK    6  A    between atoms: C_11  and  C_12
REMARK                            x       y       z     vdW  Elec       q    Type
REMARK                         _______ _______ _______ _____ _____    ______ ____
ROOT
ATOM      1  C   UNL     1       2.034  -0.644  -1.078  0.00  0.00    +0.000 C 
ATOM      2  C   UNL     1       0.634  -0.308  -0.656  0.00  0.00    +0.000 A 
ATOM      3  C   UNL     1       0.237   1.033  -0.524  0.00  0.00    +0.000 A 
ATOM      4  C   UNL     1      -1.054   1.375  -0.088  0.00  0.00    +0.000 A 
ATOM      5  C   UNL     1      -1.955   0.329   0.173  0.00  0.00    +0.000 A 
ATOM      6  C   UNL     1      -1.560  -1.007   0.085  0.00  0.00    +0.000 A 
ATOM      7  C   UNL     1      -0.267  -1.325  -0.327  0.00  0.00    +0.000 A 
ENDROOT
BRANCH   5   8
ATOM      8  O   UNL     1      -3.227   0.623   0.595  0.00  0.00    +0.000 OA
ATOM      9  C   UNL     1      -4.171   0.361  -0.444  0.00  0.00    +0.000 C 
ENDBRANCH   5   8
BRANCH   4  10
ATOM     10  C   UNL     1      -1.513   2.815   0.037  0.00  0.00    +0.000 C 
BRANCH  10  11
ATOM     11  C   UNL     1      -0.416   3.852   0.313  0.00  0.00    +0.000 C 
BRANCH  11  12
ATOM     12  C   UNL     1      -0.994   5.227   0.553  0.00  0.00    +0.000 A 
ATOM     13  C   UNL     1      -1.302   5.650   1.852  0.00  0.00    +0.000 A 
ATOM     14  C   UNL     1      -1.854   6.913   2.072  0.00  0.00    +0.000 A 
ATOM     15  C   UNL     1      -2.107   7.761   0.996  0.00  0.00    +0.000 A 
ATOM     16  C   UNL     1      -1.810   7.347  -0.302  0.00  0.00    +0.000 A 
ATOM     17  C   UNL     1      -1.258   6.084  -0.523  0.00  0.00    +0.000 A 
ENDBRANCH  11  12
ENDBRANCH  10  11
ENDBRANCH   4  10
TORSDOF 4
