REMARK  Name = *****
REMARK  3 active torsions:
REMARK  status: ('A' for Active; 'I' for Inactive)
REMARK    1  A    between atoms: C_4  and  C_8
REMARK    2  A    between atoms: C_9  and  C_10
REMARK    3  A    between atoms: C_12  and  C_15
REMARK                            x       y       z     vdW  Elec       q    Type
REMARK                         _______ _______ _______ _____ _____    ______ ____
ROOT
ATOM      1  C   UNL     1       0.139   2.470   0.133  0.00  0.00    +0.000 C 
ATOM      2  C   UNL     1       1.229   3.241  -0.006  0.00  0.00    +0.000 C 
ENDROOT
BRANCH   1   6
ATOM      3  C   UNL     1      -0.040  -1.829   0.014  0.00  0.00    +0.000 A 
ATOM      4  C   UNL     1      -0.963  -1.090   0.749  0.00  0.00    +0.000 A 
ATOM      5  C   UNL     1      -0.877   0.303   0.774  0.00  0.00    +0.000 A 
ATOM      6  C   UNL     1       0.127   0.997   0.085  0.00  0.00    +0.000 A 
ATOM      7  C   UNL     1       1.032   0.230  -0.660  0.00  0.00    +0.000 A 
ATOM      8  C   UNL     1       0.958  -1.164  -0.695  0.00  0.00    +0.000 A 
ATOM      9  F   UNL     1       1.999   0.818  -1.381  0.00  0.00    +0.000 F 
ATOM     10  F   UNL     1      -1.790   0.977   1.492  0.00  0.00    +0.000 F 
ENDBRANCH   1   6
BRANCH   2  11
ATOM     11  C   UNL     1       1.146   4.660   0.067  0.00  0.00    +0.000 A 
ATOM     12  N   UNL     1       0.054   5.390   0.264  0.00  0.00    +0.000 NA
ATOM     13  C   UNL     1       0.472   6.705   0.246  0.00  0.00    +0.000 A 
ATOM     14  C   UNL     1       1.830   6.734   0.054  0.00  0.00    +0.000 A 
ATOM     15  O   UNL     1       2.271   5.456  -0.062  0.00  0.00    +0.000 OA
BRANCH  13  16
ATOM     16  C   UNL     1      -0.479   7.821   0.450  0.00  0.00    +0.000 C 
ATOM     17 CL   UNL     1      -0.472   8.899  -0.964  0.00  0.00    +0.000 Cl
ENDBRANCH  13  16
ENDBRANCH   2  11
TORSDOF 3
