REMARK  Name = *****
REMARK  4 active torsions:
REMARK  status: ('A' for Active; 'I' for Inactive)
REMARK    1  A    between atoms: C_1  and  C_2
REMARK    2  A    between atoms: C_3  and  C_9
REMARK    3  A    between atoms: C_4  and  C_8
REMARK    4  A    between atoms: N_10  and  C_11
REMARK                            x       y       z     vdW  Elec       q    Type
REMARK                         _______ _______ _______ _____ _____    ______ ____
ROOT
ATOM      1  C   UNL     1       2.692   0.827   0.085  0.00  0.00    +0.000 C 
ATOM      2  C   UNL     1       1.293   0.272   0.037  0.00  0.00    +0.000 A 
ATOM      3  C   UNL     1       0.142   1.074  -0.148  0.00  0.00    +0.000 A 
ATOM      4  C   UNL     1      -1.140   0.470  -0.194  0.00  0.00    +0.000 A 
ATOM      5  C   UNL     1      -1.249  -0.923  -0.055  0.00  0.00    +0.000 A 
ATOM      6  C   UNL     1      -0.118  -1.711   0.135  0.00  0.00    +0.000 A 
ATOM      7  C   UNL     1       1.139  -1.118   0.183  0.00  0.00    +0.000 A 
ATOM      8  C   UNL     1      -2.409   1.260  -0.382  0.00  0.00    +0.000 C 
ENDROOT
BRANCH   3   9
ATOM      9  C   UNL     1       0.225   2.554  -0.310  0.00  0.00    +0.000 C 
ATOM     10  N   UNL     1       1.271   3.257  -0.003  0.00  0.00    +0.000 NA
BRANCH  10  11
ATOM     11  C   UNL     1       1.167   4.638  -0.215  0.00  0.00    +0.000 A 
ATOM     12  C   UNL     1       0.797   5.482   0.835  0.00  0.00    +0.000 A 
ATOM     13  C   UNL     1       0.702   6.861   0.634  0.00  0.00    +0.000 A 
ATOM     14  C   UNL     1       0.988   7.403  -0.619  0.00  0.00    +0.000 A 
ATOM     15  C   UNL     1       1.374   6.568  -1.667  0.00  0.00    +0.000 A 
ATOM     16  C   UNL     1       1.468   5.190  -1.463  0.00  0.00    +0.000 A 
ENDBRANCH  10  11
ENDBRANCH   3   9
TORSDOF 2
