REMARK  Name = *****
REMARK  5 active torsions:
REMARK  status: ('A' for Active; 'I' for Inactive)
REMARK    1  A    between atoms: C_1  and  C_2
REMARK    2  A    between atoms: C_5  and  O_8
REMARK    3  A    between atoms: O_8  and  C_9
REMARK    4  A    between atoms: C_9  and  C_11
REMARK    5  A    between atoms: C_11  and  C_12
REMARK                            x       y       z     vdW  Elec       q    Type
REMARK                         _______ _______ _______ _____ _____    ______ ____
ROOT
ATOM      1  C   UNL     1      -4.028   1.820  -0.001  0.00  0.00    +0.000 C 
ATOM      2  O   UNL     1      -3.369   2.727  -0.495  0.00  0.00    +0.000 OA
ENDROOT
BRANCH   1   3
ATOM      3  O   UNL     1      -3.537   0.683   0.638  0.00  0.00    +0.000 OA
BRANCH   3   8
ATOM      4  C   UNL     1       2.091  -0.026   1.051  0.00  0.00    +0.000 C 
ATOM      5  C   UNL     1       0.612   0.190   0.916  0.00  0.00    +0.000 A 
ATOM      6  C   UNL     1       0.007   1.315   1.494  0.00  0.00    +0.000 A 
ATOM      7  C   UNL     1      -1.373   1.505   1.398  0.00  0.00    +0.000 A 
ATOM      8  C   UNL     1      -2.144   0.570   0.712  0.00  0.00    +0.000 A 
ATOM      9  C   UNL     1      -1.566  -0.571   0.160  0.00  0.00    +0.000 A 
ATOM     10  C   UNL     1      -0.187  -0.759   0.262  0.00  0.00    +0.000 A 
ENDBRANCH   3   8
ENDBRANCH   1   3
BRANCH   1  11
ATOM     11  C   UNL     1      -5.537   1.771  -0.006  0.00  0.00    +0.000 C 
BRANCH  11  12
ATOM     12  C   UNL     1      -6.086   0.865  -1.077  0.00  0.00    +0.000 A 
ATOM     13  C   UNL     1      -6.563  -0.414  -0.756  0.00  0.00    +0.000 A 
ATOM     14  C   UNL     1      -7.056  -1.254  -1.756  0.00  0.00    +0.000 A 
ATOM     15  C   UNL     1      -7.073  -0.828  -3.082  0.00  0.00    +0.000 A 
ATOM     16  C   UNL     1      -6.595   0.439  -3.412  0.00  0.00    +0.000 A 
ATOM     17  C   UNL     1      -6.101   1.281  -2.415  0.00  0.00    +0.000 A 
ENDBRANCH  11  12
ENDBRANCH   1  11
TORSDOF 4
