REMARK  Name = *****
REMARK  3 active torsions:
REMARK  status: ('A' for Active; 'I' for Inactive)
REMARK    1  A    between atoms: C_5  and  S_7
REMARK    2  A    between atoms: S_7  and  C_8
REMARK    3  A    between atoms: C_8  and  C_9
REMARK                            x       y       z     vdW  Elec       q    Type
REMARK                         _______ _______ _______ _____ _____    ______ ____
ROOT
ATOM      1  C   UNL     1      -3.609  -2.574  -0.297  0.00  0.00    +0.000 C 
ENDROOT
BRANCH   1   2
ATOM      2  C   UNL     1      -4.436  -3.830  -0.261  0.00  0.00    +0.000 A 
ATOM      3  C   UNL     1      -5.472  -3.969   0.671  0.00  0.00    +0.000 A 
ATOM      4  C   UNL     1      -6.235  -5.136   0.724  0.00  0.00    +0.000 A 
ATOM      5  C   UNL     1      -5.968  -6.185  -0.155  0.00  0.00    +0.000 A 
ATOM      6  C   UNL     1      -4.935  -6.063  -1.086  0.00  0.00    +0.000 A 
ATOM      7  C   UNL     1      -4.172  -4.894  -1.138  0.00  0.00    +0.000 A 
ATOM      8 CL   UNL     1      -7.512  -5.297   1.868  0.00  0.00    +0.000 Cl
ATOM      9  F   UNL     1      -5.732  -2.958   1.515  0.00  0.00    +0.000 F 
ENDBRANCH   1   2
BRANCH   1  10
ATOM     10  S   UNL     1      -2.041  -2.786   0.612  0.00  0.00    +0.000 S 
BRANCH  10  15
ATOM     11  C   UNL     1      -1.282   1.222   0.539  0.00  0.00    +0.000 A 
ATOM     12  C   UNL     1      -0.091   1.285  -0.181  0.00  0.00    +0.000 A 
ATOM     13  C   UNL     1       0.491   0.110  -0.643  0.00  0.00    +0.000 A 
ATOM     14  C   UNL     1      -0.098  -1.127  -0.406  0.00  0.00    +0.000 A 
ATOM     15  C   UNL     1      -1.300  -1.195   0.302  0.00  0.00    +0.000 A 
ATOM     16  C   UNL     1      -1.883  -0.016   0.783  0.00  0.00    +0.000 A 
ATOM     17  F   UNL     1       1.639   0.171  -1.330  0.00  0.00    +0.000 F 
ENDBRANCH  10  15
ENDBRANCH   1  10
TORSDOF 3
