REMARK  Name = *****
REMARK  2 active torsions:
REMARK  status: ('A' for Active; 'I' for Inactive)
REMARK    1  A    between atoms: C_1  and  C_2
REMARK    2  A    between atoms: C_4  and  C_8
REMARK                            x       y       z     vdW  Elec       q    Type
REMARK                         _______ _______ _______ _____ _____    ______ ____
ROOT
ATOM      1  C   UNL     1      -1.290   3.330   0.494  0.00  0.00    +0.000 C 
ATOM      2  C   UNL     1      -0.339   4.195   0.104  0.00  0.00    +0.000 C 
ATOM      3  C   UNL     1      -0.435   5.650   0.285  0.00  0.00    +0.000 A 
ATOM      4  C   UNL     1       0.723   6.433   0.186  0.00  0.00    +0.000 A 
ATOM      5  C   UNL     1       0.659   7.819   0.343  0.00  0.00    +0.000 A 
ATOM      6  C   UNL     1      -0.565   8.435   0.591  0.00  0.00    +0.000 A 
ATOM      7  C   UNL     1      -1.726   7.667   0.680  0.00  0.00    +0.000 A 
ATOM      8  C   UNL     1      -1.672   6.270   0.538  0.00  0.00    +0.000 A 
ATOM      9  C   UNL     1      -2.947   5.468   0.565  0.00  0.00    +0.000 C 
ATOM     10  S   UNL     1      -2.754   3.814   1.282  0.00  0.00    +0.000 S 
ENDROOT
BRANCH   1  14
ATOM     11  C   UNL     1      -0.313  -1.212   2.385  0.00  0.00    +0.000 C 
ATOM     12  C   UNL     1      -0.636  -0.331   1.215  0.00  0.00    +0.000 A 
ATOM     13  C   UNL     1      -0.826   1.047   1.394  0.00  0.00    +0.000 A 
ATOM     14  C   UNL     1      -1.103   1.883   0.303  0.00  0.00    +0.000 A 
ATOM     15  C   UNL     1      -1.170   1.328  -0.982  0.00  0.00    +0.000 A 
ATOM     16  C   UNL     1      -0.967  -0.040  -1.171  0.00  0.00    +0.000 A 
ATOM     17  C   UNL     1      -0.696  -0.864  -0.078  0.00  0.00    +0.000 A 
ENDBRANCH   1  14
TORSDOF 1
