REMARK  Name = *****
REMARK  4 active torsions:
REMARK  status: ('A' for Active; 'I' for Inactive)
REMARK    1  A    between atoms: C_1  and  C_2
REMARK    2  A    between atoms: C_3  and  C_17
REMARK    3  A    between atoms: C_7  and  C_9
REMARK    4  A    between atoms: C_10  and  C_11
REMARK                            x       y       z     vdW  Elec       q    Type
REMARK                         _______ _______ _______ _____ _____    ______ ____
ROOT
ATOM      1  C   UNL     1       0.898   0.158  -0.027  0.00  0.00    +0.000 C 
ATOM      2  C   UNL     1       2.397   0.036  -0.030  0.00  0.00    +0.000 A 
ATOM      3  C   UNL     1       3.104  -1.112  -0.025  0.00  0.00    +0.000 A 
ATOM      4  C   UNL     1       4.599  -1.065  -0.028  0.00  0.00    +0.000 A 
ATOM      5  O   UNL     1       5.264  -2.097  -0.023  0.00  0.00    +0.000 OA
ATOM      6  O   UNL     1       5.199   0.161  -0.036  0.00  0.00    +0.000 OA
ATOM      7  C   UNL     1       4.432   1.341  -0.042  0.00  0.00    +0.000 A 
ATOM      8  C   UNL     1       3.096   1.303  -0.039  0.00  0.00    +0.000 A 
ATOM      9  C   UNL     1       2.546  -2.506  -0.018  0.00  0.00    +0.000 C 
ENDROOT
BRANCH   7  10
ATOM     10  C   UNL     1       5.188   2.577  -0.054  0.00  0.00    +0.000 C 
ATOM     11  C   UNL     1       6.527   2.660  -0.056  0.00  0.00    +0.000 C 
BRANCH  11  12
ATOM     12  C   UNL     1       7.207   3.955  -0.072  0.00  0.00    +0.000 A 
ATOM     13  C   UNL     1       7.535   4.592   1.128  0.00  0.00    +0.000 A 
ATOM     14  C   UNL     1       8.172   5.835   1.112  0.00  0.00    +0.000 A 
ATOM     15  C   UNL     1       8.482   6.444  -0.104  0.00  0.00    +0.000 A 
ATOM     16  C   UNL     1       8.155   5.813  -1.304  0.00  0.00    +0.000 A 
ATOM     17  C   UNL     1       7.517   4.571  -1.289  0.00  0.00    +0.000 A 
ENDBRANCH  11  12
ENDBRANCH   7  10
TORSDOF 2
