REMARK  Name = *****
REMARK  5 active torsions:
REMARK  status: ('A' for Active; 'I' for Inactive)
REMARK    1  A    between atoms: C_1  and  C_2
REMARK    2  A    between atoms: C_5  and  C_8
REMARK    3  A    between atoms: C_8  and  C_9
REMARK    4  A    between atoms: C_9  and  O_11
REMARK    5  A    between atoms: O_11  and  C_12
REMARK                            x       y       z     vdW  Elec       q    Type
REMARK                         _______ _______ _______ _____ _____    ______ ____
ROOT
ATOM      1  C   UNL     1      -3.644   1.713  -0.077  0.00  0.00    +0.000 C 
ATOM      2  O   UNL     1      -4.014   2.502   0.785  0.00  0.00    +0.000 OA
ENDROOT
BRANCH   1   3
ATOM      3  C   UNL     1      -3.278   0.274   0.199  0.00  0.00    +0.000 C 
BRANCH   3   8
ATOM      4  C   UNL     1       2.477  -0.553  -0.111  0.00  0.00    +0.000 C 
ATOM      5  C   UNL     1       0.991  -0.375  -0.016  0.00  0.00    +0.000 A 
ATOM      6  C   UNL     1       0.421   0.239   1.104  0.00  0.00    +0.000 A 
ATOM      7  C   UNL     1      -0.960   0.437   1.178  0.00  0.00    +0.000 A 
ATOM      8  C   UNL     1      -1.793   0.030   0.128  0.00  0.00    +0.000 A 
ATOM      9  C   UNL     1      -1.219  -0.566  -1.002  0.00  0.00    +0.000 A 
ATOM     10  C   UNL     1       0.161  -0.763  -1.074  0.00  0.00    +0.000 A 
ENDBRANCH   3   8
ENDBRANCH   1   3
BRANCH   1  11
ATOM     11  O   UNL     1      -3.496   1.969  -1.436  0.00  0.00    +0.000 OA
BRANCH  11  12
ATOM     12  C   UNL     1      -3.728   3.303  -1.771  0.00  0.00    +0.000 A 
ATOM     13  C   UNL     1      -2.647   4.181  -1.822  0.00  0.00    +0.000 A 
ATOM     14  C   UNL     1      -2.865   5.503  -2.207  0.00  0.00    +0.000 A 
ATOM     15  C   UNL     1      -4.151   5.929  -2.548  0.00  0.00    +0.000 A 
ATOM     16  C   UNL     1      -5.223   5.032  -2.511  0.00  0.00    +0.000 A 
ATOM     17  C   UNL     1      -5.012   3.709  -2.127  0.00  0.00    +0.000 A 
ENDBRANCH  11  12
ENDBRANCH   1  11
TORSDOF 4
