REMARK  Name = *****
REMARK  4 active torsions:
REMARK  status: ('A' for Active; 'I' for Inactive)
REMARK    1  A    between atoms: C_1  and  O_2
REMARK    2  A    between atoms: O_2  and  C_3
REMARK    3  A    between atoms: C_6  and  C_8
REMARK    4  A    between atoms: C_9  and  C_10
REMARK                            x       y       z     vdW  Elec       q    Type
REMARK                         _______ _______ _______ _____ _____    ______ ____
ROOT
ATOM      1  C   UNL     1       5.413  -4.161  -1.346  0.00  0.00    +0.000 C 
ATOM      2  C   UNL     1       5.524  -5.028  -2.366  0.00  0.00    +0.000 C 
ENDROOT
BRANCH   2   3
ATOM      3  C   UNL     1       6.505  -6.123  -2.395  0.00  0.00    +0.000 A 
ATOM      4  C   UNL     1       6.786  -6.904  -1.266  0.00  0.00    +0.000 A 
ATOM      5  C   UNL     1       7.702  -7.957  -1.340  0.00  0.00    +0.000 A 
ATOM      6  C   UNL     1       8.336  -8.247  -2.547  0.00  0.00    +0.000 A 
ATOM      7  C   UNL     1       8.052  -7.488  -3.680  0.00  0.00    +0.000 A 
ATOM      8  C   UNL     1       7.136  -6.436  -3.606  0.00  0.00    +0.000 A 
ENDBRANCH   2   3
BRANCH   1  12
ATOM      9  C   UNL     1       3.108  -1.119  -0.602  0.00  0.00    +0.000 A 
ATOM     10  C   UNL     1       2.743  -1.585  -1.849  0.00  0.00    +0.000 A 
ATOM     11  C   UNL     1       3.508  -2.714  -2.268  0.00  0.00    +0.000 A 
ATOM     12  C   UNL     1       4.455  -3.103  -1.338  0.00  0.00    +0.000 A 
ATOM     13  S   UNL     1       4.385  -2.065   0.037  0.00  0.00    +0.000 S 
BRANCH   9  15
ATOM     14  C   UNL     1       1.581   0.657  -0.425  0.00  0.00    +0.000 C 
ATOM     15  O   UNL     1       2.644  -0.101   0.135  0.00  0.00    +0.000 OA
ENDBRANCH   9  15
ENDBRANCH   1  12
TORSDOF 3
