REMARK  Name = *****
REMARK  7 active torsions:
REMARK  status: ('A' for Active; 'I' for Inactive)
REMARK    1  A    between atoms: C_1  and  N_2
REMARK    2  A    between atoms: N_2  and  C_3
REMARK    3  A    between atoms: N_2  and  C_9
REMARK    4  A    between atoms: C_9  and  S_10
REMARK    5  A    between atoms: C_9  and  C_12
REMARK    6  A    between atoms: C_15  and  O_18
REMARK    7  A    between atoms: O_18  and  C_19
REMARK                            x       y       z     vdW  Elec       q    Type
REMARK                         _______ _______ _______ _____ _____    ______ ____
ROOT
ATOM      1  C   UNL     1       3.261  -0.297   1.134  0.00  0.00    +0.000 C 
ENDROOT
BRANCH   1   2
ATOM      2  C   UNL     1       4.750  -0.311   1.148  0.00  0.00    +0.000 A 
ATOM      3  C   UNL     1       5.447   0.851   0.796  0.00  0.00    +0.000 A 
ATOM      4  C   UNL     1       6.846   0.864   0.806  0.00  0.00    +0.000 A 
ATOM      5  C   UNL     1       7.556  -0.280   1.174  0.00  0.00    +0.000 A 
ATOM      6  C   UNL     1       6.855  -1.436   1.534  0.00  0.00    +0.000 A 
ATOM      7  C   UNL     1       5.459  -1.458   1.526  0.00  0.00    +0.000 A 
BRANCH   5   8
ATOM      8  O   UNL     1       8.917  -0.402   1.223  0.00  0.00    +0.000 OA
ATOM      9  C   UNL     1       9.679   0.738   0.844  0.00  0.00    +0.000 C 
ENDBRANCH   5   8
ENDBRANCH   1   2
BRANCH   1  11
ATOM     10  C   UNL     1       1.164   0.532   0.032  0.00  0.00    +0.000 C 
ATOM     11  N   UNL     1       2.581   0.142  -0.026  0.00  0.00    +0.000 N 
BRANCH  11  12
ATOM     12  C   UNL     1       3.152   0.035  -1.338  0.00  0.00    +0.000 A 
ATOM     13  C   UNL     1       2.953   1.047  -2.288  0.00  0.00    +0.000 A 
ATOM     14  C   UNL     1       3.511   0.949  -3.566  0.00  0.00    +0.000 A 
ATOM     15  C   UNL     1       4.269  -0.166  -3.914  0.00  0.00    +0.000 A 
ATOM     16  C   UNL     1       4.466  -1.184  -2.986  0.00  0.00    +0.000 A 
ATOM     17  C   UNL     1       3.909  -1.085  -1.708  0.00  0.00    +0.000 A 
ENDBRANCH  11  12
ENDBRANCH   1  11
BRANCH   1  18
ATOM     18  S   UNL     1       2.526  -0.705   2.560  0.00  0.00    +0.000 S 
ATOM     19  O   UNL     1       1.037  -0.663   2.580  0.00  0.00    +0.000 OA
ENDBRANCH   1  18
TORSDOF 5
