REMARK  Name = *****
REMARK  2 active torsions:
REMARK  status: ('A' for Active; 'I' for Inactive)
REMARK    1  A    between atoms: C_6  and  N_7
REMARK    2  A    between atoms: C_8  and  C_9
REMARK                            x       y       z     vdW  Elec       q    Type
REMARK                         _______ _______ _______ _____ _____    ______ ____
ROOT
ATOM      1  N   UNL     1       3.851   0.274   0.052  0.00  0.00    +0.000 NA
ATOM      2  C   UNL     1       4.426   0.802  -0.983  0.00  0.00    +0.000 C 
ENDROOT
BRANCH   1   8
ATOM      3  C   UNL     1       1.668   1.260   0.449  0.00  0.00    +0.000 A 
ATOM      4  C   UNL     1       0.274   1.175   0.413  0.00  0.00    +0.000 A 
ATOM      5  C   UNL     1      -0.334   0.015  -0.064  0.00  0.00    +0.000 A 
ATOM      6  C   UNL     1       0.440  -1.060  -0.498  0.00  0.00    +0.000 A 
ATOM      7  C   UNL     1       1.834  -0.970  -0.460  0.00  0.00    +0.000 A 
ATOM      8  C   UNL     1       2.455   0.195   0.001  0.00  0.00    +0.000 A 
ATOM      9 CL   UNL     1      -2.050  -0.094  -0.110  0.00  0.00    +0.000 Cl
ENDBRANCH   1   8
BRANCH   2  10
ATOM     10  C   UNL     1       5.860   0.933  -1.034  0.00  0.00    +0.000 A 
ATOM     11  C   UNL     1       6.803   0.555  -0.095  0.00  0.00    +0.000 A 
ATOM     12  C   UNL     1       8.134   0.855  -0.515  0.00  0.00    +0.000 A 
ATOM     13  C   UNL     1       8.137   1.446  -1.752  0.00  0.00    +0.000 A 
ATOM     14  S   UNL     1       6.590   1.644  -2.410  0.00  0.00    +0.000 S 
ATOM     15 CL   UNL     1       9.513   1.971  -2.634  0.00  0.00    +0.000 Cl
ENDBRANCH   2  10
TORSDOF 2
