REMARK  Name = *****
REMARK  4 active torsions:
REMARK  status: ('A' for Active; 'I' for Inactive)
REMARK    1  A    between atoms: C_1  and  C_2
REMARK    2  A    between atoms: C_2  and  C_3
REMARK    3  A    between atoms: C_2  and  C_10
REMARK    4  A    between atoms: C_3  and  C_4
REMARK                            x       y       z     vdW  Elec       q    Type
REMARK                         _______ _______ _______ _____ _____    ______ ____
ROOT
ATOM      1  C   UNL     1       0.799   0.067   0.536  0.00  0.00    +0.000 C 
ATOM      2  C   UNL     1       2.300  -0.016   0.234  0.00  0.00    +0.000 C 
ENDROOT
BRANCH   2   3
ATOM      3  C   UNL     1       2.920  -1.190   0.967  0.00  0.00    +0.000 A 
ATOM      4  C   UNL     1       2.936  -1.455   2.324  0.00  0.00    +0.000 A 
ATOM      5  C   UNL     1       3.626  -2.662   2.635  0.00  0.00    +0.000 A 
ATOM      6  C   UNL     1       4.116  -3.280   1.507  0.00  0.00    +0.000 A 
ATOM      7  S   UNL     1       3.747  -2.408   0.085  0.00  0.00    +0.000 S 
ENDBRANCH   2   3
BRANCH   2   8
ATOM      8  C   UNL     1       3.043   1.288   0.602  0.00  0.00    +0.000 C 
BRANCH   8   9
ATOM      9  C   UNL     1       2.655   2.472  -0.253  0.00  0.00    +0.000 A 
ATOM     10  C   UNL     1       1.850   3.494   0.267  0.00  0.00    +0.000 A 
ATOM     11  C   UNL     1       1.487   4.582  -0.527  0.00  0.00    +0.000 A 
ATOM     12  C   UNL     1       1.926   4.660  -1.848  0.00  0.00    +0.000 A 
ATOM     13  C   UNL     1       2.728   3.650  -2.375  0.00  0.00    +0.000 A 
ATOM     14  C   UNL     1       3.093   2.561  -1.582  0.00  0.00    +0.000 A 
ENDBRANCH   8   9
ENDBRANCH   2   8
TORSDOF 3
