REMARK  Name = *****
REMARK  4 active torsions:
REMARK  status: ('A' for Active; 'I' for Inactive)
REMARK    1  A    between atoms: C_4  and  C_7
REMARK    2  A    between atoms: C_7  and  C_8
REMARK    3  A    between atoms: C_8  and  C_9
REMARK    4  A    between atoms: C_12  and  C_15
REMARK                            x       y       z     vdW  Elec       q    Type
REMARK                         _______ _______ _______ _____ _____    ______ ____
ROOT
ATOM      1  C   UNL     1      -3.451   1.340   0.848  0.00  0.00    +0.000 C 
ATOM      2  F   UNL     1      -4.710   1.612   0.376  0.00  0.00    +0.000 F 
ATOM      3  F   UNL     1      -3.663   0.601   1.987  0.00  0.00    +0.000 F 
ENDROOT
BRANCH   1   4
ATOM      4  C   UNL     1      -2.722   2.640   1.176  0.00  0.00    +0.000 A 
ATOM      5  C   UNL     1      -2.519   3.626   0.197  0.00  0.00    +0.000 A 
ATOM      6  C   UNL     1      -1.862   4.820   0.511  0.00  0.00    +0.000 A 
ATOM      7  C   UNL     1      -1.411   5.053   1.814  0.00  0.00    +0.000 A 
ATOM      8  C   UNL     1      -1.620   4.086   2.800  0.00  0.00    +0.000 A 
ATOM      9  C   UNL     1      -2.269   2.889   2.483  0.00  0.00    +0.000 A 
BRANCH   7  10
ATOM     10  C   UNL     1      -0.745   6.281   2.138  0.00  0.00    +0.000 C 
ATOM     11  N   UNL     1      -0.207   7.275   2.401  0.00  0.00    +0.000 NA
ENDBRANCH   7  10
ENDBRANCH   1   4
BRANCH   1  12
ATOM     12  C   UNL     1      -2.689   0.453  -0.190  0.00  0.00    +0.000 C 
ATOM     13  F   UNL     1      -1.394   0.286   0.235  0.00  0.00    +0.000 F 
ATOM     14  F   UNL     1      -2.575   1.134  -1.375  0.00  0.00    +0.000 F 
BRANCH  12  18
ATOM     15  C   UNL     1      -4.641  -3.363  -0.792  0.00  0.00    +0.000 A 
ATOM     16  C   UNL     1      -5.164  -2.214  -1.380  0.00  0.00    +0.000 A 
ATOM     17  C   UNL     1      -4.533  -0.983  -1.193  0.00  0.00    +0.000 A 
ATOM     18  C   UNL     1      -3.372  -0.889  -0.409  0.00  0.00    +0.000 A 
ATOM     19  C   UNL     1      -2.854  -2.056   0.174  0.00  0.00    +0.000 A 
ATOM     20  C   UNL     1      -3.485  -3.286  -0.018  0.00  0.00    +0.000 A 
ENDBRANCH  12  18
ENDBRANCH   1  12
TORSDOF 4
