REMARK  Name = *****
REMARK  3 active torsions:
REMARK  status: ('A' for Active; 'I' for Inactive)
REMARK    1  A    between atoms: C_4  and  C_7
REMARK    2  A    between atoms: C_8  and  C_9
REMARK    3  A    between atoms: C_11  and  C_15
REMARK                            x       y       z     vdW  Elec       q    Type
REMARK                         _______ _______ _______ _____ _____    ______ ____
ROOT
ATOM      1  C   UNL     1      -2.796   0.441  -0.282  0.00  0.00    +0.000 C 
ATOM      2  C   UNL     1      -3.713  -0.528  -0.439  0.00  0.00    +0.000 C 
ENDROOT
BRANCH   1   6
ATOM      3  C   UNL     1       1.399  -0.198   0.259  0.00  0.00    +0.000 A 
ATOM      4  C   UNL     1       0.689  -1.015  -0.618  0.00  0.00    +0.000 A 
ATOM      5  C   UNL     1      -0.683  -0.822  -0.799  0.00  0.00    +0.000 A 
ATOM      6  C   UNL     1      -1.361   0.183  -0.096  0.00  0.00    +0.000 A 
ATOM      7  C   UNL     1      -0.632   1.008   0.771  0.00  0.00    +0.000 A 
ATOM      8  C   UNL     1       0.740   0.815   0.952  0.00  0.00    +0.000 A 
ENDBRANCH   1   6
BRANCH   2   9
ATOM      9  C   UNL     1      -5.150  -0.272  -0.607  0.00  0.00    +0.000 A 
ATOM     10  C   UNL     1      -5.632   0.777  -1.402  0.00  0.00    +0.000 A 
ATOM     11  C   UNL     1      -7.010   0.961  -1.558  0.00  0.00    +0.000 A 
ATOM     12  C   UNL     1      -7.917   0.101  -0.935  0.00  0.00    +0.000 A 
ATOM     13  C   UNL     1      -7.444  -0.953  -0.157  0.00  0.00    +0.000 A 
ATOM     14  C   UNL     1      -6.068  -1.141   0.000  0.00  0.00    +0.000 A 
BRANCH  11  15
ATOM     15  C   UNL     1      -7.499   2.075  -2.395  0.00  0.00    +0.000 C 
ATOM     16  O   UNL     1      -8.693   2.285  -2.567  0.00  0.00    +0.000 OA
ENDBRANCH  11  15
ENDBRANCH   2   9
TORSDOF 3
