REMARK  Name = *****
REMARK  4 active torsions:
REMARK  status: ('A' for Active; 'I' for Inactive)
REMARK    1  A    between atoms: C_4  and  C_7
REMARK    2  A    between atoms: C_7  and  C_8
REMARK    3  A    between atoms: C_8  and  C_9
REMARK    4  A    between atoms: C_14  and  C_15
REMARK                            x       y       z     vdW  Elec       q    Type
REMARK                         _______ _______ _______ _____ _____    ______ ____
ROOT
ATOM      1  C   UNL     1      -3.351   1.181   1.024  0.00  0.00    +0.000 C 
ATOM      2  F   UNL     1      -4.713   1.357   0.955  0.00  0.00    +0.000 F 
ATOM      3  F   UNL     1      -3.179   0.331   2.082  0.00  0.00    +0.000 F 
ENDROOT
BRANCH   1   4
ATOM      4  C   UNL     1      -2.651   2.514   1.269  0.00  0.00    +0.000 A 
ATOM      5  C   UNL     1      -3.267   3.699   0.818  0.00  0.00    +0.000 A 
ATOM      6  C   UNL     1      -2.663   4.941   1.011  0.00  0.00    +0.000 A 
ATOM      7  C   UNL     1      -1.434   5.024   1.657  0.00  0.00    +0.000 A 
ATOM      8  C   UNL     1      -0.807   3.863   2.111  0.00  0.00    +0.000 A 
ATOM      9  C   UNL     1      -1.405   2.607   1.922  0.00  0.00    +0.000 A 
BRANCH   9  10
ATOM     10  C   UNL     1      -0.704   1.450   2.408  0.00  0.00    +0.000 C 
ATOM     11  N   UNL     1      -0.130   0.517   2.793  0.00  0.00    +0.000 NA
ENDBRANCH   9  10
ENDBRANCH   1   4
BRANCH   1  12
ATOM     12  C   UNL     1      -2.867   0.502  -0.297  0.00  0.00    +0.000 C 
ATOM     13  F   UNL     1      -1.501   0.391  -0.276  0.00  0.00    +0.000 F 
ATOM     14  F   UNL     1      -3.120   1.351  -1.346  0.00  0.00    +0.000 F 
BRANCH  12  18
ATOM     15  C   UNL     1      -4.733  -3.351  -0.900  0.00  0.00    +0.000 A 
ATOM     16  C   UNL     1      -5.313  -2.205  -1.442  0.00  0.00    +0.000 A 
ATOM     17  C   UNL     1      -4.711  -0.961  -1.252  0.00  0.00    +0.000 A 
ATOM     18  C   UNL     1      -3.520  -0.851  -0.517  0.00  0.00    +0.000 A 
ATOM     19  C   UNL     1      -2.945  -2.013   0.022  0.00  0.00    +0.000 A 
ATOM     20  C   UNL     1      -3.550  -3.256  -0.170  0.00  0.00    +0.000 A 
ENDBRANCH  12  18
ENDBRANCH   1  12
TORSDOF 4
