REMARK  Name = *****
REMARK  5 active torsions:
REMARK  status: ('A' for Active; 'I' for Inactive)
REMARK    1  A    between atoms: C_1  and  O_2
REMARK    2  A    between atoms: O_2  and  C_3
REMARK    3  A    between atoms: C_3  and  C_5
REMARK    4  A    between atoms: C_6  and  C_13
REMARK    5  A    between atoms: C_14  and  C_15
REMARK                            x       y       z     vdW  Elec       q    Type
REMARK                         _______ _______ _______ _____ _____    ______ ____
ROOT
ATOM      1  C   UNL     1       4.766   0.615   0.838  0.00  0.00    +0.000 A 
ATOM      2  C   UNL     1       5.510   0.868  -0.330  0.00  0.00    +0.000 A 
ATOM      3  N   UNL     1       6.880   1.174  -0.214  0.00  0.00    +0.000 N 
ATOM      4  C   UNL     1       7.482   1.155   1.057  0.00  0.00    +0.000 A 
ATOM      5  C   UNL     1       6.739   0.847   2.201  0.00  0.00    +0.000 A 
ATOM      6  C   UNL     1       5.382   0.581   2.092  0.00  0.00    +0.000 A 
ATOM      7 CL   UNL     1       9.167   1.506   1.265  0.00  0.00    +0.000 Cl
ATOM      8  O   UNL     1       7.572   1.463  -1.255  0.00  0.00    +0.000 OA
ENDROOT
BRANCH   1   9
ATOM      9  C   UNL     1       3.312   0.386   0.815  0.00  0.00    +0.000 C 
ATOM     10  O   UNL     1       2.780  -0.589   1.317  0.00  0.00    +0.000 OA
BRANCH   9  12
ATOM     11  C   UNL     1       1.286   1.353   0.186  0.00  0.00    +0.000 C 
ATOM     12  O   UNL     1       2.708   1.458   0.254  0.00  0.00    +0.000 OA
ENDBRANCH   9  12
ENDBRANCH   1   9
BRANCH   2  13
ATOM     13  C   UNL     1       4.947   0.853  -1.696  0.00  0.00    +0.000 C 
ATOM     14  C   UNL     1       4.209  -0.155  -2.189  0.00  0.00    +0.000 C 
BRANCH  14  15
ATOM     15  C   UNL     1       3.669  -0.173  -3.557  0.00  0.00    +0.000 A 
ATOM     16  C   UNL     1       4.387   0.323  -4.653  0.00  0.00    +0.000 A 
ATOM     17  C   UNL     1       3.849   0.261  -5.941  0.00  0.00    +0.000 A 
ATOM     18  C   UNL     1       2.594  -0.308  -6.148  0.00  0.00    +0.000 A 
ATOM     19  C   UNL     1       1.878  -0.821  -5.068  0.00  0.00    +0.000 A 
ATOM     20  C   UNL     1       2.416  -0.759  -3.780  0.00  0.00    +0.000 A 
ENDBRANCH  14  15
ENDBRANCH   2  13
TORSDOF 4
