REMARK  Name = *****
REMARK  4 active torsions:
REMARK  status: ('A' for Active; 'I' for Inactive)
REMARK    1  A    between atoms: C_4  and  C_7
REMARK    2  A    between atoms: C_7  and  O_8
REMARK    3  A    between atoms: O_8  and  C_9
REMARK    4  A    between atoms: C_9  and  C_11
REMARK                            x       y       z     vdW  Elec       q    Type
REMARK                         _______ _______ _______ _____ _____    ______ ____
ROOT
ATOM      1  C   UNL     1       4.116   0.060  -1.913  0.00  0.00    +0.000 C 
ATOM      2  O   UNL     1       4.597   1.031  -1.353  0.00  0.00    +0.000 OA
ENDROOT
BRANCH   1   3
ATOM      3  C   UNL     1       4.337  -0.242  -3.354  0.00  0.00    +0.000 A 
ATOM      4  C   UNL     1       3.725  -1.327  -3.995  0.00  0.00    +0.000 A 
ATOM      5  C   UNL     1       3.972  -1.554  -5.346  0.00  0.00    +0.000 A 
ATOM      6  C   UNL     1       4.817  -0.715  -6.064  0.00  0.00    +0.000 A 
ATOM      7  C   UNL     1       5.429   0.366  -5.441  0.00  0.00    +0.000 A 
ATOM      8  C   UNL     1       5.189   0.604  -4.085  0.00  0.00    +0.000 A 
ATOM      9  F   UNL     1       5.048  -0.942  -7.364  0.00  0.00    +0.000 F 
ATOM     10  F   UNL     1       3.383  -2.594  -5.952  0.00  0.00    +0.000 F 
ENDBRANCH   1   3
BRANCH   1  11
ATOM     11  O   UNL     1       3.322  -0.883  -1.353  0.00  0.00    +0.000 OA
BRANCH  11  12
ATOM     12  C   UNL     1       3.012  -0.727   0.041  0.00  0.00    +0.000 C 
BRANCH  12  16
ATOM     13  C   UNL     1      -1.194   0.316  -0.705  0.00  0.00    +0.000 C 
ATOM     14  C   UNL     1      -0.869  -1.065  -0.145  0.00  0.00    +0.000 C 
ATOM     15  C   UNL     1       0.601  -1.426  -0.354  0.00  0.00    +0.000 C 
ATOM     16  C   UNL     1       1.534  -0.358   0.240  0.00  0.00    +0.000 C 
ATOM     17  C   UNL     1       1.205   1.021  -0.352  0.00  0.00    +0.000 C 
ATOM     18  C   UNL     1      -0.263   1.385  -0.140  0.00  0.00    +0.000 C 
ENDBRANCH  12  16
ENDBRANCH  11  12
ENDBRANCH   1  11
TORSDOF 4
