REMARK  Name = *****
REMARK  2 active torsions:
REMARK  status: ('A' for Active; 'I' for Inactive)
REMARK    1  A    between atoms: N_3  and  C_10
REMARK    2  A    between atoms: C_10  and  C_11
REMARK                            x       y       z     vdW  Elec       q    Type
REMARK                         _______ _______ _______ _____ _____    ______ ____
ROOT
ATOM      1  C   UNL     1       0.731   1.347   0.624  0.00  0.00    +0.000 C 
ATOM      2  C   UNL     1       2.013   0.719   0.053  0.00  0.00    +0.000 C 
ATOM      3  N   UNL     1       1.950  -0.799   0.038  0.00  0.00    +0.000 NA
ATOM      4  C   UNL     1       0.828  -1.405  -0.192  0.00  0.00    +0.000 C 
ATOM      5  C   UNL     1      -0.429  -0.699  -0.287  0.00  0.00    +0.000 A 
ATOM      6  C   UNL     1      -0.463   0.626   0.088  0.00  0.00    +0.000 A 
ATOM      7  S   UNL     1      -1.998   1.322  -0.073  0.00  0.00    +0.000 S 
ATOM      8  C   UNL     1      -2.655  -0.158  -0.639  0.00  0.00    +0.000 A 
ATOM      9  C   UNL     1      -1.709  -1.163  -0.699  0.00  0.00    +0.000 A 
ENDROOT
BRANCH   3  10
ATOM     10  C   UNL     1       3.232  -1.557   0.173  0.00  0.00    +0.000 C 
BRANCH  10  11
ATOM     11  C   UNL     1       3.825  -1.465   1.557  0.00  0.00    +0.000 A 
ATOM     12  C   UNL     1       4.970  -0.672   1.760  0.00  0.00    +0.000 A 
ATOM     13  C   UNL     1       5.543  -0.554   3.028  0.00  0.00    +0.000 A 
ATOM     14  C   UNL     1       4.987  -1.228   4.112  0.00  0.00    +0.000 A 
ATOM     15  C   UNL     1       3.860  -2.026   3.930  0.00  0.00    +0.000 A 
ATOM     16  C   UNL     1       3.285  -2.148   2.663  0.00  0.00    +0.000 A 
ATOM     17 CL   UNL     1       1.895  -3.161   2.510  0.00  0.00    +0.000 Cl
ENDBRANCH  10  11
ENDBRANCH   3  10
TORSDOF 2
