REMARK  Name = *****
REMARK  3 active torsions:
REMARK  status: ('A' for Active; 'I' for Inactive)
REMARK    1  A    between atoms: C_4  and  C_7
REMARK    2  A    between atoms: C_8  and  C_9
REMARK    3  A    between atoms: C_9  and  C_11
REMARK                            x       y       z     vdW  Elec       q    Type
REMARK                         _______ _______ _______ _____ _____    ______ ____
ROOT
ATOM      1  C   UNL     1      -3.276  -1.987  -0.824  0.00  0.00    +0.000 C 
ATOM      2  O   UNL     1      -2.289  -2.146  -1.531  0.00  0.00    +0.000 OA
ENDROOT
BRANCH   1   3
ATOM      3  C   UNL     1      -4.203  -3.127  -0.574  0.00  0.00    +0.000 A 
ATOM      4  C   UNL     1      -4.163  -4.219  -1.455  0.00  0.00    +0.000 A 
ATOM      5  C   UNL     1      -5.008  -5.314  -1.262  0.00  0.00    +0.000 A 
ATOM      6  C   UNL     1      -5.884  -5.319  -0.183  0.00  0.00    +0.000 A 
ATOM      7  C   UNL     1      -5.927  -4.253   0.710  0.00  0.00    +0.000 A 
ATOM      8  C   UNL     1      -5.082  -3.156   0.520  0.00  0.00    +0.000 A 
ATOM      9  F   UNL     1      -6.695  -6.368   0.004  0.00  0.00    +0.000 F 
ENDBRANCH   1   3
BRANCH   1  11
ATOM     10  C   UNL     1      -2.802   0.286   0.156  0.00  0.00    +0.000 C 
ATOM     11  C   UNL     1      -3.656  -0.658  -0.267  0.00  0.00    +0.000 C 
BRANCH  10  15
ATOM     12  C   UNL     1       1.451   0.062   0.348  0.00  0.00    +0.000 A 
ATOM     13  C   UNL     1       0.824   0.302  -0.874  0.00  0.00    +0.000 A 
ATOM     14  C   UNL     1      -0.569   0.367  -0.944  0.00  0.00    +0.000 A 
ATOM     15  C   UNL     1      -1.342   0.190   0.208  0.00  0.00    +0.000 A 
ATOM     16  C   UNL     1      -0.707  -0.048   1.432  0.00  0.00    +0.000 A 
ATOM     17  C   UNL     1       0.686  -0.113   1.500  0.00  0.00    +0.000 A 
ENDBRANCH  10  15
ENDBRANCH   1  11
TORSDOF 3
