REMARK  Name = *****
REMARK  3 active torsions:
REMARK  status: ('A' for Active; 'I' for Inactive)
REMARK    1  A    between atoms: C_1  and  C_2
REMARK    2  A    between atoms: C_5  and  C_8
REMARK    3  A    between atoms: C_8  and  C_10
REMARK                            x       y       z     vdW  Elec       q    Type
REMARK                         _______ _______ _______ _____ _____    ______ ____
ROOT
ATOM      1  C   UNL     1      -3.326  -0.170   0.332  0.00  0.00    +0.000 C 
ATOM      2  O   UNL     1      -3.906  -1.165  -0.087  0.00  0.00    +0.000 OA
ENDROOT
BRANCH   1   7
ATOM      3  C   UNL     1       2.459   0.057  -0.075  0.00  0.00    +0.000 C 
ATOM      4  C   UNL     1       0.961   0.022   0.005  0.00  0.00    +0.000 A 
ATOM      5  C   UNL     1       0.228   1.196   0.218  0.00  0.00    +0.000 A 
ATOM      6  C   UNL     1      -1.166   1.156   0.320  0.00  0.00    +0.000 A 
ATOM      7  C   UNL     1      -1.843  -0.067   0.228  0.00  0.00    +0.000 A 
ATOM      8  C   UNL     1      -1.111  -1.241   0.011  0.00  0.00    +0.000 A 
ATOM      9  C   UNL     1       0.281  -1.197  -0.090  0.00  0.00    +0.000 A 
ENDBRANCH   1   7
BRANCH   1  10
ATOM     10  C   UNL     1      -4.036   0.915   1.059  0.00  0.00    +0.000 C 
ATOM     11  C   UNL     1      -5.242   1.407   0.744  0.00  0.00    +0.000 C 
ATOM     12  S   UNL     1      -6.194   0.942  -0.634  0.00  0.00    +0.000 S 
ATOM     13  C   UNL     1      -7.722   1.744  -0.071  0.00  0.00    +0.000 C 
ATOM     14  C   UNL     1      -7.327   3.035   0.624  0.00  0.00    +0.000 C 
ATOM     15  S   UNL     1      -5.938   2.666   1.742  0.00  0.00    +0.000 S 
ENDBRANCH   1  10
TORSDOF 2
