REMARK  Name = *****
REMARK  5 active torsions:
REMARK  status: ('A' for Active; 'I' for Inactive)
REMARK    1  A    between atoms: C_1  and  C_2
REMARK    2  A    between atoms: C_5  and  C_8
REMARK    3  A    between atoms: C_9  and  C_10
REMARK    4  A    between atoms: C_15  and  O_16
REMARK    5  A    between atoms: O_16  and  C_17
REMARK                            x       y       z     vdW  Elec       q    Type
REMARK                         _______ _______ _______ _____ _____    ______ ____
ROOT
ATOM      1  C   UNL     1      -3.110   0.125  -0.342  0.00  0.00    +0.000 C 
ATOM      2  C   UNL     1      -3.892   1.148   0.039  0.00  0.00    +0.000 C 
ENDROOT
BRANCH   1   7
ATOM      3  C   UNL     1       2.676  -0.057  -0.075  0.00  0.00    +0.000 C 
ATOM      4  C   UNL     1       1.181   0.025  -0.156  0.00  0.00    +0.000 A 
ATOM      5  C   UNL     1       0.460   0.769   0.783  0.00  0.00    +0.000 A 
ATOM      6  C   UNL     1      -0.937   0.820   0.729  0.00  0.00    +0.000 A 
ATOM      7  C   UNL     1      -1.640   0.129  -0.265  0.00  0.00    +0.000 A 
ATOM      8  C   UNL     1      -0.915  -0.640  -1.184  0.00  0.00    +0.000 A 
ATOM      9  C   UNL     1       0.481  -0.692  -1.131  0.00  0.00    +0.000 A 
ENDBRANCH   1   7
BRANCH   2  10
ATOM     10  C   UNL     1      -5.362   1.115  -0.031  0.00  0.00    +0.000 A 
ATOM     11  C   UNL     1      -6.020   0.666  -1.186  0.00  0.00    +0.000 A 
ATOM     12  C   UNL     1      -7.416   0.685  -1.266  0.00  0.00    +0.000 A 
ATOM     13  C   UNL     1      -8.173   1.169  -0.200  0.00  0.00    +0.000 A 
ATOM     14  C   UNL     1      -7.536   1.631   0.950  0.00  0.00    +0.000 A 
ATOM     15  C   UNL     1      -6.141   1.589   1.037  0.00  0.00    +0.000 A 
BRANCH  15  16
ATOM     16  O   UNL     1      -5.549   2.082   2.175  0.00  0.00    +0.000 OA
ATOM     17  C   UNL     1      -5.448   1.048   3.155  0.00  0.00    +0.000 C 
ENDBRANCH  15  16
ENDBRANCH   2  10
TORSDOF 3
