REMARK  Name = *****
REMARK  2 active torsions:
REMARK  status: ('A' for Active; 'I' for Inactive)
REMARK    1  A    between atoms: C_4  and  O_7
REMARK    2  A    between atoms: O_7  and  P_8
REMARK                            x       y       z     vdW  Elec       q    Type
REMARK                         _______ _______ _______ _____ _____    ______ ____
ROOT
ATOM      1  P   UNL     1      -3.649  -1.598  -0.843  0.00  0.00    +0.000 P 
ATOM      2  N   UNL     1      -4.731  -2.222   0.268  0.00  0.00    +0.000 N 
ATOM      3  C   UNL     1      -6.030  -2.184  -0.265  0.00  0.00    +0.000 A 
ATOM      4  C   UNL     1      -7.195  -2.637   0.323  0.00  0.00    +0.000 A 
ATOM      5  C   UNL     1      -8.402  -2.426  -0.355  0.00  0.00    +0.000 A 
ATOM      6  C   UNL     1      -8.428  -1.751  -1.590  0.00  0.00    +0.000 A 
ATOM      7  C   UNL     1      -7.249  -1.272  -2.164  0.00  0.00    +0.000 A 
ATOM      8  C   UNL     1      -6.073  -1.496  -1.478  0.00  0.00    +0.000 A 
ATOM      9  O   UNL     1      -4.822  -1.100  -1.891  0.00  0.00    +0.000 OA
ATOM     10  H   UNL     1      -4.494  -2.565   1.160  0.00  0.00    +0.000 HD
ENDROOT
BRANCH   1  11
ATOM     11  O   UNL     1      -3.379  -0.179  -0.104  0.00  0.00    +0.000 OA
BRANCH  11  15
ATOM     12  C   UNL     1      -0.164   2.272  -1.066  0.00  0.00    +0.000 A 
ATOM     13  C   UNL     1      -1.179   2.077  -2.003  0.00  0.00    +0.000 A 
ATOM     14  C   UNL     1      -2.263   1.253  -1.698  0.00  0.00    +0.000 A 
ATOM     15  C   UNL     1      -2.318   0.613  -0.458  0.00  0.00    +0.000 A 
ATOM     16  C   UNL     1      -1.317   0.827   0.490  0.00  0.00    +0.000 A 
ATOM     17  C   UNL     1      -0.234   1.651   0.182  0.00  0.00    +0.000 A 
ENDBRANCH  11  15
ENDBRANCH   1  11
TORSDOF 2
