REMARK  Name = *****
REMARK  1 active torsions:
REMARK  status: ('A' for Active; 'I' for Inactive)
REMARK    1  A    between atoms: C_5  and  C_7
REMARK                            x       y       z     vdW  Elec       q    Type
REMARK                         _______ _______ _______ _____ _____    ______ ____
ROOT
ATOM      1  C   UNL     1      -0.357  -2.414  -0.400  0.00  0.00    +0.000 C 
ATOM      2  O   UNL     1       0.419  -3.339  -0.638  0.00  0.00    +0.000 OA
ATOM      3  N   UNL     1      -1.727  -2.697  -0.291  0.00  0.00    +0.000 N 
ATOM      4  C   UNL     1      -2.409  -3.879  -0.518  0.00  0.00    +0.000 A 
ATOM      5  C   UNL     1      -2.026  -5.155  -0.952  0.00  0.00    +0.000 A 
ATOM      6  C   UNL     1      -3.037  -6.116  -1.070  0.00  0.00    +0.000 A 
ATOM      7  C   UNL     1      -4.366  -5.811  -0.769  0.00  0.00    +0.000 A 
ATOM      8  C   UNL     1      -4.727  -4.529  -0.336  0.00  0.00    +0.000 A 
ATOM      9  C   UNL     1      -3.725  -3.556  -0.212  0.00  0.00    +0.000 A 
ATOM     10  N   UNL     1      -3.803  -2.251   0.186  0.00  0.00    +0.000 NA
ATOM     11  N   UNL     1      -2.583  -1.735   0.144  0.00  0.00    +0.000 NA
ENDROOT
BRANCH   1  16
ATOM     12  C   UNL     1       1.632   0.371   1.132  0.00  0.00    +0.000 A 
ATOM     13  C   UNL     1       1.335   1.437   0.283  0.00  0.00    +0.000 A 
ATOM     14  C   UNL     1       0.490   1.248  -0.813  0.00  0.00    +0.000 A 
ATOM     15  C   UNL     1      -0.071  -0.008  -1.060  0.00  0.00    +0.000 A 
ATOM     16  C   UNL     1       0.209  -1.069  -0.193  0.00  0.00    +0.000 A 
ATOM     17  C   UNL     1       1.076  -0.886   0.893  0.00  0.00    +0.000 A 
ATOM     18 CL   UNL     1      -1.041  -0.199  -2.475  0.00  0.00    +0.000 Cl
ENDBRANCH   1  16
TORSDOF 1
