REMARK  Name = *****
REMARK  3 active torsions:
REMARK  status: ('A' for Active; 'I' for Inactive)
REMARK    1  A    between atoms: C_4  and  C_7
REMARK    2  A    between atoms: N_8  and  O_9
REMARK    3  A    between atoms: O_9  and  C_10
REMARK                            x       y       z     vdW  Elec       q    Type
REMARK                         _______ _______ _______ _____ _____    ______ ____
ROOT
ATOM      1  C   UNL     1      -2.809   0.275  -0.302  0.00  0.00    +0.000 C 
ATOM      2  N   UNL     1      -3.747  -0.625  -0.295  0.00  0.00    +0.000 NA
ENDROOT
BRANCH   1   6
ATOM      3  C   UNL     1       1.416  -0.053   0.188  0.00  0.00    +0.000 A 
ATOM      4  C   UNL     1       0.734  -1.047  -0.514  0.00  0.00    +0.000 A 
ATOM      5  C   UNL     1      -0.650  -0.963  -0.677  0.00  0.00    +0.000 A 
ATOM      6  C   UNL     1      -1.352   0.111  -0.124  0.00  0.00    +0.000 A 
ATOM      7  C   UNL     1      -0.665   1.119   0.561  0.00  0.00    +0.000 A 
ATOM      8  C   UNL     1       0.719   1.030   0.723  0.00  0.00    +0.000 A 
ENDBRANCH   1   6
BRANCH   2   9
ATOM      9  O   UNL     1      -3.261  -1.898   0.019  0.00  0.00    +0.000 OA
BRANCH   9  10
ATOM     10  C   UNL     1      -4.258  -2.847  -0.006  0.00  0.00    +0.000 A 
ATOM     11  C   UNL     1      -5.596  -2.596  -0.319  0.00  0.00    +0.000 A 
ATOM     12  C   UNL     1      -6.525  -3.640  -0.318  0.00  0.00    +0.000 A 
ATOM     13  C   UNL     1      -6.119  -4.937  -0.004  0.00  0.00    +0.000 A 
ATOM     14  C   UNL     1      -4.785  -5.192   0.309  0.00  0.00    +0.000 A 
ATOM     15  C   UNL     1      -3.858  -4.149   0.308  0.00  0.00    +0.000 A 
ENDBRANCH   9  10
ENDBRANCH   2   9
TORSDOF 3
