REMARK  Name = *****
REMARK  4 active torsions:
REMARK  status: ('A' for Active; 'I' for Inactive)
REMARK    1  A    between atoms: C_4  and  S_7
REMARK    2  A    between atoms: S_7  and  N_8
REMARK    3  A    between atoms: N_8  and  C_9
REMARK    4  A    between atoms: N_8  and  O_16
REMARK                            x       y       z     vdW  Elec       q    Type
REMARK                         _______ _______ _______ _____ _____    ______ ____
ROOT
ATOM      1  N   UNL     1      -3.817  -1.036  -0.626  0.00  0.00    +0.000 N 
ENDROOT
BRANCH   1   2
ATOM      2  C   UNL     1      -3.287  -2.310  -0.280  0.00  0.00    +0.000 A 
ATOM      3  C   UNL     1      -2.203  -2.483   0.599  0.00  0.00    +0.000 A 
ATOM      4  C   UNL     1      -1.710  -3.757   0.909  0.00  0.00    +0.000 A 
ATOM      5  C   UNL     1      -2.295  -4.884   0.342  0.00  0.00    +0.000 A 
ATOM      6  C   UNL     1      -3.368  -4.748  -0.531  0.00  0.00    +0.000 A 
ATOM      7  C   UNL     1      -3.855  -3.473  -0.837  0.00  0.00    +0.000 A 
ATOM      8 CL   UNL     1      -1.690  -6.448   0.723  0.00  0.00    +0.000 Cl
ENDBRANCH   1   2
BRANCH   1   9
ATOM      9  O   UNL     1      -4.936  -0.955  -1.450  0.00  0.00    +0.000 OA
ATOM     10  H   UNL     1      -5.169  -0.024  -1.588  0.00  0.00    +0.000 HD
ENDBRANCH   1   9
BRANCH   1  11
ATOM     11  S   UNL     1      -3.261   0.414  -0.041  0.00  0.00    +0.000 S 
BRANCH  11  15
ATOM     12  C   UNL     1       0.355   1.307  -2.734  0.00  0.00    +0.000 A 
ATOM     13  C   UNL     1      -0.735   0.621  -3.265  0.00  0.00    +0.000 A 
ATOM     14  C   UNL     1      -1.844   0.338  -2.463  0.00  0.00    +0.000 A 
ATOM     15  C   UNL     1      -1.868   0.732  -1.120  0.00  0.00    +0.000 A 
ATOM     16  C   UNL     1      -0.770   1.428  -0.599  0.00  0.00    +0.000 A 
ATOM     17  C   UNL     1       0.338   1.712  -1.401  0.00  0.00    +0.000 A 
ENDBRANCH  11  15
ENDBRANCH   1  11
TORSDOF 4
