REMARK  Name = *****
REMARK  2 active torsions:
REMARK  status: ('A' for Active; 'I' for Inactive)
REMARK    1  A    between atoms: C_5  and  C_6
REMARK    2  A    between atoms: C_6  and  C_7
REMARK                            x       y       z     vdW  Elec       q    Type
REMARK                         _______ _______ _______ _____ _____    ______ ____
ROOT
ATOM      1  C   UNL     1      -1.036   3.145  -0.213  0.00  0.00    +0.000 C 
ENDROOT
BRANCH   1   6
ATOM      2  C   UNL     1       2.214   0.045  -2.760  0.00  0.00    +0.000 C 
ATOM      3  C   UNL     1       1.264   0.718  -3.736  0.00  0.00    +0.000 C 
ATOM      4  S   UNL     1      -0.145   1.359  -2.781  0.00  0.00    +0.000 S 
ATOM      5  C   UNL     1       0.786   1.774  -1.374  0.00  0.00    +0.000 C 
ATOM      6  C   UNL     1       0.327   2.527  -0.363  0.00  0.00    +0.000 C 
ATOM      7  S   UNL     1       2.415   1.152  -1.331  0.00  0.00    +0.000 S 
ENDBRANCH   1   6
BRANCH   1   8
ATOM      8  C   UNL     1      -0.979   4.655  -0.239  0.00  0.00    +0.000 A 
ATOM      9  C   UNL     1      -0.984   5.341  -1.462  0.00  0.00    +0.000 A 
ATOM     10  C   UNL     1      -0.913   6.734  -1.492  0.00  0.00    +0.000 A 
ATOM     11  C   UNL     1      -0.830   7.455  -0.302  0.00  0.00    +0.000 A 
ATOM     12  C   UNL     1      -0.816   6.783   0.919  0.00  0.00    +0.000 A 
ATOM     13  C   UNL     1      -0.887   5.389   0.952  0.00  0.00    +0.000 A 
ENDBRANCH   1   8
TORSDOF 2
