REMARK  Name = *****
REMARK  2 active torsions:
REMARK  status: ('A' for Active; 'I' for Inactive)
REMARK    1  A    between atoms: C_6  and  N_7
REMARK    2  A    between atoms: C_8  and  C_9
REMARK                            x       y       z     vdW  Elec       q    Type
REMARK                         _______ _______ _______ _____ _____    ______ ____
ROOT
ATOM      1  N   UNL     1      -3.214  -1.459  -0.528  0.00  0.00    +0.000 NA
ATOM      2  C   UNL     1      -3.429  -2.513   0.195  0.00  0.00    +0.000 C 
ENDROOT
BRANCH   1   8
ATOM      3  C   UNL     1      -1.987   0.339   0.538  0.00  0.00    +0.000 A 
ATOM      4  C   UNL     1      -0.797   1.034   0.761  0.00  0.00    +0.000 A 
ATOM      5  C   UNL     1       0.370   0.604   0.139  0.00  0.00    +0.000 A 
ATOM      6  C   UNL     1       0.352  -0.504  -0.700  0.00  0.00    +0.000 A 
ATOM      7  C   UNL     1      -0.832  -1.200  -0.926  0.00  0.00    +0.000 A 
ATOM      8  C   UNL     1      -2.008  -0.787  -0.296  0.00  0.00    +0.000 A 
ATOM      9  F   UNL     1       1.478  -0.912  -1.302  0.00  0.00    +0.000 F 
ATOM     10  F   UNL     1       1.513   1.269   0.354  0.00  0.00    +0.000 F 
ENDBRANCH   1   8
BRANCH   2  11
ATOM     11  C   UNL     1      -4.658  -3.311   0.049  0.00  0.00    +0.000 A 
ATOM     12  C   UNL     1      -4.828  -4.442   0.849  0.00  0.00    +0.000 A 
ATOM     13  C   UNL     1      -5.974  -5.222   0.741  0.00  0.00    +0.000 A 
ATOM     14  C   UNL     1      -6.951  -4.859  -0.178  0.00  0.00    +0.000 A 
ATOM     15  C   UNL     1      -6.799  -3.735  -0.986  0.00  0.00    +0.000 A 
ATOM     16  C   UNL     1      -5.647  -2.954  -0.875  0.00  0.00    +0.000 A 
ATOM     17  F   UNL     1      -8.058  -5.604  -0.290  0.00  0.00    +0.000 F 
ATOM     18  F   UNL     1      -3.888  -4.796   1.737  0.00  0.00    +0.000 F 
ENDBRANCH   2  11
TORSDOF 2
