REMARK  Name = *****
REMARK  3 active torsions:
REMARK  status: ('A' for Active; 'I' for Inactive)
REMARK    1  A    between atoms: C_3  and  C_14
REMARK    2  A    between atoms: C_5  and  N_7
REMARK    3  A    between atoms: C_8  and  C_9
REMARK                            x       y       z     vdW  Elec       q    Type
REMARK                         _______ _______ _______ _____ _____    ______ ____
ROOT
ATOM      1  C   UNL     1       1.151  -0.022  -0.501  0.00  0.00    +0.000 A 
ATOM      2  C   UNL     1       0.460  -1.218  -0.301  0.00  0.00    +0.000 A 
ATOM      3  C   UNL     1      -0.872  -1.203   0.141  0.00  0.00    +0.000 A 
ATOM      4  C   UNL     1      -1.503   0.033   0.355  0.00  0.00    +0.000 A 
ATOM      5  C   UNL     1      -0.820   1.233   0.138  0.00  0.00    +0.000 A 
ATOM      6  C   UNL     1       0.513   1.197  -0.276  0.00  0.00    +0.000 A 
ENDROOT
BRANCH   3   7
ATOM      7  C   UNL     1      -1.633  -2.487   0.353  0.00  0.00    +0.000 C 
ATOM      8  F   UNL     1      -0.826  -3.567   0.549  0.00  0.00    +0.000 F 
ATOM      9  F   UNL     1      -2.464  -2.443   1.431  0.00  0.00    +0.000 F 
ATOM     10  F   UNL     1      -2.421  -2.799  -0.713  0.00  0.00    +0.000 F 
ENDBRANCH   3   7
BRANCH   5  11
ATOM     11  N   UNL     1      -1.456   2.457   0.373  0.00  0.00    +0.000 NA
ATOM     12  C   UNL     1      -2.063   2.984  -0.645  0.00  0.00    +0.000 C 
BRANCH  12  13
ATOM     13  C   UNL     1      -2.752   4.244  -0.518  0.00  0.00    +0.000 A 
ATOM     14  C   UNL     1      -2.881   5.055   0.592  0.00  0.00    +0.000 A 
ATOM     15  C   UNL     1      -3.643   6.227   0.319  0.00  0.00    +0.000 A 
ATOM     16  C   UNL     1      -4.069   6.270  -0.991  0.00  0.00    +0.000 A 
ATOM     17  S   UNL     1      -3.549   4.903  -1.879  0.00  0.00    +0.000 S 
ENDBRANCH  12  13
ENDBRANCH   5  11
TORSDOF 3
