REMARK  Name = *****
REMARK  2 active torsions:
REMARK  status: ('A' for Active; 'I' for Inactive)
REMARK    1  A    between atoms: C_4  and  C_6
REMARK    2  A    between atoms: N_7  and  C_8
REMARK                            x       y       z     vdW  Elec       q    Type
REMARK                         _______ _______ _______ _____ _____    ______ ____
ROOT
ATOM      1  C   UNL     1       0.485  -4.970  -0.279  0.00  0.00    +0.000 A 
ATOM      2  C   UNL     1       1.127  -5.758   0.680  0.00  0.00    +0.000 A 
ATOM      3  C   UNL     1       0.815  -7.114   0.791  0.00  0.00    +0.000 A 
ATOM      4  C   UNL     1      -0.129  -7.682  -0.061  0.00  0.00    +0.000 A 
ATOM      5  C   UNL     1      -0.763  -6.910  -1.030  0.00  0.00    +0.000 A 
ATOM      6  C   UNL     1      -0.450  -5.554  -1.142  0.00  0.00    +0.000 A 
ATOM      7  F   UNL     1      -0.443  -8.983   0.032  0.00  0.00    +0.000 F 
ATOM      8 CL   UNL     1       1.606  -8.069   1.986  0.00  0.00    +0.000 Cl
ENDROOT
BRANCH   1  10
ATOM      9  C   UNL     1       0.064  -2.783   0.248  0.00  0.00    +0.000 C 
ATOM     10  N   UNL     1       0.812  -3.616  -0.408  0.00  0.00    +0.000 NA
BRANCH   9  14
ATOM     11  C   UNL     1       1.217   0.724  -0.315  0.00  0.00    +0.000 A 
ATOM     12  C   UNL     1       0.170   1.072   0.510  0.00  0.00    +0.000 A 
ATOM     13  S   UNL     1      -0.702  -0.297   1.051  0.00  0.00    +0.000 S 
ATOM     14  C   UNL     1       0.314  -1.365   0.184  0.00  0.00    +0.000 A 
ATOM     15  C   UNL     1       1.299  -0.686  -0.504  0.00  0.00    +0.000 A 
ENDBRANCH   9  14
ENDBRANCH   1  10
TORSDOF 2
