REMARK  Name = *****
REMARK  3 active torsions:
REMARK  status: ('A' for Active; 'I' for Inactive)
REMARK    1  A    between atoms: C_4  and  N_7
REMARK    2  A    between atoms: N_7  and  S_8
REMARK    3  A    between atoms: S_8  and  C_10
REMARK                            x       y       z     vdW  Elec       q    Type
REMARK                         _______ _______ _______ _____ _____    ______ ____
ROOT
ATOM      1  S   UNL     1      -3.937  -1.194  -0.693  0.00  0.00    +0.000 S 
ATOM      2  O   UNL     1      -3.831  -2.358   0.243  0.00  0.00    +0.000 OA
ENDROOT
BRANCH   1   3
ATOM      3  C   UNL     1      -5.471  -0.338  -0.263  0.00  0.00    +0.000 A 
ATOM      4  C   UNL     1      -6.076   0.510  -1.197  0.00  0.00    +0.000 A 
ATOM      5  C   UNL     1      -7.262   1.179  -0.873  0.00  0.00    +0.000 A 
ATOM      6  C   UNL     1      -7.847   1.002   0.387  0.00  0.00    +0.000 A 
ATOM      7  C   UNL     1      -7.244   0.152   1.318  0.00  0.00    +0.000 A 
ATOM      8  C   UNL     1      -6.061  -0.516   0.993  0.00  0.00    +0.000 A 
ATOM      9 CL   UNL     1      -9.305   1.801   0.852  0.00  0.00    +0.000 Cl
ATOM     10 CL   UNL     1      -7.947   2.215  -2.074  0.00  0.00    +0.000 Cl
ENDBRANCH   1   3
BRANCH   1  11
ATOM     11  N   UNL     1      -2.972   0.068  -0.173  0.00  0.00    +0.000 N 
ATOM     12  H   UNL     1      -3.407   0.907   0.103  0.00  0.00    +0.000 HD
BRANCH  11  16
ATOM     13  C   UNL     1       1.252  -0.017   0.145  0.00  0.00    +0.000 A 
ATOM     14  C   UNL     1       0.556  -1.214   0.001  0.00  0.00    +0.000 A 
ATOM     15  C   UNL     1      -0.839  -1.209  -0.114  0.00  0.00    +0.000 A 
ATOM     16  C   UNL     1      -1.562  -0.009  -0.110  0.00  0.00    +0.000 A 
ATOM     17  C   UNL     1      -0.841   1.184   0.071  0.00  0.00    +0.000 A 
ATOM     18  C   UNL     1       0.552   1.184   0.186  0.00  0.00    +0.000 A 
ENDBRANCH  11  16
ENDBRANCH   1  11
TORSDOF 3
