REMARK  Name = *****
REMARK  4 active torsions:
REMARK  status: ('A' for Active; 'I' for Inactive)
REMARK    1  A    between atoms: C_4  and  C_6
REMARK    2  A    between atoms: C_6  and  O_7
REMARK    3  A    between atoms: O_7  and  C_8
REMARK    4  A    between atoms: C_8  and  C_10
REMARK                            x       y       z     vdW  Elec       q    Type
REMARK                         _______ _______ _______ _____ _____    ______ ____
ROOT
ATOM      1  C   UNL     1       0.919  -4.280   1.401  0.00  0.00    +0.000 C 
ATOM      2  O   UNL     1       0.557  -4.155   2.559  0.00  0.00    +0.000 OA
ENDROOT
BRANCH   1   3
ATOM      3  C   UNL     1       1.825  -5.361   0.929  0.00  0.00    +0.000 A 
ATOM      4  C   UNL     1       2.184  -6.366   1.837  0.00  0.00    +0.000 A 
ATOM      5  C   UNL     1       3.034  -7.401   1.442  0.00  0.00    +0.000 A 
ATOM      6  C   UNL     1       3.532  -7.436   0.140  0.00  0.00    +0.000 A 
ATOM      7  C   UNL     1       3.183  -6.437  -0.768  0.00  0.00    +0.000 A 
ATOM      8  C   UNL     1       2.332  -5.400  -0.377  0.00  0.00    +0.000 A 
ENDBRANCH   1   3
BRANCH   1   9
ATOM      9  O   UNL     1       0.559  -3.474   0.372  0.00  0.00    +0.000 OA
BRANCH   9  10
ATOM     10  C   UNL     1      -0.315  -2.378   0.718  0.00  0.00    +0.000 C 
BRANCH  10  14
ATOM     11  C   UNL     1       0.767   0.944  -0.168  0.00  0.00    +0.000 C 
ATOM     12  C   UNL     1       0.090   1.468   1.081  0.00  0.00    +0.000 C 
ATOM     13  S   UNL     1      -0.752   0.083   1.894  0.00  0.00    +0.000 S 
ATOM     14  C   UNL     1       0.433  -1.232   1.420  0.00  0.00    +0.000 C 
ATOM     15  S   UNL     1       1.715  -0.514   0.324  0.00  0.00    +0.000 S 
ENDBRANCH  10  14
ENDBRANCH   9  10
ENDBRANCH   1   9
TORSDOF 4
