REMARK  Name = *****
REMARK  4 active torsions:
REMARK  status: ('A' for Active; 'I' for Inactive)
REMARK    1  A    between atoms: C_1  and  C_2
REMARK    2  A    between atoms: C_6  and  C_8
REMARK    3  A    between atoms: C_8  and  C_9
REMARK    4  A    between atoms: C_9  and  C_10
REMARK                            x       y       z     vdW  Elec       q    Type
REMARK                         _______ _______ _______ _____ _____    ______ ____
ROOT
ATOM      1  C   UNL     1       2.923   1.780  -3.066  0.00  0.00    +0.000 C 
ENDROOT
BRANCH   1   7
ATOM      2  C   UNL     1       6.019   0.547  -4.368  0.00  0.00    +0.000 C 
ATOM      3  C   UNL     1       6.142   0.019  -2.940  0.00  0.00    +0.000 C 
ATOM      4  C   UNL     1       6.932   0.963  -2.027  0.00  0.00    +0.000 C 
ATOM      5  C   UNL     1       6.191   2.183  -1.568  0.00  0.00    +0.000 C 
ATOM      6  C   UNL     1       4.855   2.303  -1.542  0.00  0.00    +0.000 C 
ATOM      7  C   UNL     1       3.816   1.276  -1.918  0.00  0.00    +0.000 C 
ATOM      8  S   UNL     1       4.514  -0.391  -2.214  0.00  0.00    +0.000 S 
ENDBRANCH   1   7
BRANCH   1   9
ATOM      9  C   UNL     1       1.723   0.871  -3.361  0.00  0.00    +0.000 C 
BRANCH   9  10
ATOM     10  C   UNL     1       0.801   1.492  -4.384  0.00  0.00    +0.000 A 
ATOM     11  C   UNL     1       1.075   1.366  -5.753  0.00  0.00    +0.000 A 
ATOM     12  C   UNL     1       0.234   1.955  -6.699  0.00  0.00    +0.000 A 
ATOM     13  C   UNL     1      -0.884   2.677  -6.286  0.00  0.00    +0.000 A 
ATOM     14  C   UNL     1      -1.162   2.812  -4.927  0.00  0.00    +0.000 A 
ATOM     15  C   UNL     1      -0.322   2.225  -3.979  0.00  0.00    +0.000 A 
ENDBRANCH   9  10
ENDBRANCH   1   9
TORSDOF 3
