REMARK  Name = *****
REMARK  5 active torsions:
REMARK  status: ('A' for Active; 'I' for Inactive)
REMARK    1  A    between atoms: C_1  and  O_2
REMARK    2  A    between atoms: O_2  and  C_3
REMARK    3  A    between atoms: C_3  and  C_4
REMARK    4  A    between atoms: C_3  and  C_10
REMARK    5  A    between atoms: C_10  and  C_11
REMARK                            x       y       z     vdW  Elec       q    Type
REMARK                         _______ _______ _______ _____ _____    ______ ____
ROOT
ATOM      1  C   UNL     1       3.099  -1.185   0.761  0.00  0.00    +0.000 C 
ENDROOT
BRANCH   1   2
ATOM      2  C   UNL     1       2.499  -0.027  -0.025  0.00  0.00    +0.000 A 
ATOM      3  C   UNL     1       1.808  -0.225  -1.230  0.00  0.00    +0.000 A 
ATOM      4  C   UNL     1       1.281   0.857  -1.937  0.00  0.00    +0.000 A 
ATOM      5  C   UNL     1       1.438   2.153  -1.451  0.00  0.00    +0.000 A 
ATOM      6  C   UNL     1       2.124   2.369  -0.259  0.00  0.00    +0.000 A 
ATOM      7  C   UNL     1       2.652   1.287   0.449  0.00  0.00    +0.000 A 
ENDBRANCH   1   2
BRANCH   1   9
ATOM      8  C   UNL     1       2.260  -3.301   1.476  0.00  0.00    +0.000 C 
ATOM      9  O   UNL     1       2.483  -2.431   0.375  0.00  0.00    +0.000 OA
ENDBRANCH   1   9
BRANCH   1  10
ATOM     10  C   UNL     1       4.648  -1.270   0.669  0.00  0.00    +0.000 C 
ATOM     11  F   UNL     1       5.170  -0.309   1.501  0.00  0.00    +0.000 F 
BRANCH  10  12
ATOM     12  C   UNL     1       5.230  -1.206  -0.729  0.00  0.00    +0.000 A 
ATOM     13  C   UNL     1       5.999  -0.103  -1.128  0.00  0.00    +0.000 A 
ATOM     14  C   UNL     1       6.539  -0.040  -2.414  0.00  0.00    +0.000 A 
ATOM     15  C   UNL     1       6.318  -1.080  -3.315  0.00  0.00    +0.000 A 
ATOM     16  C   UNL     1       5.558  -2.183  -2.931  0.00  0.00    +0.000 A 
ATOM     17  C   UNL     1       5.018  -2.247  -1.645  0.00  0.00    +0.000 A 
ENDBRANCH  10  12
ENDBRANCH   1  10
TORSDOF 4
