REMARK  Name = *****
REMARK  4 active torsions:
REMARK  status: ('A' for Active; 'I' for Inactive)
REMARK    1  A    between atoms: C_1  and  C_2
REMARK    2  A    between atoms: C_2  and  C_11
REMARK    3  A    between atoms: N_3  and  C_4
REMARK    4  A    between atoms: C_9  and  S_10
REMARK                            x       y       z     vdW  Elec       q    Type
REMARK                         _______ _______ _______ _____ _____    ______ ____
ROOT
ATOM      1  C   UNL     1       1.023  -0.123  -0.147  0.00  0.00    +0.000 C 
ATOM      2  C   UNL     1       2.512  -0.119   0.150  0.00  0.00    +0.000 C 
ATOM      3  N   UNL     1       3.086  -0.891   1.032  0.00  0.00    +0.000 NA
ENDROOT
BRANCH   3   4
ATOM      4  C   UNL     1       2.315  -1.810   1.769  0.00  0.00    +0.000 A 
ATOM      5  C   UNL     1       1.663  -1.376   2.930  0.00  0.00    +0.000 A 
ATOM      6  C   UNL     1       0.900  -2.262   3.694  0.00  0.00    +0.000 A 
ATOM      7  C   UNL     1       0.793  -3.596   3.309  0.00  0.00    +0.000 A 
ATOM      8  C   UNL     1       1.457  -4.049   2.167  0.00  0.00    +0.000 A 
ATOM      9  C   UNL     1       2.227  -3.167   1.400  0.00  0.00    +0.000 A 
BRANCH   9  10
ATOM     10  S   UNL     1       3.075  -3.801  -0.042  0.00  0.00    +0.000 S 
ATOM     11  H   UNL     1       3.761  -2.793  -0.644  0.00  0.00    +0.000 HD
ENDBRANCH   9  10
ENDBRANCH   3   4
BRANCH   2  12
ATOM     12  C   UNL     1       3.415   0.886  -0.582  0.00  0.00    +0.000 C 
ATOM     13  C   UNL     1       2.927   2.302  -0.429  0.00  0.00    +0.000 C 
ATOM     14  C   UNL     1       2.661   2.821  -1.639  0.00  0.00    +0.000 C 
ATOM     15  C   UNL     1       2.938   1.835  -2.655  0.00  0.00    +0.000 C 
ATOM     16  C   UNL     1       3.373   0.706  -2.076  0.00  0.00    +0.000 C 
ENDBRANCH   2  12
TORSDOF 3
