REMARK  Name = *****
REMARK  5 active torsions:
REMARK  status: ('A' for Active; 'I' for Inactive)
REMARK    1  A    between atoms: C_1  and  C_2
REMARK    2  A    between atoms: C_4  and  C_17
REMARK    3  A    between atoms: C_5  and  C_8
REMARK    4  A    between atoms: C_8  and  O_10
REMARK    5  A    between atoms: O_10  and  C_11
REMARK                            x       y       z     vdW  Elec       q    Type
REMARK                         _______ _______ _______ _____ _____    ______ ____
ROOT
ATOM      1  C   UNL     1      -2.382  -1.379   1.030  0.00  0.00    +0.000 C 
ATOM      2  O   UNL     1      -3.478  -1.127   0.556  0.00  0.00    +0.000 OA
ENDROOT
BRANCH   1   7
ATOM      3  C   UNL     1       2.626   0.788  -0.950  0.00  0.00    +0.000 C 
ATOM      4  C   UNL     1       1.337   0.247  -0.404  0.00  0.00    +0.000 A 
ATOM      5  C   UNL     1       0.176   1.032  -0.417  0.00  0.00    +0.000 A 
ATOM      6  C   UNL     1      -1.049   0.535   0.065  0.00  0.00    +0.000 A 
ATOM      7  C   UNL     1      -1.103  -0.789   0.545  0.00  0.00    +0.000 A 
ATOM      8  C   UNL     1       0.057  -1.581   0.538  0.00  0.00    +0.000 A 
ATOM      9  C   UNL     1       1.266  -1.067   0.066  0.00  0.00    +0.000 A 
ATOM     10  C   UNL     1      -2.258   1.429   0.028  0.00  0.00    +0.000 C 
ENDBRANCH   1   7
BRANCH   1  11
ATOM     11  O   UNL     1      -2.097  -2.203   2.105  0.00  0.00    +0.000 OA
BRANCH  11  12
ATOM     12  C   UNL     1      -3.231  -2.790   2.669  0.00  0.00    +0.000 A 
ATOM     13  C   UNL     1      -3.514  -4.121   2.369  0.00  0.00    +0.000 A 
ATOM     14  C   UNL     1      -4.612  -4.735   2.970  0.00  0.00    +0.000 A 
ATOM     15  C   UNL     1      -5.406  -4.020   3.871  0.00  0.00    +0.000 A 
ATOM     16  C   UNL     1      -5.101  -2.692   4.178  0.00  0.00    +0.000 A 
ATOM     17  C   UNL     1      -4.003  -2.072   3.581  0.00  0.00    +0.000 A 
ENDBRANCH  11  12
ENDBRANCH   1  11
TORSDOF 3
