REMARK  Name = *****
REMARK  5 active torsions:
REMARK  status: ('A' for Active; 'I' for Inactive)
REMARK    1  A    between atoms: C_1  and  C_2
REMARK    2  A    between atoms: C_2  and  C_8
REMARK    3  A    between atoms: C_8  and  C_9
REMARK    4  A    between atoms: C_9  and  C_10
REMARK    5  A    between atoms: C_10  and  C_16
REMARK                            x       y       z     vdW  Elec       q    Type
REMARK                         _______ _______ _______ _____ _____    ______ ____
ROOT
ATOM      1  C   UNL     1       2.978   0.212   1.444  0.00  0.00    +0.000 C 
ENDROOT
BRANCH   1   3
ATOM      2  C   UNL     1       0.926   0.054   0.026  0.00  0.00    +0.000 C 
ATOM      3  C   UNL     1       2.453  -0.129   0.015  0.00  0.00    +0.000 C 
ATOM      4  S   UNL     1       3.227   1.028  -1.188  0.00  0.00    +0.000 S 
ATOM      5  C   UNL     1       2.567   0.411  -2.761  0.00  0.00    +0.000 C 
ATOM      6  C   UNL     1       2.928  -1.039  -3.035  0.00  0.00    +0.000 C 
ATOM      7  C   UNL     1       2.281  -2.026  -2.077  0.00  0.00    +0.000 C 
ATOM      8  S   UNL     1       2.889  -1.871  -0.375  0.00  0.00    +0.000 S 
ENDBRANCH   1   3
BRANCH   1   9
ATOM      9  C   UNL     1       4.502   0.078   1.690  0.00  0.00    +0.000 C 
BRANCH   9  10
ATOM     10  C   UNL     1       4.993   0.528   3.091  0.00  0.00    +0.000 C 
ATOM     11  S   UNL     1       4.603   2.279   3.497  0.00  0.00    +0.000 S 
ATOM     12  C   UNL     1       5.569   3.142   2.228  0.00  0.00    +0.000 C 
ATOM     13  C   UNL     1       7.063   2.877   2.343  0.00  0.00    +0.000 C 
ATOM     14  C   UNL     1       7.463   1.438   2.051  0.00  0.00    +0.000 C 
ATOM     15  S   UNL     1       6.811   0.248   3.257  0.00  0.00    +0.000 S 
ATOM     16  C   UNL     1       4.343  -0.328   4.193  0.00  0.00    +0.000 C 
ENDBRANCH   9  10
ENDBRANCH   1   9
TORSDOF 3
