REMARK  Name = *****
REMARK  3 active torsions:
REMARK  status: ('A' for Active; 'I' for Inactive)
REMARK    1  A    between atoms: C_1  and  C_2
REMARK    2  A    between atoms: C_3  and  C_12
REMARK    3  A    between atoms: C_8  and  C_11
REMARK                            x       y       z     vdW  Elec       q    Type
REMARK                         _______ _______ _______ _____ _____    ______ ____
ROOT
ATOM      1  C   UNL     1       0.824   0.068   0.029  0.00  0.00    +0.000 C 
ATOM      2  C   UNL     1       2.352   0.074   0.015  0.00  0.00    +0.000 C 
ATOM      3  C   UNL     1       2.954   1.205  -0.818  0.00  0.00    +0.000 C 
ATOM      4  C   UNL     1       3.683   0.746  -1.851  0.00  0.00    +0.000 C 
ATOM      5  C   UNL     1       3.668  -0.705  -1.806  0.00  0.00    +0.000 A 
ATOM      6  C   UNL     1       2.899  -1.129  -0.717  0.00  0.00    +0.000 A 
ATOM      7  C   UNL     1       2.735  -2.477  -0.435  0.00  0.00    +0.000 A 
ATOM      8  C   UNL     1       3.353  -3.417  -1.273  0.00  0.00    +0.000 A 
ATOM      9  C   UNL     1       4.122  -2.978  -2.372  0.00  0.00    +0.000 A 
ATOM     10  C   UNL     1       4.284  -1.616  -2.643  0.00  0.00    +0.000 A 
ATOM     11  C   UNL     1       3.203  -4.888  -1.016  0.00  0.00    +0.000 C 
ENDROOT
BRANCH   3  12
ATOM     12  C   UNL     1       2.733   2.566  -0.441  0.00  0.00    +0.000 A 
ATOM     13  C   UNL     1       2.728   3.609  -1.347  0.00  0.00    +0.000 A 
ATOM     14  S   UNL     1       2.438   5.125  -0.607  0.00  0.00    +0.000 S 
ATOM     15  C   UNL     1       2.323   4.406   0.939  0.00  0.00    +0.000 A 
ATOM     16  C   UNL     1       2.500   3.040   0.889  0.00  0.00    +0.000 A 
ENDBRANCH   3  12
TORSDOF 1
