REMARK  Name = *****
REMARK  3 active torsions:
REMARK  status: ('A' for Active; 'I' for Inactive)
REMARK    1  A    between atoms: C_3  and  S_8
REMARK    2  A    between atoms: S_8  and  C_9
REMARK    3  A    between atoms: C_9  and  C_11
REMARK                            x       y       z     vdW  Elec       q    Type
REMARK                         _______ _______ _______ _____ _____    ______ ____
ROOT
ATOM      1  S   UNL     1      -3.773   0.427  -0.556  0.00  0.00    +0.000 S 
ENDROOT
BRANCH   1   4
ATOM      2  C   UNL     1      -0.106  -1.142   0.196  0.00  0.00    +0.000 A 
ATOM      3  C   UNL     1      -1.480  -0.994  -0.008  0.00  0.00    +0.000 A 
ATOM      4  C   UNL     1      -2.025   0.274  -0.251  0.00  0.00    +0.000 A 
ATOM      5  C   UNL     1      -1.177   1.388  -0.308  0.00  0.00    +0.000 A 
ATOM      6  C   UNL     1       0.196   1.239  -0.100  0.00  0.00    +0.000 A 
ATOM      7  C   UNL     1       0.719  -0.024   0.150  0.00  0.00    +0.000 A 
ATOM      8  F   UNL     1       2.036  -0.168   0.345  0.00  0.00    +0.000 F 
ENDBRANCH   1   4
BRANCH   1   9
ATOM      9  C   UNL     1      -4.321   1.416   0.804  0.00  0.00    +0.000 C 
ATOM     10  O   UNL     1      -3.540   1.932   1.595  0.00  0.00    +0.000 OA
BRANCH   9  11
ATOM     11  C   UNL     1      -5.752   1.620   0.808  0.00  0.00    +0.000 A 
ATOM     12  C   UNL     1      -6.795   0.715   0.819  0.00  0.00    +0.000 A 
ATOM     13  C   UNL     1      -8.069   1.356   0.812  0.00  0.00    +0.000 A 
ATOM     14  C   UNL     1      -7.960   2.729   0.818  0.00  0.00    +0.000 A 
ATOM     15  S   UNL     1      -6.330   3.238   0.850  0.00  0.00    +0.000 S 
ATOM     16 CL   UNL     1      -6.669  -0.993   0.877  0.00  0.00    +0.000 Cl
ENDBRANCH   9  11
ENDBRANCH   1   9
TORSDOF 3
