REMARK  Name = *****
REMARK  2 active torsions:
REMARK  status: ('A' for Active; 'I' for Inactive)
REMARK    1  A    between atoms: C_4  and  C_7
REMARK    2  A    between atoms: P_10  and  C_12
REMARK                            x       y       z     vdW  Elec       q    Type
REMARK                         _______ _______ _______ _____ _____    ______ ____
ROOT
ATOM      1  C   UNL     1       2.619  -0.665  -0.410  0.00  0.00    +0.000 C 
ATOM      2  C   UNL     1       2.554  -0.856  -1.935  0.00  0.00    +0.000 C 
ATOM      3  C   UNL     1       3.947  -1.287  -2.392  0.00  0.00    +0.000 C 
ATOM      4  P   UNL     1       4.491  -2.547  -1.147  0.00  0.00    +0.000 P 
ATOM      5  C   UNL     1       3.296  -1.936   0.142  0.00  0.00    +0.000 C 
ENDROOT
BRANCH   1   9
ATOM      6  C   UNL     1      -0.633   1.297   1.826  0.00  0.00    +0.000 C 
ATOM      7  C   UNL     1      -0.780   1.163   0.316  0.00  0.00    +0.000 C 
ATOM      8  C   UNL     1       0.555   0.848  -0.357  0.00  0.00    +0.000 C 
ATOM      9  C   UNL     1       1.232  -0.402   0.236  0.00  0.00    +0.000 C 
ATOM     10  C   UNL     1       1.350  -0.263   1.768  0.00  0.00    +0.000 C 
ATOM     11  C   UNL     1       0.010   0.055   2.428  0.00  0.00    +0.000 C 
ENDBRANCH   1   9
BRANCH   4  12
ATOM     12  C   UNL     1       6.090  -1.893  -0.579  0.00  0.00    +0.000 A 
ATOM     13  C   UNL     1       6.297  -0.578  -0.145  0.00  0.00    +0.000 A 
ATOM     14  C   UNL     1       7.559  -0.151   0.282  0.00  0.00    +0.000 A 
ATOM     15  C   UNL     1       8.634  -1.035   0.282  0.00  0.00    +0.000 A 
ATOM     16  C   UNL     1       8.449  -2.346  -0.146  0.00  0.00    +0.000 A 
ATOM     17  C   UNL     1       7.187  -2.770  -0.573  0.00  0.00    +0.000 A 
ENDBRANCH   4  12
TORSDOF 2
