REMARK  Name = *****
REMARK  6 active torsions:
REMARK  status: ('A' for Active; 'I' for Inactive)
REMARK    1  A    between atoms: C_1  and  C_2
REMARK    2  A    between atoms: C_4  and  C_18
REMARK    3  A    between atoms: C_6  and  C_8
REMARK    4  A    between atoms: C_8  and  O_9
REMARK    5  A    between atoms: O_9  and  C_10
REMARK    6  A    between atoms: C_10  and  C_12
REMARK                            x       y       z     vdW  Elec       q    Type
REMARK                         _______ _______ _______ _____ _____    ______ ____
ROOT
ATOM      1  C   UNL     1      -2.452   0.934  -0.306  0.00  0.00    +0.000 C 
ENDROOT
BRANCH   1   7
ATOM      2  C   UNL     1      -1.278   2.582   4.308  0.00  0.00    +0.000 C 
ATOM      3  C   UNL     1      -1.113   1.574   3.209  0.00  0.00    +0.000 A 
ATOM      4  C   UNL     1      -0.323   0.435   3.405  0.00  0.00    +0.000 A 
ATOM      5  C   UNL     1      -0.192  -0.530   2.398  0.00  0.00    +0.000 A 
ATOM      6  C   UNL     1      -0.887  -0.359   1.195  0.00  0.00    +0.000 A 
ATOM      7  C   UNL     1      -1.686   0.773   0.981  0.00  0.00    +0.000 A 
ATOM      8  C   UNL     1      -1.803   1.728   2.001  0.00  0.00    +0.000 A 
ATOM      9  C   UNL     1       0.625  -1.766   2.633  0.00  0.00    +0.000 C 
ENDBRANCH   1   7
BRANCH   1  10
ATOM     10  O   UNL     1      -3.587   0.062  -0.296  0.00  0.00    +0.000 OA
BRANCH  10  11
ATOM     11  C   UNL     1      -4.747   0.610   0.163  0.00  0.00    +0.000 C 
ATOM     12  O   UNL     1      -4.899   1.782   0.477  0.00  0.00    +0.000 OA
BRANCH  11  13
ATOM     13  C   UNL     1      -5.831  -0.455   0.209  0.00  0.00    +0.000 C 
ATOM     14  C   UNL     1      -7.205   0.173   0.482  0.00  0.00    +0.000 C 
ATOM     15  C   UNL     1      -8.298  -0.887   0.595  0.00  0.00    +0.000 C 
ATOM     16  C   UNL     1      -7.954  -1.934   1.651  0.00  0.00    +0.000 C 
ATOM     17  C   UNL     1      -6.590  -2.564   1.391  0.00  0.00    +0.000 C 
ATOM     18  C   UNL     1      -5.493  -1.509   1.271  0.00  0.00    +0.000 C 
ENDBRANCH  11  13
ENDBRANCH  10  11
ENDBRANCH   1  10
TORSDOF 4
