REMARK  Name = *****
REMARK  4 active torsions:
REMARK  status: ('A' for Active; 'I' for Inactive)
REMARK    1  A    between atoms: C_1  and  C_2
REMARK    2  A    between atoms: C_7  and  C_8
REMARK    3  A    between atoms: C_9  and  C_10
REMARK    4  A    between atoms: C_15  and  C_16
REMARK                            x       y       z     vdW  Elec       q    Type
REMARK                         _______ _______ _______ _____ _____    ______ ____
ROOT
ATOM      1  C   UNL     1       1.147  -2.417   0.172  0.00  0.00    +0.000 C 
ATOM      2  C   UNL     1       2.394  -2.633  -0.276  0.00  0.00    +0.000 C 
ENDROOT
BRANCH   1   9
ATOM      3  C   UNL     1       0.145  -0.964   2.552  0.00  0.00    +0.000 C 
ATOM      4  C   UNL     1      -0.019  -0.426   1.157  0.00  0.00    +0.000 A 
ATOM      5  C   UNL     1      -0.681   0.799   0.969  0.00  0.00    +0.000 A 
ATOM      6  C   UNL     1      -0.850   1.332  -0.309  0.00  0.00    +0.000 A 
ATOM      7  C   UNL     1      -0.364   0.647  -1.418  0.00  0.00    +0.000 A 
ATOM      8  C   UNL     1       0.292  -0.573  -1.248  0.00  0.00    +0.000 A 
ATOM      9  C   UNL     1       0.475  -1.118   0.033  0.00  0.00    +0.000 A 
ENDBRANCH   1   9
BRANCH   2  10
ATOM     10  C   UNL     1       3.077  -3.923  -0.111  0.00  0.00    +0.000 A 
ATOM     11  C   UNL     1       2.499  -5.081  -0.655  0.00  0.00    +0.000 A 
ATOM     12  C   UNL     1       3.133  -6.318  -0.537  0.00  0.00    +0.000 A 
ATOM     13  C   UNL     1       4.355  -6.410   0.121  0.00  0.00    +0.000 A 
ATOM     14  C   UNL     1       4.944  -5.267   0.661  0.00  0.00    +0.000 A 
ATOM     15  C   UNL     1       4.316  -4.014   0.553  0.00  0.00    +0.000 A 
ATOM     16  C   UNL     1       4.983  -2.806   1.152  0.00  0.00    +0.000 C 
ENDBRANCH   2  10
TORSDOF 2
