REMARK  Name = *****
REMARK  5 active torsions:
REMARK  status: ('A' for Active; 'I' for Inactive)
REMARK    1  A    between atoms: C_1  and  C_2
REMARK    2  A    between atoms: C_4  and  C_19
REMARK    3  A    between atoms: C_5  and  C_8
REMARK    4  A    between atoms: C_8  and  C_9
REMARK    5  A    between atoms: C_9  and  C_11
REMARK                            x       y       z     vdW  Elec       q    Type
REMARK                         _______ _______ _______ _____ _____    ______ ____
ROOT
ATOM      1  C   UNL     1      -2.539  -1.967   0.317  0.00  0.00    +0.000 C 
ATOM      2  F   UNL     1      -2.303  -3.084   1.087  0.00  0.00    +0.000 F 
ATOM      3  F   UNL     1      -3.490  -1.281   1.033  0.00  0.00    +0.000 F 
ENDROOT
BRANCH   1   8
ATOM      4  C   UNL     1       2.466   1.019  -0.236  0.00  0.00    +0.000 C 
ATOM      5  C   UNL     1       1.175   0.273  -0.071  0.00  0.00    +0.000 A 
ATOM      6  C   UNL     1      -0.052   0.936  -0.193  0.00  0.00    +0.000 A 
ATOM      7  C   UNL     1      -1.273   0.246  -0.082  0.00  0.00    +0.000 A 
ATOM      8  C   UNL     1      -1.261  -1.143   0.169  0.00  0.00    +0.000 A 
ATOM      9  C   UNL     1      -0.021  -1.804   0.269  0.00  0.00    +0.000 A 
ATOM     10  C   UNL     1       1.181  -1.106   0.145  0.00  0.00    +0.000 A 
ATOM     11  C   UNL     1      -2.554   1.027  -0.203  0.00  0.00    +0.000 C 
ENDBRANCH   1   8
BRANCH   1  12
ATOM     12  C   UNL     1      -3.118  -2.401  -1.045  0.00  0.00    +0.000 C 
ATOM     13  O   UNL     1      -2.636  -2.075  -2.134  0.00  0.00    +0.000 OA
BRANCH  12  14
ATOM     14  C   UNL     1      -4.341  -3.268  -1.055  0.00  0.00    +0.000 A 
ATOM     15  C   UNL     1      -5.016  -3.649   0.112  0.00  0.00    +0.000 A 
ATOM     16  C   UNL     1      -6.152  -4.462   0.036  0.00  0.00    +0.000 A 
ATOM     17  C   UNL     1      -6.623  -4.899  -1.200  0.00  0.00    +0.000 A 
ATOM     18  C   UNL     1      -5.961  -4.525  -2.366  0.00  0.00    +0.000 A 
ATOM     19  C   UNL     1      -4.827  -3.713  -2.295  0.00  0.00    +0.000 A 
ENDBRANCH  12  14
ENDBRANCH   1  12
TORSDOF 3
