REMARK  Name = *****
REMARK  3 active torsions:
REMARK  status: ('A' for Active; 'I' for Inactive)
REMARK    1  A    between atoms: C_3  and  C_6
REMARK    2  A    between atoms: C_6  and  C_7
REMARK    3  A    between atoms: C_7  and  C_8
REMARK                            x       y       z     vdW  Elec       q    Type
REMARK                         _______ _______ _______ _____ _____    ______ ____
ROOT
ATOM      1  C   UNL     1       1.420  -3.189   1.090  0.00  0.00    +0.000 C 
ENDROOT
BRANCH   1   2
ATOM      2  C   UNL     1       1.509  -4.020   2.348  0.00  0.00    +0.000 A 
ATOM      3  C   UNL     1       0.706  -5.158   2.504  0.00  0.00    +0.000 A 
ATOM      4  C   UNL     1       0.775  -5.920   3.672  0.00  0.00    +0.000 A 
ATOM      5  C   UNL     1       1.647  -5.544   4.693  0.00  0.00    +0.000 A 
ATOM      6  C   UNL     1       2.448  -4.411   4.554  0.00  0.00    +0.000 A 
ATOM      7  C   UNL     1       2.376  -3.650   3.385  0.00  0.00    +0.000 A 
ATOM      8  I   UNL     1       1.751  -6.676   6.433  0.00  0.00    +0.000 I 
ENDBRANCH   1   2
BRANCH   1   9
ATOM      9  C   UNL     1       0.252  -2.199   1.149  0.00  0.00    +0.000 C 
BRANCH   9  12
ATOM     10  C   UNL     1      -1.755  -0.412  -1.013  0.00  0.00    +0.000 C 
ATOM     11  C   UNL     1      -0.919  -0.275   0.028  0.00  0.00    +0.000 C 
ATOM     12  C   UNL     1       0.205  -1.278  -0.076  0.00  0.00    +0.000 C 
ATOM     13  C   UNL     1      -0.155  -1.987  -1.359  0.00  0.00    +0.000 C 
ATOM     14  C   UNL     1      -1.282  -1.469  -1.869  0.00  0.00    +0.000 C 
ENDBRANCH   9  12
ENDBRANCH   1   9
TORSDOF 3
