REMARK  Name = *****
REMARK  3 active torsions:
REMARK  status: ('A' for Active; 'I' for Inactive)
REMARK    1  A    between atoms: C_4  and  S_7
REMARK    2  A    between atoms: S_7  and  S_8
REMARK    3  A    between atoms: S_8  and  C_11
REMARK                            x       y       z     vdW  Elec       q    Type
REMARK                         _______ _______ _______ _____ _____    ______ ____
ROOT
ATOM      1  S   UNL     1       3.514  -2.783   0.075  0.00  0.00    +0.000 S 
ATOM      2  O   UNL     1       3.541  -2.498   1.496  0.00  0.00    +0.000 OA
ATOM      3  O   UNL     1       2.729  -3.878  -0.458  0.00  0.00    +0.000 OA
ENDROOT
BRANCH   1   4
ATOM      4  C   UNL     1       5.193  -3.015  -0.464  0.00  0.00    +0.000 A 
ATOM      5  C   UNL     1       6.248  -2.540   0.323  0.00  0.00    +0.000 A 
ATOM      6  C   UNL     1       7.564  -2.745  -0.096  0.00  0.00    +0.000 A 
ATOM      7  C   UNL     1       7.816  -3.427  -1.287  0.00  0.00    +0.000 A 
ATOM      8  C   UNL     1       6.763  -3.913  -2.065  0.00  0.00    +0.000 A 
ATOM      9  C   UNL     1       5.444  -3.712  -1.652  0.00  0.00    +0.000 A 
ATOM     10 CL   UNL     1       9.439  -3.677  -1.799  0.00  0.00    +0.000 Cl
ENDBRANCH   1   4
BRANCH   1  11
ATOM     11  S   UNL     1       2.942  -1.038  -0.914  0.00  0.00    +0.000 S 
BRANCH  11  15
ATOM     12  C   UNL     1      -1.359   0.445  -0.051  0.00  0.00    +0.000 C 
ATOM     13  C   UNL     1      -1.060  -1.026   0.214  0.00  0.00    +0.000 C 
ATOM     14  C   UNL     1       0.244  -1.469  -0.451  0.00  0.00    +0.000 C 
ATOM     15  C   UNL     1       1.416  -0.577  -0.027  0.00  0.00    +0.000 C 
ATOM     16  C   UNL     1       1.111   0.900  -0.309  0.00  0.00    +0.000 C 
ATOM     17  C   UNL     1      -0.192   1.337   0.360  0.00  0.00    +0.000 C 
ENDBRANCH  11  15
ENDBRANCH   1  11
TORSDOF 3
