REMARK  Name = *****
REMARK  5 active torsions:
REMARK  status: ('A' for Active; 'I' for Inactive)
REMARK    1  A    between atoms: C_1  and  C_2
REMARK    2  A    between atoms: C_3  and  O_9
REMARK    3  A    between atoms: C_4  and  C_8
REMARK    4  A    between atoms: O_9  and  C_10
REMARK    5  A    between atoms: C_10  and  C_12
REMARK                            x       y       z     vdW  Elec       q    Type
REMARK                         _______ _______ _______ _____ _____    ______ ____
ROOT
ATOM      1  O   UNL     1       0.885   1.794   1.149  0.00  0.00    +0.000 OA
ENDROOT
BRANCH   1   4
ATOM      2  C   UNL     1       2.789  -0.341   0.878  0.00  0.00    +0.000 C 
ATOM      3  C   UNL     1       1.390  -0.431   0.345  0.00  0.00    +0.000 A 
ATOM      4  C   UNL     1       0.489   0.640   0.457  0.00  0.00    +0.000 A 
ATOM      5  C   UNL     1      -0.827   0.559  -0.026  0.00  0.00    +0.000 A 
ATOM      6  C   UNL     1      -1.218  -0.607  -0.693  0.00  0.00    +0.000 A 
ATOM      7  C   UNL     1      -0.326  -1.670  -0.845  0.00  0.00    +0.000 A 
ATOM      8  C   UNL     1       0.968  -1.583  -0.330  0.00  0.00    +0.000 A 
ATOM      9  C   UNL     1      -1.786   1.704   0.119  0.00  0.00    +0.000 C 
ENDBRANCH   1   4
BRANCH   1  10
ATOM     10  C   UNL     1       1.485   2.743   0.343  0.00  0.00    +0.000 C 
ATOM     11  O   UNL     1       1.702   2.669  -0.857  0.00  0.00    +0.000 OA
BRANCH  10  12
ATOM     12  C   UNL     1       1.868   3.925   1.166  0.00  0.00    +0.000 A 
ATOM     13  C   UNL     1       2.586   4.955   0.543  0.00  0.00    +0.000 A 
ATOM     14  C   UNL     1       2.969   6.086   1.267  0.00  0.00    +0.000 A 
ATOM     15  C   UNL     1       2.636   6.196   2.616  0.00  0.00    +0.000 A 
ATOM     16  C   UNL     1       1.920   5.177   3.244  0.00  0.00    +0.000 A 
ATOM     17  C   UNL     1       1.535   4.043   2.523  0.00  0.00    +0.000 A 
ENDBRANCH  10  12
ENDBRANCH   1  10
TORSDOF 3
