REMARK  Name = *****
REMARK  6 active torsions:
REMARK  status: ('A' for Active; 'I' for Inactive)
REMARK    1  A    between atoms: C_1  and  C_2
REMARK    2  A    between atoms: C_7  and  O_8
REMARK    3  A    between atoms: O_8  and  C_9
REMARK    4  A    between atoms: C_9  and  O_11
REMARK    5  A    between atoms: O_11  and  C_12
REMARK    6  A    between atoms: C_17  and  C_18
REMARK                            x       y       z     vdW  Elec       q    Type
REMARK                         _______ _______ _______ _____ _____    ______ ____
ROOT
ATOM      1  C   UNL     1       1.909  -3.192   0.404  0.00  0.00    +0.000 C 
ATOM      2  O   UNL     1       2.156  -2.596  -0.636  0.00  0.00    +0.000 OA
ENDROOT
BRANCH   1   3
ATOM      3  O   UNL     1       1.329  -2.655   1.545  0.00  0.00    +0.000 OA
BRANCH   3  10
ATOM      4  C   UNL     1       3.340  -0.703   2.265  0.00  0.00    +0.000 C 
ATOM      5  C   UNL     1       1.965  -0.327   1.800  0.00  0.00    +0.000 A 
ATOM      6  C   UNL     1       1.602   1.022   1.686  0.00  0.00    +0.000 A 
ATOM      7  C   UNL     1       0.326   1.381   1.243  0.00  0.00    +0.000 A 
ATOM      8  C   UNL     1      -0.605   0.399   0.905  0.00  0.00    +0.000 A 
ATOM      9  C   UNL     1      -0.259  -0.947   0.999  0.00  0.00    +0.000 A 
ATOM     10  C   UNL     1       1.025  -1.296   1.423  0.00  0.00    +0.000 A 
ENDBRANCH   3  10
ENDBRANCH   1   3
BRANCH   1  11
ATOM     11  O   UNL     1       2.165  -4.530   0.669  0.00  0.00    +0.000 OA
BRANCH  11  12
ATOM     12  C   UNL     1       2.789  -5.197  -0.389  0.00  0.00    +0.000 A 
ATOM     13  C   UNL     1       1.999  -5.705  -1.422  0.00  0.00    +0.000 A 
ATOM     14  C   UNL     1       2.603  -6.409  -2.461  0.00  0.00    +0.000 A 
ATOM     15  C   UNL     1       3.983  -6.613  -2.452  0.00  0.00    +0.000 A 
ATOM     16  C   UNL     1       4.764  -6.119  -1.402  0.00  0.00    +0.000 A 
ATOM     17  C   UNL     1       4.173  -5.413  -0.347  0.00  0.00    +0.000 A 
ATOM     18  C   UNL     1       5.011  -4.884   0.779  0.00  0.00    +0.000 C 
ENDBRANCH  11  12
ENDBRANCH   1  11
TORSDOF 4
