REMARK  Name = *****
REMARK  7 active torsions:
REMARK  status: ('A' for Active; 'I' for Inactive)
REMARK    1  A    between atoms: C_1  and  C_2
REMARK    2  A    between atoms: C_4  and  C_8
REMARK    3  A    between atoms: C_8  and  C_10
REMARK    4  A    between atoms: C_10  and  C_11
REMARK    5  A    between atoms: C_11  and  C_12
REMARK    6  A    between atoms: C_13  and  C_19
REMARK    7  A    between atoms: C_17  and  C_18
REMARK                            x       y       z     vdW  Elec       q    Type
REMARK                         _______ _______ _______ _____ _____    ______ ____
ROOT
ATOM      1  C   UNL     1      -1.096   3.788  -0.021  0.00  0.00    +0.000 C 
ENDROOT
BRANCH   1   2
ATOM      2  C   UNL     1      -1.878   2.489  -0.090  0.00  0.00    +0.000 C 
ATOM      3  O   UNL     1      -3.105   2.466  -0.167  0.00  0.00    +0.000 OA
BRANCH   2   7
ATOM      4  C   UNL     1       2.446  -0.140   0.006  0.00  0.00    +0.000 C 
ATOM      5  C   UNL     1       0.946  -0.088   0.005  0.00  0.00    +0.000 A 
ATOM      6  C   UNL     1       0.277   1.146  -0.029  0.00  0.00    +0.000 A 
ATOM      7  C   UNL     1      -1.123   1.197  -0.063  0.00  0.00    +0.000 A 
ATOM      8  C   UNL     1      -1.852   0.000  -0.076  0.00  0.00    +0.000 A 
ATOM      9  C   UNL     1      -1.193  -1.229  -0.058  0.00  0.00    +0.000 A 
ATOM     10  C   UNL     1       0.200  -1.272  -0.022  0.00  0.00    +0.000 A 
ENDBRANCH   2   7
ENDBRANCH   1   2
BRANCH   1  11
ATOM     11  C   UNL     1      -2.022   5.006  -0.006  0.00  0.00    +0.000 C 
BRANCH  11  12
ATOM     12  C   UNL     1      -1.237   6.304   0.085  0.00  0.00    +0.000 A 
ATOM     13  C   UNL     1      -0.803   6.964  -1.092  0.00  0.00    +0.000 A 
ATOM     14  C   UNL     1      -0.062   8.152  -0.988  0.00  0.00    +0.000 A 
ATOM     15  C   UNL     1       0.258   8.687   0.255  0.00  0.00    +0.000 A 
ATOM     16  C   UNL     1      -0.163   8.044   1.414  0.00  0.00    +0.000 A 
ATOM     17  C   UNL     1      -0.905   6.855   1.349  0.00  0.00    +0.000 A 
ATOM     18  C   UNL     1      -1.357   6.227   2.642  0.00  0.00    +0.000 C 
ATOM     19  C   UNL     1      -1.142   6.456  -2.470  0.00  0.00    +0.000 C 
ENDBRANCH  11  12
ENDBRANCH   1  11
TORSDOF 4
