REMARK  Name = *****
REMARK  2 active torsions:
REMARK  status: ('A' for Active; 'I' for Inactive)
REMARK    1  A    between atoms: C_4  and  C_7
REMARK    2  A    between atoms: C_8  and  C_9
REMARK                            x       y       z     vdW  Elec       q    Type
REMARK                         _______ _______ _______ _____ _____    ______ ____
ROOT
ATOM      1  C   UNL     1      -5.215  -0.238  -0.520  0.00  0.00    +0.000 A 
ATOM      2  C   UNL     1      -5.760   0.860  -1.191  0.00  0.00    +0.000 A 
ATOM      3  C   UNL     1      -7.142   0.972  -1.306  0.00  0.00    +0.000 A 
ATOM      4  N   UNL     1      -8.023   0.076  -0.815  0.00  0.00    +0.000 NA
ATOM      5  C   UNL     1      -7.482  -0.986  -0.185  0.00  0.00    +0.000 A 
ATOM      6  C   UNL     1      -6.115  -1.184  -0.022  0.00  0.00    +0.000 A 
ATOM      7  F   UNL     1      -5.673  -2.280   0.614  0.00  0.00    +0.000 F 
ATOM      8  F   UNL     1      -8.328  -1.904   0.305  0.00  0.00    +0.000 F 
ATOM      9  F   UNL     1      -7.648   2.034  -1.950  0.00  0.00    +0.000 F 
ATOM     10  F   UNL     1      -4.979   1.801  -1.741  0.00  0.00    +0.000 F 
ENDROOT
BRANCH   1  12
ATOM     11  C   UNL     1      -2.823   0.478  -0.325  0.00  0.00    +0.000 C 
ATOM     12  C   UNL     1      -3.768  -0.476  -0.358  0.00  0.00    +0.000 C 
BRANCH  11  16
ATOM     13  C   UNL     1       1.364  -0.222   0.221  0.00  0.00    +0.000 A 
ATOM     14  C   UNL     1       0.614  -1.114  -0.542  0.00  0.00    +0.000 A 
ATOM     15  C   UNL     1      -0.755  -0.902  -0.724  0.00  0.00    +0.000 A 
ATOM     16  C   UNL     1      -1.391   0.199  -0.135  0.00  0.00    +0.000 A 
ATOM     17  C   UNL     1      -0.622   1.098   0.616  0.00  0.00    +0.000 A 
ATOM     18  C   UNL     1       0.747   0.886   0.798  0.00  0.00    +0.000 A 
ENDBRANCH  11  16
ENDBRANCH   1  12
TORSDOF 2
