REMARK  Name = *****
REMARK  1 active torsions:
REMARK  status: ('A' for Active; 'I' for Inactive)
REMARK    1  A    between atoms: C_9  and  C_10
REMARK                            x       y       z     vdW  Elec       q    Type
REMARK                         _______ _______ _______ _____ _____    ______ ____
ROOT
ATOM      1  C   UNL     1       2.310  -0.051   0.177  0.00  0.00    +0.000 C 
ATOM      2  C   UNL     1       2.692   1.097   1.060  0.00  0.00    +0.000 A 
ATOM      3  C   UNL     1       2.312   2.424   0.935  0.00  0.00    +0.000 A 
ATOM      4  C   UNL     1       2.808   3.346   1.858  0.00  0.00    +0.000 A 
ATOM      5  C   UNL     1       3.678   2.936   2.880  0.00  0.00    +0.000 A 
ATOM      6  C   UNL     1       4.063   1.599   2.992  0.00  0.00    +0.000 A 
ATOM      7  C   UNL     1       3.558   0.690   2.078  0.00  0.00    +0.000 A 
ATOM      8  C   UNL     1       3.851  -0.777   1.988  0.00  0.00    +0.000 C 
ATOM      9  C   UNL     1       2.776  -1.283   0.994  0.00  0.00    +0.000 C 
ENDROOT
BRANCH   9  10
ATOM     10  C   UNL     1       1.628  -2.010   1.683  0.00  0.00    +0.000 A 
ATOM     11  C   UNL     1       0.797  -1.377   2.621  0.00  0.00    +0.000 A 
ATOM     12  C   UNL     1      -0.246  -2.073   3.236  0.00  0.00    +0.000 A 
ATOM     13  C   UNL     1      -0.474  -3.411   2.924  0.00  0.00    +0.000 A 
ATOM     14  C   UNL     1       0.341  -4.054   1.997  0.00  0.00    +0.000 A 
ATOM     15  C   UNL     1       1.384  -3.360   1.381  0.00  0.00    +0.000 A 
ENDBRANCH   9  10
TORSDOF 1
