REMARK  Name = *****
REMARK  2 active torsions:
REMARK  status: ('A' for Active; 'I' for Inactive)
REMARK    1  A    between atoms: C_4  and  C_7
REMARK    2  A    between atoms: C_8  and  C_9
REMARK                            x       y       z     vdW  Elec       q    Type
REMARK                         _______ _______ _______ _____ _____    ______ ____
ROOT
ATOM      1  C   UNL     1      -0.550   2.745  -0.381  0.00  0.00    +0.000 C 
ATOM      2  C   UNL     1       0.258   3.817  -0.378  0.00  0.00    +0.000 C 
ENDROOT
BRANCH   2   3
ATOM      3  C   UNL     1      -0.198   5.198  -0.592  0.00  0.00    +0.000 A 
ATOM      4  C   UNL     1      -1.435   5.664  -0.127  0.00  0.00    +0.000 A 
ATOM      5  C   UNL     1      -1.806   6.994  -0.330  0.00  0.00    +0.000 A 
ATOM      6  C   UNL     1      -0.951   7.878  -0.985  0.00  0.00    +0.000 A 
ATOM      7  C   UNL     1       0.288   7.430  -1.436  0.00  0.00    +0.000 A 
ATOM      8  C   UNL     1       0.664   6.099  -1.235  0.00  0.00    +0.000 A 
ATOM      9 CL   UNL     1      -3.332   7.550   0.241  0.00  0.00    +0.000 Cl
ENDBRANCH   2   3
BRANCH   1  13
ATOM     10  C   UNL     1       1.004  -1.286  -0.420  0.00  0.00    +0.000 C 
ATOM     11  C   UNL     1       1.841  -0.156   0.143  0.00  0.00    +0.000 C 
ATOM     12  N   UNL     1       1.265   1.159  -0.082  0.00  0.00    +0.000 NA
ATOM     13  C   UNL     1       0.005   1.379  -0.163  0.00  0.00    +0.000 C 
ATOM     14  S   UNL     1      -1.270   0.185  -0.067  0.00  0.00    +0.000 S 
ATOM     15  C   UNL     1      -0.340  -1.318   0.270  0.00  0.00    +0.000 C 
ENDBRANCH   1  13
TORSDOF 2
