REMARK  Name = *****
REMARK  5 active torsions:
REMARK  status: ('A' for Active; 'I' for Inactive)
REMARK    1  A    between atoms: C_1  and  C_2
REMARK    2  A    between atoms: C_3  and  C_10
REMARK    3  A    between atoms: C_5  and  C_7
REMARK    4  A    between atoms: C_7  and  C_8
REMARK    5  A    between atoms: C_11  and  C_12
REMARK                            x       y       z     vdW  Elec       q    Type
REMARK                         _______ _______ _______ _____ _____    ______ ____
ROOT
ATOM      1  C   UNL     1       0.682  -0.096   0.027  0.00  0.00    +0.000 C 
ATOM      2  C   UNL     1       2.160   0.009   0.021  0.00  0.00    +0.000 A 
ATOM      3  C   UNL     1       2.922   1.158  -0.026  0.00  0.00    +0.000 A 
ATOM      4  O   UNL     1       4.248   0.871  -0.017  0.00  0.00    +0.000 OA
ATOM      5  C   UNL     1       4.357  -0.487   0.036  0.00  0.00    +0.000 A 
ATOM      6  C   UNL     1       3.101  -1.060   0.060  0.00  0.00    +0.000 A 
ENDROOT
BRANCH   3   7
ATOM      7  C   UNL     1       2.567   2.526  -0.079  0.00  0.00    +0.000 C 
ATOM      8  C   UNL     1       2.263   3.688  -0.120  0.00  0.00    +0.000 C 
BRANCH   8   9
ATOM      9  C   UNL     1       1.907   5.072  -0.166  0.00  0.00    +0.000 A 
ATOM     10  C   UNL     1       0.624   5.452  -0.569  0.00  0.00    +0.000 A 
ATOM     11  C   UNL     1       0.278   6.804  -0.611  0.00  0.00    +0.000 A 
ATOM     12  C   UNL     1       1.211   7.776  -0.250  0.00  0.00    +0.000 A 
ATOM     13  C   UNL     1       2.492   7.398   0.153  0.00  0.00    +0.000 A 
ATOM     14  C   UNL     1       2.840   6.046   0.195  0.00  0.00    +0.000 A 
ENDBRANCH   8   9
ENDBRANCH   3   7
BRANCH   5  15
ATOM     15  C   UNL     1       5.735  -1.047   0.057  0.00  0.00    +0.000 C 
BRANCH  15  16
ATOM     16  C   UNL     1       6.204  -1.475   1.421  0.00  0.00    +0.000 C 
ATOM     17  C   UNL     1       6.572  -2.722   1.744  0.00  0.00    +0.000 C 
ENDBRANCH  15  16
ENDBRANCH   5  15
TORSDOF 4
