REMARK  Name = *****
REMARK  4 active torsions:
REMARK  status: ('A' for Active; 'I' for Inactive)
REMARK    1  A    between atoms: C_4  and  S_16
REMARK    2  A    between atoms: C_5  and  C_7
REMARK    3  A    between atoms: N_8  and  C_9
REMARK    4  A    between atoms: C_14  and  S_15
REMARK                            x       y       z     vdW  Elec       q    Type
REMARK                         _______ _______ _______ _____ _____    ______ ____
ROOT
ATOM      1  C   UNL     1       0.670  -2.459   0.413  0.00  0.00    +0.000 C 
ATOM      2  N   UNL     1       1.867  -2.734  -0.012  0.00  0.00    +0.000 NA
ENDROOT
BRANCH   1   7
ATOM      3  C   UNL     1       0.283   1.130  -0.671  0.00  0.00    +0.000 A 
ATOM      4  C   UNL     1      -1.013   1.421  -0.258  0.00  0.00    +0.000 A 
ATOM      5  C   UNL     1      -1.780   0.441   0.376  0.00  0.00    +0.000 A 
ATOM      6  C   UNL     1      -1.264  -0.845   0.604  0.00  0.00    +0.000 A 
ATOM      7  C   UNL     1       0.050  -1.131   0.192  0.00  0.00    +0.000 A 
ATOM      8  C   UNL     1       0.814  -0.140  -0.447  0.00  0.00    +0.000 A 
BRANCH   6   9
ATOM      9  S   UNL     1      -2.334  -2.021   1.421  0.00  0.00    +0.000 S 
ATOM     10  H   UNL     1      -3.533  -1.436   1.685  0.00  0.00    +0.000 HD
ENDBRANCH   6   9
ENDBRANCH   1   7
BRANCH   2  11
ATOM     11  C   UNL     1       2.335  -4.034   0.272  0.00  0.00    +0.000 A 
ATOM     12  C   UNL     1       1.968  -5.092  -0.571  0.00  0.00    +0.000 A 
ATOM     13  C   UNL     1       2.420  -6.389  -0.324  0.00  0.00    +0.000 A 
ATOM     14  C   UNL     1       3.252  -6.640   0.764  0.00  0.00    +0.000 A 
ATOM     15  C   UNL     1       3.641  -5.593   1.602  0.00  0.00    +0.000 A 
ATOM     16  C   UNL     1       3.194  -4.289   1.358  0.00  0.00    +0.000 A 
BRANCH  16  17
ATOM     17  S   UNL     1       3.735  -2.980   2.451  0.00  0.00    +0.000 S 
ATOM     18  H   UNL     1       3.194  -1.799   2.046  0.00  0.00    +0.000 HD
ENDBRANCH  16  17
ENDBRANCH   2  11
TORSDOF 4
