REMARK  Name = *****
REMARK  2 active torsions:
REMARK  status: ('A' for Active; 'I' for Inactive)
REMARK    1  A    between atoms: C_5  and  C_7
REMARK    2  A    between atoms: C_8  and  C_9
REMARK                            x       y       z     vdW  Elec       q    Type
REMARK                         _______ _______ _______ _____ _____    ______ ____
ROOT
ATOM      1  C   UNL     1       0.895  -2.431  -0.037  0.00  0.00    +0.000 C 
ATOM      2  C   UNL     1       2.225  -2.576   0.073  0.00  0.00    +0.000 C 
ENDROOT
BRANCH   2   3
ATOM      3  C   UNL     1       2.918  -3.872   0.027  0.00  0.00    +0.000 A 
ATOM      4  C   UNL     1       2.422  -5.038   0.631  0.00  0.00    +0.000 A 
ATOM      5  C   UNL     1       3.131  -6.240   0.585  0.00  0.00    +0.000 A 
ATOM      6  C   UNL     1       4.362  -6.292  -0.063  0.00  0.00    +0.000 A 
ATOM      7  C   UNL     1       4.868  -5.139  -0.652  0.00  0.00    +0.000 A 
ATOM      8  C   UNL     1       4.166  -3.936  -0.608  0.00  0.00    +0.000 A 
ATOM      9  F   UNL     1       6.055  -5.185  -1.271  0.00  0.00    +0.000 F 
ATOM     10  F   UNL     1       1.250  -5.026   1.285  0.00  0.00    +0.000 F 
ENDBRANCH   2   3
BRANCH   1  15
ATOM     11  C   UNL     1      -1.798   0.108   0.647  0.00  0.00    +0.000 A 
ATOM     12  C   UNL     1      -1.269   1.270   0.086  0.00  0.00    +0.000 A 
ATOM     13  C   UNL     1      -0.017   1.234  -0.523  0.00  0.00    +0.000 A 
ATOM     14  C   UNL     1       0.702   0.039  -0.565  0.00  0.00    +0.000 A 
ATOM     15  C   UNL     1       0.196  -1.136   0.006  0.00  0.00    +0.000 A 
ATOM     16  C   UNL     1      -1.073  -1.087   0.603  0.00  0.00    +0.000 A 
ATOM     17  F   UNL     1       1.893   0.045  -1.183  0.00  0.00    +0.000 F 
ENDBRANCH   1  15
TORSDOF 2
