REMARK  Name = *****
REMARK  5 active torsions:
REMARK  status: ('A' for Active; 'I' for Inactive)
REMARK    1  A    between atoms: C_1  and  C_2
REMARK    2  A    between atoms: C_7  and  C_8
REMARK    3  A    between atoms: C_8  and  N_9
REMARK    4  A    between atoms: N_9  and  C_10
REMARK    5  A    between atoms: C_10  and  C_11
REMARK                            x       y       z     vdW  Elec       q    Type
REMARK                         _______ _______ _______ _____ _____    ______ ____
ROOT
ATOM      1  C   UNL     1       1.965   0.254  -2.072  0.00  0.00    +0.000 C 
ATOM      2  C   UNL     1       2.835   0.020  -0.871  0.00  0.00    +0.000 A 
ATOM      3  C   UNL     1       3.717   1.035  -0.467  0.00  0.00    +0.000 A 
ATOM      4  C   UNL     1       4.549   0.896   0.643  0.00  0.00    +0.000 A 
ATOM      5  C   UNL     1       4.516  -0.280   1.382  0.00  0.00    +0.000 A 
ATOM      6  C   UNL     1       3.652  -1.302   0.998  0.00  0.00    +0.000 A 
ATOM      7  C   UNL     1       2.815  -1.171  -0.119  0.00  0.00    +0.000 A 
ATOM      8  F   UNL     1       3.647  -2.429   1.727  0.00  0.00    +0.000 F 
ATOM      9  F   UNL     1       3.775   2.185  -1.154  0.00  0.00    +0.000 F 
ENDROOT
BRANCH   7  10
ATOM     10  C   UNL     1       1.952  -2.337  -0.416  0.00  0.00    +0.000 C 
BRANCH  10  11
ATOM     11  N   UNL     1       1.226  -2.428  -1.479  0.00  0.00    +0.000 NA
BRANCH  11  12
ATOM     12  C   UNL     1       0.439  -3.667  -1.562  0.00  0.00    +0.000 C 
BRANCH  12  13
ATOM     13  C   UNL     1      -0.828  -3.621  -0.742  0.00  0.00    +0.000 A 
ATOM     14  C   UNL     1      -1.714  -2.541  -0.865  0.00  0.00    +0.000 A 
ATOM     15  C   UNL     1      -2.894  -2.500  -0.121  0.00  0.00    +0.000 A 
ATOM     16  C   UNL     1      -3.204  -3.543   0.750  0.00  0.00    +0.000 A 
ATOM     17  C   UNL     1      -2.335  -4.626   0.876  0.00  0.00    +0.000 A 
ATOM     18  C   UNL     1      -1.154  -4.667   0.132  0.00  0.00    +0.000 A 
ENDBRANCH  12  13
ENDBRANCH  11  12
ENDBRANCH  10  11
ENDBRANCH   7  10
TORSDOF 4
