REMARK  Name = *****
REMARK  3 active torsions:
REMARK  status: ('A' for Active; 'I' for Inactive)
REMARK    1  A    between atoms: C_3  and  C_8
REMARK    2  A    between atoms: C_9  and  C_10
REMARK    3  A    between atoms: C_13  and  C_16
REMARK                            x       y       z     vdW  Elec       q    Type
REMARK                         _______ _______ _______ _____ _____    ______ ____
ROOT
ATOM      1  C   UNL     1      -1.310  -2.679  -0.259  0.00  0.00    +0.000 C 
ATOM      2  C   UNL     1      -1.826  -3.756  -0.388  0.00  0.00    +0.000 C 
ENDROOT
BRANCH   1   5
ATOM      3  C   UNL     1      -0.850   1.008   0.062  0.00  0.00    +0.000 A 
ATOM      4  C   UNL     1      -1.462  -0.242  -0.051  0.00  0.00    +0.000 A 
ATOM      5  C   UNL     1      -0.683  -1.400  -0.128  0.00  0.00    +0.000 A 
ATOM      6  C   UNL     1       0.710  -1.308  -0.091  0.00  0.00    +0.000 A 
ATOM      7  C   UNL     1       1.315  -0.057   0.022  0.00  0.00    +0.000 A 
ATOM      8  C   UNL     1       0.541   1.101   0.097  0.00  0.00    +0.000 A 
ATOM      9 CL   UNL     1       3.031   0.060   0.064  0.00  0.00    +0.000 Cl
ENDBRANCH   1   5
BRANCH   2  10
ATOM     10  C   UNL     1      -2.427  -5.041  -0.565  0.00  0.00    +0.000 A 
ATOM     11  C   UNL     1      -1.755  -6.192  -0.146  0.00  0.00    +0.000 A 
ATOM     12  C   UNL     1      -2.332  -7.451  -0.339  0.00  0.00    +0.000 A 
ATOM     13  C   UNL     1      -3.585  -7.561  -0.952  0.00  0.00    +0.000 A 
ATOM     14  C   UNL     1      -4.259  -6.407  -1.366  0.00  0.00    +0.000 A 
ATOM     15  C   UNL     1      -3.680  -5.149  -1.172  0.00  0.00    +0.000 A 
BRANCH  13  16
ATOM     16  C   UNL     1      -4.174  -8.852  -1.159  0.00  0.00    +0.000 C 
ATOM     17  N   UNL     1      -4.651  -9.897  -1.329  0.00  0.00    +0.000 NA
ENDBRANCH  13  16
ENDBRANCH   2  10
TORSDOF 3
