REMARK  Name = *****
REMARK  6 active torsions:
REMARK  status: ('A' for Active; 'I' for Inactive)
REMARK    1  A    between atoms: C_1  and  O_2
REMARK    2  A    between atoms: O_2  and  C_3
REMARK    3  A    between atoms: C_5  and  O_9
REMARK    4  A    between atoms: O_9  and  C_10
REMARK    5  A    between atoms: C_10  and  O_12
REMARK    6  A    between atoms: O_12  and  C_13
REMARK                            x       y       z     vdW  Elec       q    Type
REMARK                         _______ _______ _______ _____ _____    ______ ____
ROOT
ATOM      1  O   UNL     1       3.449  -2.203  -3.984  0.00  0.00    +0.000 OA
ENDROOT
BRANCH   1   4
ATOM      2  C   UNL     1       3.097  -0.764  -0.589  0.00  0.00    +0.000 A 
ATOM      3  C   UNL     1       2.807  -1.069  -1.918  0.00  0.00    +0.000 A 
ATOM      4  C   UNL     1       3.669  -1.908  -2.631  0.00  0.00    +0.000 A 
ATOM      5  C   UNL     1       4.835  -2.409  -2.055  0.00  0.00    +0.000 A 
ATOM      6  C   UNL     1       5.127  -2.096  -0.731  0.00  0.00    +0.000 A 
ATOM      7  C   UNL     1       4.259  -1.278  -0.003  0.00  0.00    +0.000 A 
BRANCH   2   9
ATOM      8  C   UNL     1       1.081   0.451  -0.260  0.00  0.00    +0.000 C 
ATOM      9  O   UNL     1       2.344   0.026   0.237  0.00  0.00    +0.000 OA
ENDBRANCH   2   9
ENDBRANCH   1   4
BRANCH   1  10
ATOM     10  C   UNL     1       2.259  -2.852  -4.290  0.00  0.00    +0.000 C 
ATOM     11  O   UNL     1       1.386  -3.175  -3.496  0.00  0.00    +0.000 OA
BRANCH  10  12
ATOM     12  O   UNL     1       2.246  -3.062  -5.662  0.00  0.00    +0.000 OA
BRANCH  12  13
ATOM     13  C   UNL     1       1.125  -3.733  -6.164  0.00  0.00    +0.000 A 
ATOM     14  C   UNL     1       0.347  -3.068  -7.110  0.00  0.00    +0.000 A 
ATOM     15  C   UNL     1      -0.746  -3.722  -7.677  0.00  0.00    +0.000 A 
ATOM     16  C   UNL     1      -1.043  -5.035  -7.306  0.00  0.00    +0.000 A 
ATOM     17  C   UNL     1      -0.244  -5.700  -6.373  0.00  0.00    +0.000 A 
ATOM     18  C   UNL     1       0.852  -5.052  -5.804  0.00  0.00    +0.000 A 
ENDBRANCH  12  13
ENDBRANCH  10  12
ENDBRANCH   1  10
TORSDOF 5
