REMARK  Name = *****
REMARK  3 active torsions:
REMARK  status: ('A' for Active; 'I' for Inactive)
REMARK    1  A    between atoms: C_2  and  C_3
REMARK    2  A    between atoms: C_3  and  C_12
REMARK    3  A    between atoms: C_5  and  C_6
REMARK                            x       y       z     vdW  Elec       q    Type
REMARK                         _______ _______ _______ _____ _____    ______ ____
ROOT
ATOM      1  C   UNL     1       3.550   0.125   0.095  0.00  0.00    +0.000 C 
ATOM      2  C   UNL     1       4.365   0.899  -0.932  0.00  0.00    +0.000 C 
ATOM      3  C   UNL     1       4.336  -0.601  -1.016  0.00  0.00    +0.000 C 
ENDROOT
BRANCH   1   4
ATOM      4  C   UNL     1       4.128   0.014   1.514  0.00  0.00    +0.000 A 
ATOM      5  C   UNL     1       4.312  -1.240   2.129  0.00  0.00    +0.000 A 
ATOM      6  C   UNL     1       4.825  -1.346   3.424  0.00  0.00    +0.000 A 
ATOM      7  C   UNL     1       5.154  -0.194   4.124  0.00  0.00    +0.000 A 
ATOM      8  C   UNL     1       4.976   1.059   3.556  0.00  0.00    +0.000 A 
ATOM      9  C   UNL     1       4.463   1.160   2.261  0.00  0.00    +0.000 A 
ATOM     10  F   UNL     1       5.646  -0.293   5.366  0.00  0.00    +0.000 F 
ENDBRANCH   1   4
BRANCH   3  11
ATOM     11  C   UNL     1       3.646  -1.303  -2.166  0.00  0.00    +0.000 A 
ATOM     12  C   UNL     1       3.840  -0.902  -3.499  0.00  0.00    +0.000 A 
ATOM     13  C   UNL     1       3.222  -1.569  -4.560  0.00  0.00    +0.000 A 
ATOM     14  C   UNL     1       2.401  -2.665  -4.310  0.00  0.00    +0.000 A 
ATOM     15  C   UNL     1       2.202  -3.093  -3.001  0.00  0.00    +0.000 A 
ATOM     16  C   UNL     1       2.823  -2.421  -1.945  0.00  0.00    +0.000 A 
ENDBRANCH   3  11
BRANCH   1  18
ATOM     17  C   UNL     1       0.923   0.377  -0.177  0.00  0.00    +0.000 C 
ATOM     18  C   UNL     1       2.112   0.262  -0.056  0.00  0.00    +0.000 C 
ENDBRANCH   1  18
TORSDOF 3
