REMARK  Name = *****
REMARK  3 active torsions:
REMARK  status: ('A' for Active; 'I' for Inactive)
REMARK    1  A    between atoms: C_4  and  O_9
REMARK    2  A    between atoms: O_9  and  C_10
REMARK    3  A    between atoms: C_10  and  C_11
REMARK                            x       y       z     vdW  Elec       q    Type
REMARK                         _______ _______ _______ _____ _____    ______ ____
ROOT
ATOM      1  C   UNL     1      -1.567   0.471   0.328  0.00  0.00    +0.000 C 
ATOM      2  C   UNL     1      -0.611   1.442  -0.364  0.00  0.00    +0.000 C 
ATOM      3  C   UNL     1       0.772   1.475   0.282  0.00  0.00    +0.000 C 
ATOM      4  C   UNL     1       1.729   0.310  -0.030  0.00  0.00    +0.000 C 
ATOM      5  C   UNL     1       1.070  -0.935  -0.646  0.00  0.00    +0.000 C 
ATOM      6  C   UNL     1      -0.014  -1.587   0.209  0.00  0.00    +0.000 C 
ATOM      7  C   UNL     1      -1.396  -0.993  -0.064  0.00  0.00    +0.000 C 
ATOM      8 BR   UNL     1       2.479  -2.278  -1.018  0.00  0.00    +0.000 Br
ENDROOT
BRANCH   4   9
ATOM      9  O   UNL     1       2.384  -0.060   1.196  0.00  0.00    +0.000 OA
BRANCH   9  10
ATOM     10  C   UNL     1       3.489   0.783   1.525  0.00  0.00    +0.000 C 
BRANCH  10  11
ATOM     11  C   UNL     1       4.115   0.305   2.811  0.00  0.00    +0.000 A 
ATOM     12  C   UNL     1       4.429  -1.051   2.990  0.00  0.00    +0.000 A 
ATOM     13  C   UNL     1       5.039  -1.490   4.166  0.00  0.00    +0.000 A 
ATOM     14  C   UNL     1       5.348  -0.579   5.173  0.00  0.00    +0.000 A 
ATOM     15  C   UNL     1       5.049   0.772   5.005  0.00  0.00    +0.000 A 
ATOM     16  C   UNL     1       4.438   1.213   3.829  0.00  0.00    +0.000 A 
ENDBRANCH  10  11
ENDBRANCH   9  10
ENDBRANCH   4   9
TORSDOF 3
