REMARK  Name = *****
REMARK  3 active torsions:
REMARK  status: ('A' for Active; 'I' for Inactive)
REMARK    1  A    between atoms: C_1  and  C_2
REMARK    2  A    between atoms: C_7  and  N_8
REMARK    3  A    between atoms: C_9  and  C_10
REMARK                            x       y       z     vdW  Elec       q    Type
REMARK                         _______ _______ _______ _____ _____    ______ ____
ROOT
ATOM      1  N   UNL     1       1.205  -2.336  -0.226  0.00  0.00    +0.000 NA
ATOM      2  C   UNL     1       1.927  -2.718   0.784  0.00  0.00    +0.000 C 
ENDROOT
BRANCH   1   9
ATOM      3  C   UNL     1       2.399   0.210  -0.970  0.00  0.00    +0.000 C 
ATOM      4  C   UNL     1       1.014   0.102  -0.396  0.00  0.00    +0.000 A 
ATOM      5  C   UNL     1       0.250   1.261  -0.189  0.00  0.00    +0.000 A 
ATOM      6  C   UNL     1      -1.039   1.177   0.339  0.00  0.00    +0.000 A 
ATOM      7  C   UNL     1      -1.578  -0.064   0.665  0.00  0.00    +0.000 A 
ATOM      8  C   UNL     1      -0.823  -1.221   0.471  0.00  0.00    +0.000 A 
ATOM      9  C   UNL     1       0.477  -1.148  -0.042  0.00  0.00    +0.000 A 
ENDBRANCH   1   9
BRANCH   2  10
ATOM     10  C   UNL     1       2.747  -3.948   0.730  0.00  0.00    +0.000 A 
ATOM     11  C   UNL     1       2.711  -4.734  -0.433  0.00  0.00    +0.000 A 
ATOM     12  C   UNL     1       3.470  -5.903  -0.521  0.00  0.00    +0.000 A 
ATOM     13  C   UNL     1       4.270  -6.295   0.550  0.00  0.00    +0.000 A 
ATOM     14  C   UNL     1       4.312  -5.518   1.709  0.00  0.00    +0.000 A 
ATOM     15  C   UNL     1       3.553  -4.345   1.804  0.00  0.00    +0.000 A 
ATOM     16 CL   UNL     1       3.671  -3.448   3.276  0.00  0.00    +0.000 Cl
ENDBRANCH   2  10
TORSDOF 2
