REMARK  Name = *****
REMARK  4 active torsions:
REMARK  status: ('A' for Active; 'I' for Inactive)
REMARK    1  A    between atoms: C_1  and  C_2
REMARK    2  A    between atoms: C_4  and  C_15
REMARK    3  A    between atoms: C_5  and  C_8
REMARK    4  A    between atoms: C_9  and  C_10
REMARK                            x       y       z     vdW  Elec       q    Type
REMARK                         _______ _______ _______ _____ _____    ______ ____
ROOT
ATOM      1  C   UNL     1       2.510   0.950  -0.205  0.00  0.00    +0.000 C 
ATOM      2  C   UNL     1       1.199   0.231  -0.089  0.00  0.00    +0.000 A 
ATOM      3  C   UNL     1      -0.015   0.920  -0.202  0.00  0.00    +0.000 A 
ATOM      4  C   UNL     1      -1.247   0.252  -0.087  0.00  0.00    +0.000 A 
ATOM      5  C   UNL     1      -1.258  -1.136   0.152  0.00  0.00    +0.000 A 
ATOM      6  C   UNL     1      -0.039  -1.819   0.277  0.00  0.00    +0.000 A 
ATOM      7  C   UNL     1       1.177  -1.144   0.155  0.00  0.00    +0.000 A 
ATOM      8  C   UNL     1      -2.521   1.043  -0.219  0.00  0.00    +0.000 C 
ENDROOT
BRANCH   5   9
ATOM      9  C   UNL     1      -2.519  -1.872   0.322  0.00  0.00    +0.000 C 
ATOM     10  C   UNL     1      -2.820  -2.979  -0.379  0.00  0.00    +0.000 C 
BRANCH  10  11
ATOM     11  C   UNL     1      -4.098  -3.744  -0.223  0.00  0.00    +0.000 C 
ATOM     12  S   UNL     1      -3.713  -5.442   0.302  0.00  0.00    +0.000 S 
ATOM     13  C   UNL     1      -4.705  -6.288  -0.954  0.00  0.00    +0.000 C 
ATOM     14  C   UNL     1      -4.623  -5.479  -2.232  0.00  0.00    +0.000 C 
ATOM     15  S   UNL     1      -4.990  -3.760  -1.805  0.00  0.00    +0.000 S 
ENDBRANCH  10  11
ENDBRANCH   5   9
TORSDOF 2
