REMARK  Name = *****
REMARK  3 active torsions:
REMARK  status: ('A' for Active; 'I' for Inactive)
REMARK    1  A    between atoms: C_4  and  C_7
REMARK    2  A    between atoms: C_8  and  C_9
REMARK    3  A    between atoms: C_12  and  C_15
REMARK                            x       y       z     vdW  Elec       q    Type
REMARK                         _______ _______ _______ _____ _____    ______ ____
ROOT
ATOM      1  C   UNL     1       2.795  -0.659  -0.356  0.00  0.00    +0.000 C 
ATOM      2  C   UNL     1       3.879  -0.859   0.411  0.00  0.00    +0.000 C 
ENDROOT
BRANCH   1   6
ATOM      3  C   UNL     1      -1.439   0.298  -0.182  0.00  0.00    +0.000 C 
ATOM      4  C   UNL     1      -0.988  -1.076   0.304  0.00  0.00    +0.000 C 
ATOM      5  C   UNL     1       0.417  -1.416  -0.189  0.00  0.00    +0.000 C 
ATOM      6  C   UNL     1       1.430  -0.329   0.200  0.00  0.00    +0.000 C 
ATOM      7  C   UNL     1       0.970   1.049  -0.299  0.00  0.00    +0.000 C 
ATOM      8  C   UNL     1      -0.436   1.384   0.195  0.00  0.00    +0.000 C 
ENDBRANCH   1   6
BRANCH   2   9
ATOM      9  C   UNL     1       5.212  -1.189  -0.111  0.00  0.00    +0.000 A 
ATOM     10  C   UNL     1       5.712  -0.630  -1.294  0.00  0.00    +0.000 A 
ATOM     11  C   UNL     1       7.000  -0.945  -1.743  0.00  0.00    +0.000 A 
ATOM     12  C   UNL     1       7.807  -1.815  -1.005  0.00  0.00    +0.000 A 
ATOM     13  C   UNL     1       7.323  -2.364   0.185  0.00  0.00    +0.000 A 
ATOM     14  C   UNL     1       6.035  -2.047   0.631  0.00  0.00    +0.000 A 
BRANCH  12  15
ATOM     15  C   UNL     1       9.127  -2.137  -1.463  0.00  0.00    +0.000 C 
ATOM     16  N   UNL     1      10.195  -2.398  -1.834  0.00  0.00    +0.000 NA
ENDBRANCH  12  15
ENDBRANCH   2   9
TORSDOF 3
