REMARK  Name = *****
REMARK  3 active torsions:
REMARK  status: ('A' for Active; 'I' for Inactive)
REMARK    1  A    between atoms: C_4  and  C_7
REMARK    2  A    between atoms: C_8  and  C_9
REMARK    3  A    between atoms: C_10  and  C_16
REMARK                            x       y       z     vdW  Elec       q    Type
REMARK                         _______ _______ _______ _____ _____    ______ ____
ROOT
ATOM      1  C   UNL     1       5.499   0.333  -0.412  0.00  0.00    +0.000 A 
ATOM      2  C   UNL     1       6.143   1.578  -0.439  0.00  0.00    +0.000 A 
ATOM      3  C   UNL     1       7.544   1.637  -0.526  0.00  0.00    +0.000 A 
ATOM      4  C   UNL     1       8.301   0.465  -0.586  0.00  0.00    +0.000 A 
ATOM      5  C   UNL     1       7.662  -0.771  -0.560  0.00  0.00    +0.000 A 
ATOM      6  C   UNL     1       6.272  -0.830  -0.474  0.00  0.00    +0.000 A 
ATOM      7  F   UNL     1       5.686  -2.037  -0.450  0.00  0.00    +0.000 F 
ENDROOT
BRANCH   1   9
ATOM      8  C   UNL     1       2.876   0.152  -0.246  0.00  0.00    +0.000 C 
ATOM      9  C   UNL     1       4.072   0.225  -0.323  0.00  0.00    +0.000 C 
BRANCH   8  13
ATOM     10  C   UNL     1      -1.332  -0.058   0.032  0.00  0.00    +0.000 A 
ATOM     11  C   UNL     1      -0.697   1.183  -0.013  0.00  0.00    +0.000 A 
ATOM     12  C   UNL     1       0.695   1.253  -0.106  0.00  0.00    +0.000 A 
ATOM     13  C   UNL     1       1.451   0.080  -0.153  0.00  0.00    +0.000 A 
ATOM     14  C   UNL     1       0.814  -1.162  -0.107  0.00  0.00    +0.000 A 
ATOM     15  C   UNL     1      -0.578  -1.230  -0.014  0.00  0.00    +0.000 A 
ENDBRANCH   8  13
ENDBRANCH   1   9
BRANCH   2  16
ATOM     16  C   UNL     1       5.402   2.806  -0.379  0.00  0.00    +0.000 C 
ATOM     17  N   UNL     1       4.825   3.812  -0.333  0.00  0.00    +0.000 NA
ENDBRANCH   2  16
TORSDOF 3
