REMARK  Name = *****
REMARK  4 active torsions:
REMARK  status: ('A' for Active; 'I' for Inactive)
REMARK    1  A    between atoms: C_4  and  C_7
REMARK    2  A    between atoms: C_7  and  O_9
REMARK    3  A    between atoms: O_9  and  C_10
REMARK    4  A    between atoms: C_15  and  S_16
REMARK                            x       y       z     vdW  Elec       q    Type
REMARK                         _______ _______ _______ _____ _____    ______ ____
ROOT
ATOM      1  O   UNL     1      -3.219  -1.076   1.132  0.00  0.00    +0.000 OA
ENDROOT
BRANCH   1   2
ATOM      2  C   UNL     1      -4.564  -1.054   1.522  0.00  0.00    +0.000 A 
ATOM      3  C   UNL     1      -4.843  -0.636   2.826  0.00  0.00    +0.000 A 
ATOM      4  C   UNL     1      -6.159  -0.647   3.282  0.00  0.00    +0.000 A 
ATOM      5  C   UNL     1      -7.183  -1.087   2.443  0.00  0.00    +0.000 A 
ATOM      6  C   UNL     1      -6.894  -1.521   1.145  0.00  0.00    +0.000 A 
ATOM      7  C   UNL     1      -5.578  -1.514   0.671  0.00  0.00    +0.000 A 
BRANCH   7   8
ATOM      8  S   UNL     1      -5.260  -2.082  -0.988  0.00  0.00    +0.000 S 
ATOM      9  H   UNL     1      -3.928  -1.994  -1.249  0.00  0.00    +0.000 HD
ENDBRANCH   7   8
ENDBRANCH   1   2
BRANCH   1  10
ATOM     10  C   UNL     1      -2.847   0.032   0.396  0.00  0.00    +0.000 C 
ATOM     11  O   UNL     1      -3.552   0.979   0.081  0.00  0.00    +0.000 OA
BRANCH  10  15
ATOM     12  C   UNL     1       1.289  -0.162  -0.722  0.00  0.00    +0.000 A 
ATOM     13  C   UNL     1       0.688  -1.279  -0.144  0.00  0.00    +0.000 A 
ATOM     14  C   UNL     1      -0.658  -1.238   0.229  0.00  0.00    +0.000 A 
ATOM     15  C   UNL     1      -1.408  -0.072   0.025  0.00  0.00    +0.000 A 
ATOM     16  C   UNL     1      -0.797   1.046  -0.562  0.00  0.00    +0.000 A 
ATOM     17  C   UNL     1       0.548   1.000  -0.932  0.00  0.00    +0.000 A 
ENDBRANCH  10  15
ENDBRANCH   1  10
TORSDOF 4
