REMARK  Name = *****
REMARK  2 active torsions:
REMARK  status: ('A' for Active; 'I' for Inactive)
REMARK    1  A    between atoms: C_3  and  C_8
REMARK    2  A    between atoms: C_9  and  C_10
REMARK                            x       y       z     vdW  Elec       q    Type
REMARK                         _______ _______ _______ _____ _____    ______ ____
ROOT
ATOM      1  C   UNL     1      -1.368  -2.634  -0.323  0.00  0.00    +0.000 C 
ATOM      2  C   UNL     1      -1.914  -3.695  -0.461  0.00  0.00    +0.000 C 
ENDROOT
BRANCH   1   5
ATOM      3  C   UNL     1      -0.815   1.034   0.082  0.00  0.00    +0.000 A 
ATOM      4  C   UNL     1      -1.457  -0.198  -0.074  0.00  0.00    +0.000 A 
ATOM      5  C   UNL     1      -0.708  -1.376  -0.160  0.00  0.00    +0.000 A 
ATOM      6  C   UNL     1       0.684  -1.323  -0.089  0.00  0.00    +0.000 A 
ATOM      7  C   UNL     1       1.312  -0.092   0.066  0.00  0.00    +0.000 A 
ATOM      8  C   UNL     1       0.576   1.086   0.152  0.00  0.00    +0.000 A 
ATOM      9  F   UNL     1       2.649  -0.038   0.133  0.00  0.00    +0.000 F 
ENDBRANCH   1   5
BRANCH   2  10
ATOM     10  C   UNL     1      -2.561  -4.957  -0.629  0.00  0.00    +0.000 A 
ATOM     11  N   UNL     1      -1.858  -6.018  -0.176  0.00  0.00    +0.000 NA
ATOM     12  C   UNL     1      -2.428  -7.234  -0.315  0.00  0.00    +0.000 A 
ATOM     13  C   UNL     1      -3.670  -7.436  -0.886  0.00  0.00    +0.000 A 
ATOM     14  C   UNL     1      -4.359  -6.318  -1.338  0.00  0.00    +0.000 A 
ATOM     15  C   UNL     1      -3.809  -5.050  -1.215  0.00  0.00    +0.000 A 
ATOM     16 CL   UNL     1      -5.911  -6.507  -2.059  0.00  0.00    +0.000 Cl
ENDBRANCH   2  10
TORSDOF 2
