REMARK  Name = *****
REMARK  4 active torsions:
REMARK  status: ('A' for Active; 'I' for Inactive)
REMARK    1  A    between atoms: C_1  and  C_2
REMARK    2  A    between atoms: C_4  and  O_8
REMARK    3  A    between atoms: O_8  and  C_9
REMARK    4  A    between atoms: C_9  and  C_11
REMARK                            x       y       z     vdW  Elec       q    Type
REMARK                         _______ _______ _______ _____ _____    ______ ____
ROOT
ATOM      1  O   UNL     1      -1.405   1.543  -1.615  0.00  0.00    +0.000 OA
ENDROOT
BRANCH   1   5
ATOM      2  C   UNL     1       2.552  -0.090   0.191  0.00  0.00    +0.000 C 
ATOM      3  C   UNL     1       1.060  -0.004   0.060  0.00  0.00    +0.000 C 
ATOM      4  C   UNL     1       0.426   1.167  -0.138  0.00  0.00    +0.000 C 
ATOM      5  C   UNL     1      -1.068   1.319  -0.235  0.00  0.00    +0.000 C 
ATOM      6  C   UNL     1      -1.813   0.059   0.230  0.00  0.00    +0.000 C 
ATOM      7  C   UNL     1      -1.149  -1.210  -0.301  0.00  0.00    +0.000 C 
ATOM      8  C   UNL     1       0.308  -1.309   0.160  0.00  0.00    +0.000 C 
ENDBRANCH   1   5
BRANCH   1   9
ATOM      9  C   UNL     1      -1.415   2.833  -2.028  0.00  0.00    +0.000 C 
ATOM     10  O   UNL     1      -1.177   3.812  -1.339  0.00  0.00    +0.000 OA
BRANCH   9  11
ATOM     11  C   UNL     1      -1.763   2.912  -3.473  0.00  0.00    +0.000 A 
ATOM     12  C   UNL     1      -1.835   4.179  -4.068  0.00  0.00    +0.000 A 
ATOM     13  C   UNL     1      -2.158   4.306  -5.421  0.00  0.00    +0.000 A 
ATOM     14  C   UNL     1      -2.410   3.169  -6.186  0.00  0.00    +0.000 A 
ATOM     15  C   UNL     1      -2.339   1.904  -5.603  0.00  0.00    +0.000 A 
ATOM     16  C   UNL     1      -2.017   1.773  -4.250  0.00  0.00    +0.000 A 
ENDBRANCH   9  11
ENDBRANCH   1   9
TORSDOF 3
