REMARK  Name = *****
REMARK  3 active torsions:
REMARK  status: ('A' for Active; 'I' for Inactive)
REMARK    1  A    between atoms: C_4  and  C_6
REMARK    2  A    between atoms: C_6  and  C_7
REMARK    3  A    between atoms: C_8  and  C_9
REMARK                            x       y       z     vdW  Elec       q    Type
REMARK                         _______ _______ _______ _____ _____    ______ ____
ROOT
ATOM      1  C   UNL     1       1.255  -3.404   0.050  0.00  0.00    +0.000 C 
ATOM      2  C   UNL     1       1.246  -4.740  -0.083  0.00  0.00    +0.000 C 
ENDROOT
BRANCH   2   3
ATOM      3  C   UNL     1       2.425  -5.535   0.027  0.00  0.00    +0.000 A 
ATOM      4  C   UNL     1       3.731  -5.195   0.345  0.00  0.00    +0.000 A 
ATOM      5  C   UNL     1       4.622  -6.308   0.346  0.00  0.00    +0.000 A 
ATOM      6  C   UNL     1       3.978  -7.479   0.029  0.00  0.00    +0.000 A 
ATOM      7  S   UNL     1       2.315  -7.235  -0.263  0.00  0.00    +0.000 S 
ENDBRANCH   2   3
BRANCH   1   8
ATOM      8  C   UNL     1       0.023  -2.545  -0.063  0.00  0.00    +0.000 C 
BRANCH   8  12
ATOM      9  C   UNL     1      -1.035  -1.183   3.314  0.00  0.00    +0.000 A 
ATOM     10  C   UNL     1      -0.513   0.013   2.877  0.00  0.00    +0.000 A 
ATOM     11  S   UNL     1       0.129  -0.106   1.296  0.00  0.00    +0.000 S 
ATOM     12  C   UNL     1      -0.290  -1.764   1.183  0.00  0.00    +0.000 A 
ATOM     13  C   UNL     1      -0.906  -2.211   2.336  0.00  0.00    +0.000 A 
ENDBRANCH   8  12
ENDBRANCH   1   8
TORSDOF 3
