REMARK  Name = *****
REMARK  5 active torsions:
REMARK  status: ('A' for Active; 'I' for Inactive)
REMARK    1  A    between atoms: C_1  and  C_2
REMARK    2  A    between atoms: C_4  and  C_8
REMARK    3  A    between atoms: C_8  and  O_10
REMARK    4  A    between atoms: O_10  and  C_11
REMARK    5  A    between atoms: C_12  and  C_18
REMARK                            x       y       z     vdW  Elec       q    Type
REMARK                         _______ _______ _______ _____ _____    ______ ____
ROOT
ATOM      1  C   UNL     1      -1.834   2.305   0.633  0.00  0.00    +0.000 C 
ATOM      2  O   UNL     1      -3.008   2.421   0.313  0.00  0.00    +0.000 OA
ENDROOT
BRANCH   1   6
ATOM      3  C   UNL     1       2.626  -0.069   0.368  0.00  0.00    +0.000 C 
ATOM      4  C   UNL     1       1.180   0.048  -0.017  0.00  0.00    +0.000 A 
ATOM      5  C   UNL     1       0.398   1.103   0.476  0.00  0.00    +0.000 A 
ATOM      6  C   UNL     1      -0.962   1.199   0.145  0.00  0.00    +0.000 A 
ATOM      7  C   UNL     1      -1.539   0.223  -0.677  0.00  0.00    +0.000 A 
ATOM      8  C   UNL     1      -0.770  -0.838  -1.157  0.00  0.00    +0.000 A 
ATOM      9  C   UNL     1       0.581  -0.928  -0.823  0.00  0.00    +0.000 A 
ENDBRANCH   1   6
BRANCH   1  10
ATOM     10  O   UNL     1      -1.112   3.134   1.471  0.00  0.00    +0.000 OA
BRANCH  10  11
ATOM     11  C   UNL     1      -1.851   4.213   1.969  0.00  0.00    +0.000 A 
ATOM     12  C   UNL     1      -1.636   5.492   1.438  0.00  0.00    +0.000 A 
ATOM     13  C   UNL     1      -2.356   6.564   1.982  0.00  0.00    +0.000 A 
ATOM     14  C   UNL     1      -3.244   6.352   3.041  0.00  0.00    +0.000 A 
ATOM     15  C   UNL     1      -3.428   5.077   3.573  0.00  0.00    +0.000 A 
ATOM     16  C   UNL     1      -2.722   3.999   3.040  0.00  0.00    +0.000 A 
ATOM     17 CL   UNL     1      -4.115   7.683   3.700  0.00  0.00    +0.000 Cl
ATOM     18  C   UNL     1      -0.683   5.712   0.301  0.00  0.00    +0.000 C 
ENDBRANCH  10  11
ENDBRANCH   1  10
TORSDOF 3
