REMARK  Name = *****
REMARK  3 active torsions:
REMARK  status: ('A' for Active; 'I' for Inactive)
REMARK    1  A    between atoms: C_1  and  C_2
REMARK    2  A    between atoms: C_3  and  C_12
REMARK    3  A    between atoms: N_4  and  C_5
REMARK                            x       y       z     vdW  Elec       q    Type
REMARK                         _______ _______ _______ _____ _____    ______ ____
ROOT
ATOM      1  C   UNL     1       3.041  -0.115   1.454  0.00  0.00    +0.000 C 
ATOM      2  C   UNL     1       2.866  -0.336  -0.008  0.00  0.00    +0.000 C 
ATOM      3  C   UNL     1       3.692   0.396  -1.066  0.00  0.00    +0.000 C 
ATOM      4  N   UNL     1       3.918  -1.018  -0.741  0.00  0.00    +0.000 N 
ENDROOT
BRANCH   4   5
ATOM      5  C   UNL     1       3.575  -2.014  -1.685  0.00  0.00    +0.000 A 
ATOM      6  C   UNL     1       4.052  -1.952  -3.002  0.00  0.00    +0.000 A 
ATOM      7  C   UNL     1       3.744  -2.959  -3.922  0.00  0.00    +0.000 A 
ATOM      8  C   UNL     1       2.971  -4.046  -3.523  0.00  0.00    +0.000 A 
ATOM      9  C   UNL     1       2.512  -4.140  -2.212  0.00  0.00    +0.000 A 
ATOM     10  C   UNL     1       2.822  -3.131  -1.296  0.00  0.00    +0.000 A 
ATOM     11 CL   UNL     1       2.593  -5.287  -4.653  0.00  0.00    +0.000 Cl
ENDBRANCH   4   5
BRANCH   3  12
ATOM     12  C   UNL     1       4.753   1.396  -0.682  0.00  0.00    +0.000 A 
ATOM     13  C   UNL     1       6.124   1.097  -0.764  0.00  0.00    +0.000 A 
ATOM     14  C   UNL     1       7.099   2.037  -0.421  0.00  0.00    +0.000 A 
ATOM     15  C   UNL     1       6.721   3.305   0.009  0.00  0.00    +0.000 A 
ATOM     16  C   UNL     1       5.371   3.632   0.095  0.00  0.00    +0.000 A 
ATOM     17  C   UNL     1       4.401   2.687  -0.250  0.00  0.00    +0.000 A 
ENDBRANCH   3  12
TORSDOF 2
