REMARK  Name = *****
REMARK  4 active torsions:
REMARK  status: ('A' for Active; 'I' for Inactive)
REMARK    1  A    between atoms: C_3  and  C_4
REMARK    2  A    between atoms: C_3  and  C_11
REMARK    3  A    between atoms: C_4  and  C_5
REMARK    4  A    between atoms: C_11  and  C_12
REMARK                            x       y       z     vdW  Elec       q    Type
REMARK                         _______ _______ _______ _____ _____    ______ ____
ROOT
ATOM      1  C   UNL     1       0.617  -0.535  -0.525  0.00  0.00    +0.000 C 
ATOM      2  C   UNL     1       1.895  -0.354  -0.390  0.00  0.00    +0.000 C 
ATOM      3  C   UNL     1       3.182  -0.172  -0.251  0.00  0.00    +0.000 C 
ENDROOT
BRANCH   3   4
ATOM      4  C   UNL     1       3.738   0.992   0.546  0.00  0.00    +0.000 C 
BRANCH   4   5
ATOM      5  C   UNL     1       4.445   2.026  -0.302  0.00  0.00    +0.000 A 
ATOM      6  C   UNL     1       3.736   2.776  -1.252  0.00  0.00    +0.000 A 
ATOM      7  C   UNL     1       4.389   3.729  -2.035  0.00  0.00    +0.000 A 
ATOM      8  C   UNL     1       5.755   3.947  -1.873  0.00  0.00    +0.000 A 
ATOM      9  C   UNL     1       6.470   3.213  -0.928  0.00  0.00    +0.000 A 
ATOM     10  C   UNL     1       5.819   2.258  -0.145  0.00  0.00    +0.000 A 
ENDBRANCH   4   5
ENDBRANCH   3   4
BRANCH   3  11
ATOM     11  C   UNL     1       4.190  -1.119  -0.868  0.00  0.00    +0.000 C 
BRANCH  11  12
ATOM     12  C   UNL     1       4.862  -2.024   0.141  0.00  0.00    +0.000 A 
ATOM     13  C   UNL     1       4.145  -3.064   0.751  0.00  0.00    +0.000 A 
ATOM     14  C   UNL     1       4.762  -3.897   1.686  0.00  0.00    +0.000 A 
ATOM     15  C   UNL     1       6.100  -3.699   2.021  0.00  0.00    +0.000 A 
ATOM     16  C   UNL     1       6.823  -2.668   1.421  0.00  0.00    +0.000 A 
ATOM     17  C   UNL     1       6.208  -1.835   0.486  0.00  0.00    +0.000 A 
ENDBRANCH  11  12
ENDBRANCH   3  11
TORSDOF 4
