REMARK  Name = *****
REMARK  4 active torsions:
REMARK  status: ('A' for Active; 'I' for Inactive)
REMARK    1  A    between atoms: C_4  and  C_7
REMARK    2  A    between atoms: C_7  and  C_8
REMARK    3  A    between atoms: C_8  and  S_9
REMARK    4  A    between atoms: S_9  and  C_10
REMARK                            x       y       z     vdW  Elec       q    Type
REMARK                         _______ _______ _______ _____ _____    ______ ____
ROOT
ATOM      1  C   UNL     1      -2.582   0.579  -0.218  0.00  0.00    +0.000 C 
ATOM      2 CL   UNL     1      -3.195   1.308   1.305  0.00  0.00    +0.000 Cl
ENDROOT
BRANCH   1   6
ATOM      3  C   UNL     1      -4.081  -3.467  -0.594  0.00  0.00    +0.000 A 
ATOM      4  C   UNL     1      -2.718  -3.233  -0.425  0.00  0.00    +0.000 A 
ATOM      5  C   UNL     1      -2.242  -1.927  -0.299  0.00  0.00    +0.000 A 
ATOM      6  C   UNL     1      -3.124  -0.835  -0.342  0.00  0.00    +0.000 A 
ATOM      7  C   UNL     1      -4.497  -1.088  -0.507  0.00  0.00    +0.000 A 
ATOM      8  C   UNL     1      -4.970  -2.396  -0.633  0.00  0.00    +0.000 A 
ENDBRANCH   1   6
BRANCH   1   9
ATOM      9  C   UNL     1      -2.941   1.440  -1.441  0.00  0.00    +0.000 C 
BRANCH   9  10
ATOM     10  S   UNL     1      -1.990   3.008  -1.491  0.00  0.00    +0.000 S 
BRANCH  10  11
ATOM     11  C   UNL     1      -2.845   3.841  -2.817  0.00  0.00    +0.000 A 
ATOM     12  C   UNL     1      -2.931   3.286  -4.097  0.00  0.00    +0.000 A 
ATOM     13  C   UNL     1      -3.601   3.967  -5.117  0.00  0.00    +0.000 A 
ATOM     14  C   UNL     1      -4.181   5.209  -4.863  0.00  0.00    +0.000 A 
ATOM     15  C   UNL     1      -4.086   5.774  -3.593  0.00  0.00    +0.000 A 
ATOM     16  C   UNL     1      -3.416   5.094  -2.574  0.00  0.00    +0.000 A 
ENDBRANCH  10  11
ENDBRANCH   9  10
ENDBRANCH   1   9
TORSDOF 4
