REMARK  Name = *****
REMARK  6 active torsions:
REMARK  status: ('A' for Active; 'I' for Inactive)
REMARK    1  A    between atoms: C_1  and  C_2
REMARK    2  A    between atoms: C_5  and  C_8
REMARK    3  A    between atoms: C_9  and  C_10
REMARK    4  A    between atoms: C_9  and  C_12
REMARK    5  A    between atoms: C_15  and  O_18
REMARK    6  A    between atoms: O_18  and  C_19
REMARK                            x       y       z     vdW  Elec       q    Type
REMARK                         _______ _______ _______ _____ _____    ______ ____
ROOT
ATOM      1  C   UNL     1      -3.231   0.226   0.057  0.00  0.00    +0.000 C 
ATOM      2  C   UNL     1      -3.955   1.294  -0.337  0.00  0.00    +0.000 C 
ENDROOT
BRANCH   1   7
ATOM      3  C   UNL     1       2.530  -0.264   0.163  0.00  0.00    +0.000 C 
ATOM      4  C   UNL     1       1.039  -0.108   0.134  0.00  0.00    +0.000 A 
ATOM      5  C   UNL     1       0.285  -0.260   1.303  0.00  0.00    +0.000 A 
ATOM      6  C   UNL     1      -1.107  -0.141   1.269  0.00  0.00    +0.000 A 
ATOM      7  C   UNL     1      -1.766   0.130   0.066  0.00  0.00    +0.000 A 
ATOM      8  C   UNL     1      -1.016   0.254  -1.109  0.00  0.00    +0.000 A 
ATOM      9  C   UNL     1       0.376   0.135  -1.074  0.00  0.00    +0.000 A 
ENDBRANCH   1   7
BRANCH   2  10
ATOM     10  C   UNL     1      -5.431   1.220  -0.262  0.00  0.00    +0.000 A 
ATOM     11  C   UNL     1      -6.157   2.185   0.452  0.00  0.00    +0.000 A 
ATOM     12  C   UNL     1      -7.555   2.127   0.520  0.00  0.00    +0.000 A 
ATOM     13  C   UNL     1      -8.248   1.106  -0.128  0.00  0.00    +0.000 A 
ATOM     14  C   UNL     1      -7.531   0.144  -0.842  0.00  0.00    +0.000 A 
ATOM     15  C   UNL     1      -6.136   0.199  -0.913  0.00  0.00    +0.000 A 
BRANCH  13  16
ATOM     16  O   UNL     1      -9.604   0.934  -0.141  0.00  0.00    +0.000 OA
ATOM     17  C   UNL     1     -10.383   1.909   0.541  0.00  0.00    +0.000 C 
ENDBRANCH  13  16
ENDBRANCH   2  10
BRANCH   2  18
ATOM     18  C   UNL     1      -3.350   2.514  -0.780  0.00  0.00    +0.000 C 
ATOM     19  N   UNL     1      -2.880   3.512  -1.141  0.00  0.00    +0.000 NA
ENDBRANCH   2  18
TORSDOF 4
