REMARK  Name = *****
REMARK  3 active torsions:
REMARK  status: ('A' for Active; 'I' for Inactive)
REMARK    1  A    between atoms: C_4  and  C_7
REMARK    2  A    between atoms: C_8  and  P_9
REMARK    3  A    between atoms: P_9  and  C_10
REMARK                            x       y       z     vdW  Elec       q    Type
REMARK                         _______ _______ _______ _____ _____    ______ ____
ROOT
ATOM      1  C   UNL     1      -2.821   0.116   0.020  0.00  0.00    +0.000 C 
ATOM      2  C   UNL     1      -3.645  -0.690  -0.668  0.00  0.00    +0.000 C 
ENDROOT
BRANCH   1   6
ATOM      3  C   UNL     1       1.402  -0.248   0.480  0.00  0.00    +0.000 A 
ATOM      4  C   UNL     1       0.873   0.191  -0.733  0.00  0.00    +0.000 A 
ATOM      5  C   UNL     1      -0.509   0.312  -0.889  0.00  0.00    +0.000 A 
ATOM      6  C   UNL     1      -1.368  -0.011   0.167  0.00  0.00    +0.000 A 
ATOM      7  C   UNL     1      -0.831  -0.447   1.383  0.00  0.00    +0.000 A 
ATOM      8  C   UNL     1       0.551  -0.567   1.538  0.00  0.00    +0.000 A 
ENDBRANCH   1   6
BRANCH   2   9
ATOM      9  P   UNL     1      -3.099  -2.159  -1.580  0.00  0.00    +0.000 P 
ATOM     10  H   UNL     1      -1.880  -2.621  -1.129  0.00  0.00    +0.000 HD
BRANCH   9  11
ATOM     11  C   UNL     1      -4.452  -3.291  -1.156  0.00  0.00    +0.000 A 
ATOM     12  C   UNL     1      -5.645  -3.278  -1.892  0.00  0.00    +0.000 A 
ATOM     13  C   UNL     1      -6.688  -4.151  -1.572  0.00  0.00    +0.000 A 
ATOM     14  C   UNL     1      -6.547  -5.047  -0.514  0.00  0.00    +0.000 A 
ATOM     15  C   UNL     1      -5.365  -5.072   0.222  0.00  0.00    +0.000 A 
ATOM     16  C   UNL     1      -4.321  -4.200  -0.098  0.00  0.00    +0.000 A 
ENDBRANCH   9  11
ENDBRANCH   2   9
TORSDOF 3
