REMARK  Name = *****
REMARK  2 active torsions:
REMARK  status: ('A' for Active; 'I' for Inactive)
REMARK    1  A    between atoms: C_2  and  C_9
REMARK    2  A    between atoms: C_3  and  C_4
REMARK                            x       y       z     vdW  Elec       q    Type
REMARK                         _______ _______ _______ _____ _____    ______ ____
ROOT
ATOM      1  C   UNL     1       0.037   0.660   0.006  0.00  0.00    +0.000 C 
ATOM      2  C   UNL     1       0.798  -0.608   0.250  0.00  0.00    +0.000 C 
ATOM      3  C   UNL     1      -0.663  -0.662  -0.192  0.00  0.00    +0.000 C 
ENDROOT
BRANCH   2   4
ATOM      4  C   UNL     1       1.877  -1.050  -0.712  0.00  0.00    +0.000 A 
ATOM      5  C   UNL     1       2.941  -0.202  -1.061  0.00  0.00    +0.000 A 
ATOM      6  C   UNL     1       3.947  -0.616  -1.938  0.00  0.00    +0.000 A 
ATOM      7  C   UNL     1       3.912  -1.897  -2.481  0.00  0.00    +0.000 A 
ATOM      8  C   UNL     1       2.875  -2.762  -2.143  0.00  0.00    +0.000 A 
ATOM      9  C   UNL     1       1.873  -2.342  -1.265  0.00  0.00    +0.000 A 
ENDBRANCH   2   4
BRANCH   3  10
ATOM     10  C   UNL     1      -1.724  -1.108   0.808  0.00  0.00    +0.000 A 
ATOM     11  C   UNL     1      -1.716  -0.857   2.161  0.00  0.00    +0.000 A 
ATOM     12  S   UNL     1      -3.086  -1.527   2.941  0.00  0.00    +0.000 S 
ATOM     13  C   UNL     1      -3.689  -2.151   1.465  0.00  0.00    +0.000 A 
ATOM     14  C   UNL     1      -2.864  -1.855   0.402  0.00  0.00    +0.000 A 
ENDBRANCH   3  10
TORSDOF 2
