REMARK  Name = *****
REMARK  5 active torsions:
REMARK  status: ('A' for Active; 'I' for Inactive)
REMARK    1  A    between atoms: C_1  and  C_2
REMARK    2  A    between atoms: C_5  and  S_8
REMARK    3  A    between atoms: S_8  and  C_9
REMARK    4  A    between atoms: C_9  and  C_10
REMARK    5  A    between atoms: C_9  and  C_12
REMARK                            x       y       z     vdW  Elec       q    Type
REMARK                         _______ _______ _______ _____ _____    ______ ____
ROOT
ATOM      1  C   UNL     1      -4.181   1.571  -0.450  0.00  0.00    +0.000 C 
ENDROOT
BRANCH   1   2
ATOM      2  C   UNL     1      -3.179   2.711  -0.322  0.00  0.00    +0.000 A 
ATOM      3  C   UNL     1      -1.972   2.714  -1.046  0.00  0.00    +0.000 A 
ATOM      4  C   UNL     1      -1.062   3.765  -0.916  0.00  0.00    +0.000 A 
ATOM      5  C   UNL     1      -1.342   4.828  -0.060  0.00  0.00    +0.000 A 
ATOM      6  C   UNL     1      -2.530   4.840   0.668  0.00  0.00    +0.000 A 
ATOM      7  C   UNL     1      -3.442   3.789   0.540  0.00  0.00    +0.000 A 
ENDBRANCH   1   2
BRANCH   1   8
ATOM      8  C   UNL     1      -4.580   1.347  -1.856  0.00  0.00    +0.000 C 
ATOM      9  C   UNL     1      -4.918   1.165  -2.995  0.00  0.00    +0.000 C 
ENDBRANCH   1   8
BRANCH   1  10
ATOM     10  S   UNL     1      -3.501   0.042   0.329  0.00  0.00    +0.000 S 
BRANCH  10  15
ATOM     11  C   UNL     1      -8.175  -3.833  -0.225  0.00  0.00    +0.000 C 
ATOM     12  C   UNL     1      -7.039  -2.861  -0.107  0.00  0.00    +0.000 A 
ATOM     13  C   UNL     1      -5.800  -3.142  -0.691  0.00  0.00    +0.000 A 
ATOM     14  C   UNL     1      -4.734  -2.249  -0.553  0.00  0.00    +0.000 A 
ATOM     15  C   UNL     1      -4.891  -1.064   0.170  0.00  0.00    +0.000 A 
ATOM     16  C   UNL     1      -6.118  -0.796   0.782  0.00  0.00    +0.000 A 
ATOM     17  C   UNL     1      -7.185  -1.689   0.644  0.00  0.00    +0.000 A 
ENDBRANCH  10  15
ENDBRANCH   1  10
TORSDOF 4
