REMARK  Name = *****
REMARK  4 active torsions:
REMARK  status: ('A' for Active; 'I' for Inactive)
REMARK    1  A    between atoms: C_1  and  C_2
REMARK    2  A    between atoms: C_6  and  C_7
REMARK    3  A    between atoms: C_7  and  C_8
REMARK    4  A    between atoms: C_9  and  C_10
REMARK                            x       y       z     vdW  Elec       q    Type
REMARK                         _______ _______ _______ _____ _____    ______ ____
ROOT
ATOM      1  C   UNL     1      -0.379   3.576   0.146  0.00  0.00    +0.000 C 
ATOM      2  C   UNL     1      -1.161   4.486   0.190  0.00  0.00    +0.000 C 
ENDROOT
BRANCH   2   3
ATOM      3  C   UNL     1      -2.097   5.567   0.240  0.00  0.00    +0.000 A 
ATOM      4  C   UNL     1      -1.956   6.656  -0.623  0.00  0.00    +0.000 A 
ATOM      5  C   UNL     1      -2.871   7.710  -0.575  0.00  0.00    +0.000 A 
ATOM      6  C   UNL     1      -3.926   7.676   0.337  0.00  0.00    +0.000 A 
ATOM      7  C   UNL     1      -4.069   6.589   1.200  0.00  0.00    +0.000 A 
ATOM      8  C   UNL     1      -3.155   5.535   1.152  0.00  0.00    +0.000 A 
ENDBRANCH   2   3
BRANCH   1   9
ATOM      9  C   UNL     1       0.576   2.459   0.090  0.00  0.00    +0.000 C 
BRANCH   9  15
ATOM     10  C   UNL     1       1.874  -0.061   1.648  0.00  0.00    +0.000 C 
ATOM     11  C   UNL     1       0.894  -0.056   0.483  0.00  0.00    +0.000 C 
ATOM     12  C   UNL     1      -0.052  -1.256   0.518  0.00  0.00    +0.000 C 
ATOM     13  C   UNL     1      -1.236  -0.849  -0.355  0.00  0.00    +0.000 C 
ATOM     14  C   UNL     1      -1.164   0.672  -0.497  0.00  0.00    +0.000 C 
ATOM     15  C   UNL     1      -0.079   1.132   0.486  0.00  0.00    +0.000 C 
ENDBRANCH   9  15
ENDBRANCH   1   9
TORSDOF 3
