REMARK  Name = *****
REMARK  4 active torsions:
REMARK  status: ('A' for Active; 'I' for Inactive)
REMARK    1  A    between atoms: C_4  and  C_19
REMARK    2  A    between atoms: C_5  and  C_7
REMARK    3  A    between atoms: C_8  and  C_9
REMARK    4  A    between atoms: C_11  and  C_15
REMARK                            x       y       z     vdW  Elec       q    Type
REMARK                         _______ _______ _______ _____ _____    ______ ____
ROOT
ATOM      1  C   UNL     1      -0.579   2.415  -0.011  0.00  0.00    +0.000 C 
ATOM      2  C   UNL     1      -1.839   2.564  -0.449  0.00  0.00    +0.000 C 
ENDROOT
BRANCH   1   7
ATOM      3  C   UNL     1       2.018  -0.180  -0.780  0.00  0.00    +0.000 A 
ATOM      4  C   UNL     1       1.573  -1.285  -0.061  0.00  0.00    +0.000 A 
ATOM      5  C   UNL     1       0.405  -1.196   0.696  0.00  0.00    +0.000 A 
ATOM      6  C   UNL     1      -0.330  -0.000   0.736  0.00  0.00    +0.000 A 
ATOM      7  C   UNL     1       0.111   1.117   0.000  0.00  0.00    +0.000 A 
ATOM      8  C   UNL     1       1.295   1.014  -0.748  0.00  0.00    +0.000 A 
BRANCH   6   9
ATOM      9  C   UNL     1      -1.513   0.043   1.548  0.00  0.00    +0.000 C 
ATOM     10  N   UNL     1      -2.473   0.051   2.202  0.00  0.00    +0.000 NA
ENDBRANCH   6   9
ENDBRANCH   1   7
BRANCH   2  11
ATOM     11  C   UNL     1      -2.537   3.854  -0.447  0.00  0.00    +0.000 A 
ATOM     12  C   UNL     1      -1.950   5.014  -0.968  0.00  0.00    +0.000 A 
ATOM     13  C   UNL     1      -2.646   6.236  -0.973  0.00  0.00    +0.000 A 
ATOM     14  C   UNL     1      -3.954   6.275  -0.468  0.00  0.00    +0.000 A 
ATOM     15  C   UNL     1      -4.548   5.121   0.042  0.00  0.00    +0.000 A 
ATOM     16  C   UNL     1      -3.844   3.916   0.048  0.00  0.00    +0.000 A 
BRANCH  13  17
ATOM     17  C   UNL     1      -2.012   7.474  -1.555  0.00  0.00    +0.000 C 
ATOM     18  F   UNL     1      -0.653   7.480  -1.448  0.00  0.00    +0.000 F 
ATOM     19  F   UNL     1      -2.282   7.619  -2.882  0.00  0.00    +0.000 F 
ATOM     20  F   UNL     1      -2.434   8.623  -0.959  0.00  0.00    +0.000 F 
ENDBRANCH  13  17
ENDBRANCH   2  11
TORSDOF 4
