REMARK  Name = *****
REMARK  2 active torsions:
REMARK  status: ('A' for Active; 'I' for Inactive)
REMARK    1  A    between atoms: C_4  and  C_7
REMARK    2  A    between atoms: C_8  and  C_9
REMARK                            x       y       z     vdW  Elec       q    Type
REMARK                         _______ _______ _______ _____ _____    ______ ____
ROOT
ATOM      1  C   UNL     1      -0.499   2.726  -0.505  0.00  0.00    +0.000 C 
ATOM      2  C   UNL     1       0.311   3.786  -0.352  0.00  0.00    +0.000 C 
ENDROOT
BRANCH   2   3
ATOM      3  C   UNL     1      -0.145   5.164  -0.583  0.00  0.00    +0.000 A 
ATOM      4  C   UNL     1       0.477   5.878  -1.619  0.00  0.00    +0.000 A 
ATOM      5  C   UNL     1       0.101   7.192  -1.908  0.00  0.00    +0.000 A 
ATOM      6  C   UNL     1      -0.898   7.812  -1.161  0.00  0.00    +0.000 A 
ATOM      7  C   UNL     1      -1.516   7.121  -0.119  0.00  0.00    +0.000 A 
ATOM      8  C   UNL     1      -1.141   5.805   0.174  0.00  0.00    +0.000 A 
ATOM      9 CL   UNL     1      -1.930   5.032   1.507  0.00  0.00    +0.000 Cl
ENDBRANCH   2   3
BRANCH   1  13
ATOM     10  C   UNL     1       0.910  -1.360  -0.455  0.00  0.00    +0.000 C 
ATOM     11  C   UNL     1       1.791  -0.244   0.068  0.00  0.00    +0.000 C 
ATOM     12  N   UNL     1       1.258   1.086  -0.175  0.00  0.00    +0.000 NA
ATOM     13  C   UNL     1       0.006   1.347  -0.267  0.00  0.00    +0.000 C 
ATOM     14  S   UNL     1      -1.308   0.197  -0.183  0.00  0.00    +0.000 S 
ATOM     15  C   UNL     1      -0.434  -1.317   0.236  0.00  0.00    +0.000 C 
ENDBRANCH   1  13
TORSDOF 2
