REMARK  Name = *****
REMARK  5 active torsions:
REMARK  status: ('A' for Active; 'I' for Inactive)
REMARK    1  A    between atoms: C_1  and  C_2
REMARK    2  A    between atoms: C_4  and  C_17
REMARK    3  A    between atoms: C_6  and  C_8
REMARK    4  A    between atoms: C_8  and  C_10
REMARK    5  A    between atoms: C_10  and  C_11
REMARK                            x       y       z     vdW  Elec       q    Type
REMARK                         _______ _______ _______ _____ _____    ______ ____
ROOT
ATOM      1  C   UNL     1      -2.386   1.417   0.167  0.00  0.00    +0.000 C 
ATOM      2  O   UNL     1      -2.223   2.561   0.595  0.00  0.00    +0.000 OA
ENDROOT
BRANCH   1   8
ATOM      3  C   UNL     1       2.583   0.883   0.309  0.00  0.00    +0.000 C 
ATOM      4  C   UNL     1       1.226   0.276   0.108  0.00  0.00    +0.000 A 
ATOM      5  C   UNL     1       1.096  -1.070  -0.255  0.00  0.00    +0.000 A 
ATOM      6  C   UNL     1      -0.167  -1.631  -0.485  0.00  0.00    +0.000 A 
ATOM      7  C   UNL     1      -1.312  -0.834  -0.335  0.00  0.00    +0.000 A 
ATOM      8  C   UNL     1      -1.199   0.518   0.010  0.00  0.00    +0.000 A 
ATOM      9  C   UNL     1       0.074   1.064   0.225  0.00  0.00    +0.000 A 
ATOM     10  C   UNL     1      -0.297  -3.085  -0.832  0.00  0.00    +0.000 C 
ENDBRANCH   1   8
BRANCH   1  11
ATOM     11  C   UNL     1      -3.772   0.922  -0.205  0.00  0.00    +0.000 C 
BRANCH  11  12
ATOM     12  C   UNL     1      -4.005   0.821  -1.693  0.00  0.00    +0.000 A 
ATOM     13  C   UNL     1      -4.550  -0.344  -2.251  0.00  0.00    +0.000 A 
ATOM     14  C   UNL     1      -4.777  -0.432  -3.626  0.00  0.00    +0.000 A 
ATOM     15  C   UNL     1      -4.474   0.646  -4.455  0.00  0.00    +0.000 A 
ATOM     16  C   UNL     1      -3.950   1.816  -3.910  0.00  0.00    +0.000 A 
ATOM     17  C   UNL     1      -3.722   1.906  -2.536  0.00  0.00    +0.000 A 
ENDBRANCH  11  12
ENDBRANCH   1  11
TORSDOF 3
