REMARK  Name = *****
REMARK  5 active torsions:
REMARK  status: ('A' for Active; 'I' for Inactive)
REMARK    1  A    between atoms: C_1  and  C_2
REMARK    2  A    between atoms: C_4  and  C_18
REMARK    3  A    between atoms: C_6  and  O_8
REMARK    4  A    between atoms: O_8  and  C_9
REMARK    5  A    between atoms: C_9  and  C_11
REMARK                            x       y       z     vdW  Elec       q    Type
REMARK                         _______ _______ _______ _____ _____    ______ ____
ROOT
ATOM      1  O   UNL     1       0.013  -3.132  -0.546  0.00  0.00    +0.000 OA
ENDROOT
BRANCH   1   7
ATOM      2  C   UNL     1       2.538   0.937   0.759  0.00  0.00    +0.000 C 
ATOM      3  C   UNL     1       1.275   0.252   0.326  0.00  0.00    +0.000 A 
ATOM      4  C   UNL     1       0.072   0.969   0.240  0.00  0.00    +0.000 A 
ATOM      5  C   UNL     1      -1.122   0.336  -0.138  0.00  0.00    +0.000 A 
ATOM      6  C   UNL     1      -1.109  -1.037  -0.405  0.00  0.00    +0.000 A 
ATOM      7  C   UNL     1       0.088  -1.748  -0.323  0.00  0.00    +0.000 A 
ATOM      8  C   UNL     1       1.272  -1.123   0.063  0.00  0.00    +0.000 A 
ATOM      9  C   UNL     1      -2.408   1.107  -0.189  0.00  0.00    +0.000 C 
ENDBRANCH   1   7
BRANCH   1  10
ATOM     10  C   UNL     1       0.903  -3.682  -1.449  0.00  0.00    +0.000 C 
ATOM     11  O   UNL     1       1.824  -3.142  -2.040  0.00  0.00    +0.000 OA
BRANCH  10  12
ATOM     12  C   UNL     1       0.659  -5.133  -1.502  0.00  0.00    +0.000 A 
ATOM     13  C   UNL     1       1.748  -5.974  -1.226  0.00  0.00    +0.000 A 
ATOM     14  C   UNL     1       1.586  -7.360  -1.253  0.00  0.00    +0.000 A 
ATOM     15  C   UNL     1       0.344  -7.909  -1.567  0.00  0.00    +0.000 A 
ATOM     16  C   UNL     1      -0.736  -7.073  -1.863  0.00  0.00    +0.000 A 
ATOM     17  C   UNL     1      -0.583  -5.683  -1.837  0.00  0.00    +0.000 A 
ATOM     18 CL   UNL     1      -1.947  -4.721  -2.282  0.00  0.00    +0.000 Cl
ENDBRANCH  10  12
ENDBRANCH   1  10
TORSDOF 3
