REMARK  Name = *****
REMARK  2 active torsions:
REMARK  status: ('A' for Active; 'I' for Inactive)
REMARK    1  A    between atoms: C_4  and  C_6
REMARK    2  A    between atoms: C_7  and  C_8
REMARK                            x       y       z     vdW  Elec       q    Type
REMARK                         _______ _______ _______ _____ _____    ______ ____
ROOT
ATOM      1  C   UNL     1      -0.231  -2.645   0.111  0.00  0.00    +0.000 C 
ATOM      2  C   UNL     1      -1.425  -3.219  -0.113  0.00  0.00    +0.000 C 
ATOM      3  F   UNL     1      -2.491  -2.458  -0.457  0.00  0.00    +0.000 F 
ATOM      4  F   UNL     1       0.842  -3.414   0.418  0.00  0.00    +0.000 F 
ENDROOT
BRANCH   1   8
ATOM      5  C   UNL     1      -0.213   1.104  -0.132  0.00  0.00    +0.000 A 
ATOM      6  C   UNL     1       1.152   0.976  -0.058  0.00  0.00    +0.000 A 
ATOM      7  S   UNL     1       1.633  -0.655   0.076  0.00  0.00    +0.000 S 
ATOM      8  C   UNL     1       0.001  -1.236   0.029  0.00  0.00    +0.000 A 
ATOM      9  C   UNL     1      -0.871  -0.161  -0.080  0.00  0.00    +0.000 A 
ENDBRANCH   1   8
BRANCH   2  10
ATOM     10  C   UNL     1      -1.655  -4.628  -0.026  0.00  0.00    +0.000 A 
ATOM     11  C   UNL     1      -0.901  -5.648   0.538  0.00  0.00    +0.000 A 
ATOM     12  C   UNL     1      -1.496  -6.938   0.410  0.00  0.00    +0.000 A 
ATOM     13  C   UNL     1      -2.701  -6.882  -0.246  0.00  0.00    +0.000 A 
ATOM     14  S   UNL     1      -3.108  -5.289  -0.697  0.00  0.00    +0.000 S 
ENDBRANCH   2  10
TORSDOF 2
