REMARK  Name = *****
REMARK  5 active torsions:
REMARK  status: ('A' for Active; 'I' for Inactive)
REMARK    1  A    between atoms: C_1  and  O_2
REMARK    2  A    between atoms: O_2  and  N_3
REMARK    3  A    between atoms: C_4  and  C_5
REMARK    4  A    between atoms: C_4  and  C_12
REMARK    5  A    between atoms: C_5  and  C_6
REMARK                            x       y       z     vdW  Elec       q    Type
REMARK                         _______ _______ _______ _____ _____    ______ ____
ROOT
ATOM      1  N   UNL     1       2.938  -0.316   1.387  0.00  0.00    +0.000 NA
ATOM      2  C   UNL     1       4.224  -0.339   1.166  0.00  0.00    +0.000 C 
ENDROOT
BRANCH   2   3
ATOM      3  C   UNL     1       5.119  -0.801   2.284  0.00  0.00    +0.000 A 
ATOM      4  C   UNL     1       4.549  -1.509   3.356  0.00  0.00    +0.000 A 
ATOM      5  C   UNL     1       5.342  -1.959   4.416  0.00  0.00    +0.000 A 
ATOM      6  C   UNL     1       6.709  -1.701   4.414  0.00  0.00    +0.000 A 
ATOM      7  C   UNL     1       7.289  -0.996   3.362  0.00  0.00    +0.000 A 
ATOM      8  C   UNL     1       6.496  -0.546   2.299  0.00  0.00    +0.000 A 
ATOM      9 CL   UNL     1       7.687  -2.252   5.716  0.00  0.00    +0.000 Cl
ENDBRANCH   2   3
BRANCH   1  11
ATOM     10  C   UNL     1       0.837   0.152   0.607  0.00  0.00    +0.000 C 
ATOM     11  O   UNL     1       2.218   0.126   0.270  0.00  0.00    +0.000 OA
ENDBRANCH   1  11
BRANCH   2  12
ATOM     12  C   UNL     1       4.862   0.063  -0.165  0.00  0.00    +0.000 C 
BRANCH  12  13
ATOM     13  C   UNL     1       5.373   1.487  -0.218  0.00  0.00    +0.000 A 
ATOM     14  C   UNL     1       6.549   1.773  -0.929  0.00  0.00    +0.000 A 
ATOM     15  C   UNL     1       7.031   3.081  -1.014  0.00  0.00    +0.000 A 
ATOM     16  C   UNL     1       6.336   4.121  -0.402  0.00  0.00    +0.000 A 
ATOM     17  C   UNL     1       5.155   3.855   0.287  0.00  0.00    +0.000 A 
ATOM     18  C   UNL     1       4.672   2.548   0.372  0.00  0.00    +0.000 A 
ENDBRANCH  12  13
ENDBRANCH   2  12
TORSDOF 4
