REMARK  Name = *****
REMARK  2 active torsions:
REMARK  status: ('A' for Active; 'I' for Inactive)
REMARK    1  A    between atoms: C_2  and  C_11
REMARK    2  A    between atoms: C_3  and  C_4
REMARK                            x       y       z     vdW  Elec       q    Type
REMARK                         _______ _______ _______ _____ _____    ______ ____
ROOT
ATOM      1  C   UNL     1       0.066   0.943  -0.056  0.00  0.00    +0.000 C 
ATOM      2  C   UNL     1       0.812  -0.366  -0.032  0.00  0.00    +0.000 C 
ATOM      3  C   UNL     1      -0.711  -0.349  -0.055  0.00  0.00    +0.000 C 
ENDROOT
BRANCH   3   4
ATOM      4  C   UNL     1      -1.446  -0.791  -1.298  0.00  0.00    +0.000 A 
ATOM      5  C   UNL     1      -1.226  -2.061  -1.863  0.00  0.00    +0.000 A 
ATOM      6  C   UNL     1      -1.913  -2.476  -3.007  0.00  0.00    +0.000 A 
ATOM      7  C   UNL     1      -2.838  -1.625  -3.595  0.00  0.00    +0.000 A 
ATOM      8  C   UNL     1      -3.089  -0.370  -3.059  0.00  0.00    +0.000 A 
ATOM      9  C   UNL     1      -2.399   0.040  -1.915  0.00  0.00    +0.000 A 
ATOM     10  F   UNL     1      -3.498  -2.020  -4.691  0.00  0.00    +0.000 F 
ENDBRANCH   3   4
BRANCH   2  11
ATOM     11  C   UNL     1       1.548  -0.790   1.217  0.00  0.00    +0.000 A 
ATOM     12  C   UNL     1       1.266  -2.011   1.857  0.00  0.00    +0.000 A 
ATOM     13  C   UNL     1       1.960  -2.408   3.003  0.00  0.00    +0.000 A 
ATOM     14  C   UNL     1       2.954  -1.588   3.518  0.00  0.00    +0.000 A 
ATOM     15  C   UNL     1       3.267  -0.382   2.907  0.00  0.00    +0.000 A 
ATOM     16  C   UNL     1       2.569   0.010   1.763  0.00  0.00    +0.000 A 
ATOM     17  F   UNL     1       3.622  -1.967   4.615  0.00  0.00    +0.000 F 
ENDBRANCH   2  11
TORSDOF 2
