REMARK  Name = *****
REMARK  2 active torsions:
REMARK  status: ('A' for Active; 'I' for Inactive)
REMARK    1  A    between atoms: C_4  and  S_7
REMARK    2  A    between atoms: S_7  and  C_8
REMARK                            x       y       z     vdW  Elec       q    Type
REMARK                         _______ _______ _______ _____ _____    ______ ____
ROOT
ATOM      1  C   UNL     1      -3.812  -1.195  -0.216  0.00  0.00    +0.000 A 
ATOM      2  C   UNL     1      -4.638  -1.267  -1.352  0.00  0.00    +0.000 A 
ATOM      3  C   UNL     1      -4.857  -0.507  -2.536  0.00  0.00    +0.000 A 
ATOM      4  C   UNL     1      -5.842  -1.159  -3.240  0.00  0.00    +0.000 A 
ATOM      5  O   UNL     1      -6.251  -2.269  -2.575  0.00  0.00    +0.000 OA
ATOM      6  C   UNL     1      -5.522  -2.343  -1.425  0.00  0.00    +0.000 A 
ATOM      7  N   UNL     1      -5.675  -3.333  -0.528  0.00  0.00    +0.000 NA
ATOM      8  C   UNL     1      -4.851  -3.222   0.533  0.00  0.00    +0.000 A 
ATOM      9  C   UNL     1      -3.925  -2.210   0.737  0.00  0.00    +0.000 A 
ENDROOT
BRANCH   1  10
ATOM     10  S   UNL     1      -2.664   0.146  -0.079  0.00  0.00    +0.000 S 
BRANCH  10  14
ATOM     11  C   UNL     1      -3.454   1.695   4.162  0.00  0.00    +0.000 A 
ATOM     12  C   UNL     1      -2.186   1.240   3.802  0.00  0.00    +0.000 A 
ATOM     13  C   UNL     1      -1.953   0.771   2.508  0.00  0.00    +0.000 A 
ATOM     14  C   UNL     1      -2.989   0.748   1.568  0.00  0.00    +0.000 A 
ATOM     15  C   UNL     1      -4.256   1.218   1.932  0.00  0.00    +0.000 A 
ATOM     16  C   UNL     1      -4.488   1.686   3.227  0.00  0.00    +0.000 A 
ENDBRANCH  10  14
ENDBRANCH   1  10
TORSDOF 2
