REMARK  Name = *****
REMARK  4 active torsions:
REMARK  status: ('A' for Active; 'I' for Inactive)
REMARK    1  A    between atoms: C_1  and  C_2
REMARK    2  A    between atoms: C_5  and  C_8
REMARK    3  A    between atoms: C_9  and  C_10
REMARK    4  A    between atoms: C_14  and  C_16
REMARK                            x       y       z     vdW  Elec       q    Type
REMARK                         _______ _______ _______ _____ _____    ______ ____
ROOT
ATOM      1  C   UNL     1       6.809   0.156  -0.855  0.00  0.00    +0.000 C 
ATOM      2  C   UNL     1       7.986   0.165  -1.097  0.00  0.00    +0.000 C 
ENDROOT
BRANCH   1   7
ATOM      3  C   UNL     1       1.186   0.109   0.283  0.00  0.00    +0.000 C 
ATOM      4  C   UNL     1       2.662   0.124   0.014  0.00  0.00    +0.000 A 
ATOM      5  C   UNL     1       3.330   1.334  -0.211  0.00  0.00    +0.000 A 
ATOM      6  C   UNL     1       4.699   1.345  -0.494  0.00  0.00    +0.000 A 
ATOM      7  C   UNL     1       5.408   0.145  -0.565  0.00  0.00    +0.000 A 
ATOM      8  C   UNL     1       4.746  -1.066  -0.357  0.00  0.00    +0.000 A 
ATOM      9  C   UNL     1       3.378  -1.076  -0.074  0.00  0.00    +0.000 A 
ENDBRANCH   1   7
BRANCH   2  10
ATOM     10  C   UNL     1       9.387   0.174  -1.386  0.00  0.00    +0.000 A 
ATOM     11  C   UNL     1      10.089   1.380  -1.400  0.00  0.00    +0.000 A 
ATOM     12  C   UNL     1      11.457   1.387  -1.673  0.00  0.00    +0.000 A 
ATOM     13  C   UNL     1      12.124   0.189  -1.936  0.00  0.00    +0.000 A 
ATOM     14  C   UNL     1      11.427  -1.025  -1.940  0.00  0.00    +0.000 A 
ATOM     15  C   UNL     1      10.055  -1.025  -1.650  0.00  0.00    +0.000 A 
ATOM     16  C   UNL     1      12.148  -2.317  -2.187  0.00  0.00    +0.000 C 
ENDBRANCH   2  10
TORSDOF 2
