REMARK  Name = *****
REMARK  3 active torsions:
REMARK  status: ('A' for Active; 'I' for Inactive)
REMARK    1  A    between atoms: C_1  and  O_2
REMARK    2  A    between atoms: O_2  and  N_3
REMARK    3  A    between atoms: C_11  and  C_12
REMARK                            x       y       z     vdW  Elec       q    Type
REMARK                         _______ _______ _______ _____ _____    ______ ____
ROOT
ATOM      1  N   UNL     1       3.205   1.231  -0.653  0.00  0.00    +0.000 N 
ATOM      2  C   UNL     1       3.023   2.545  -1.018  0.00  0.00    +0.000 A 
ATOM      3  C   UNL     1       2.128   3.518  -0.546  0.00  0.00    +0.000 A 
ATOM      4  C   UNL     1       2.170   4.783  -1.137  0.00  0.00    +0.000 A 
ATOM      5  C   UNL     1       3.072   5.067  -2.160  0.00  0.00    +0.000 A 
ATOM      6  C   UNL     1       3.965   4.090  -2.616  0.00  0.00    +0.000 A 
ATOM      7  C   UNL     1       3.943   2.808  -2.034  0.00  0.00    +0.000 A 
ATOM      8  C   UNL     1       4.704   1.622  -2.229  0.00  0.00    +0.000 A 
ATOM      9  C   UNL     1       4.247   0.662  -1.342  0.00  0.00    +0.000 A 
ENDROOT
BRANCH   9  10
ATOM     10  C   UNL     1       4.731  -0.737  -1.076  0.00  0.00    +0.000 C 
ATOM     11  C   UNL     1       5.916  -0.693  -0.086  0.00  0.00    +0.000 C 
ATOM     12  C   UNL     1       6.615  -2.047   0.015  0.00  0.00    +0.000 C 
ATOM     13  C   UNL     1       7.148  -2.499  -1.346  0.00  0.00    +0.000 C 
ATOM     14  C   UNL     1       6.165  -2.282  -2.458  0.00  0.00    +0.000 C 
ATOM     15  C   UNL     1       5.074  -1.510  -2.333  0.00  0.00    +0.000 C 
ENDBRANCH   9  10
BRANCH   1  17
ATOM     16  C   UNL     1       1.296   0.038  -0.208  0.00  0.00    +0.000 C 
ATOM     17  O   UNL     1       2.481   0.588   0.360  0.00  0.00    +0.000 OA
ENDBRANCH   1  17
TORSDOF 2
