REMARK  Name = *****
REMARK  3 active torsions:
REMARK  status: ('A' for Active; 'I' for Inactive)
REMARK    1  A    between atoms: C_4  and  C_7
REMARK    2  A    between atoms: C_7  and  O_9
REMARK    3  A    between atoms: O_9  and  C_10
REMARK                            x       y       z     vdW  Elec       q    Type
REMARK                         _______ _______ _______ _____ _____    ______ ____
ROOT
ATOM      1  C   UNL     1      -2.834   0.637  -0.120  0.00  0.00    +0.000 C 
ATOM      2  S   UNL     1      -3.597   1.882   0.688  0.00  0.00    +0.000 S 
ENDROOT
BRANCH   1   6
ATOM      3  C   UNL     1       1.337  -0.379  -0.028  0.00  0.00    +0.000 A 
ATOM      4  C   UNL     1       0.745   0.226   1.079  0.00  0.00    +0.000 A 
ATOM      5  C   UNL     1      -0.613   0.557   1.055  0.00  0.00    +0.000 A 
ATOM      6  C   UNL     1      -1.390   0.284  -0.080  0.00  0.00    +0.000 A 
ATOM      7  C   UNL     1      -0.782  -0.324  -1.190  0.00  0.00    +0.000 A 
ATOM      8  C   UNL     1       0.575  -0.654  -1.162  0.00  0.00    +0.000 A 
ENDBRANCH   1   6
BRANCH   1   9
ATOM      9  O   UNL     1      -3.497  -0.292  -0.928  0.00  0.00    +0.000 OA
BRANCH   9  10
ATOM     10  C   UNL     1      -4.874  -0.226  -1.235  0.00  0.00    +0.000 A 
ATOM     11  C   UNL     1      -5.302   0.585  -2.284  0.00  0.00    +0.000 A 
ATOM     12  C   UNL     1      -6.657   0.603  -2.610  0.00  0.00    +0.000 A 
ATOM     13  C   UNL     1      -7.558  -0.196  -1.900  0.00  0.00    +0.000 A 
ATOM     14  C   UNL     1      -7.107  -1.019  -0.865  0.00  0.00    +0.000 A 
ATOM     15  C   UNL     1      -5.754  -1.043  -0.532  0.00  0.00    +0.000 A 
ENDBRANCH   9  10
ENDBRANCH   1   9
TORSDOF 3
