REMARK  Name = *****
REMARK  0 active torsions:
REMARK  status: ('A' for Active; 'I' for Inactive)
REMARK                            x       y       z     vdW  Elec       q    Type
REMARK                         _______ _______ _______ _____ _____    ______ ____
ROOT
ATOM      1  C   UNL     1       1.337  -0.663  -0.124  0.00  0.00    +0.000 C 
ATOM      2  C   UNL     1       1.329   0.671  -0.121  0.00  0.00    +0.000 C 
ATOM      3  S   UNL     1      -0.190   1.481  -0.221  0.00  0.00    +0.000 S 
ATOM      4  C   UNL     1      -1.134  -0.011  -0.285  0.00  0.00    +0.000 C 
ATOM      5  C   UNL     1      -2.490  -0.020  -0.370  0.00  0.00    +0.000 C 
ATOM      6  S   UNL     1      -3.434  -1.516  -0.432  0.00  0.00    +0.000 S 
ATOM      7  C   UNL     1      -4.948  -0.702  -0.512  0.00  0.00    +0.000 A 
ATOM      8  C   UNL     1      -4.957   0.633  -0.510  0.00  0.00    +0.000 A 
ATOM      9  S   UNL     1      -3.453   1.465  -0.425  0.00  0.00    +0.000 S 
ATOM     10  S   UNL     1      -6.488   1.427  -0.590  0.00  0.00    +0.000 S 
ATOM     11  C   UNL     1      -7.442  -0.050  -0.643  0.00  0.00    +0.000 A 
ATOM     12  O   UNL     1      -8.662  -0.058  -0.707  0.00  0.00    +0.000 OA
ATOM     13  S   UNL     1      -6.469  -1.515  -0.596  0.00  0.00    +0.000 S 
ATOM     14  S   UNL     1      -0.171  -1.492  -0.227  0.00  0.00    +0.000 S 
ENDROOT
TORSDOF 0
