REMARK  Name = *****
REMARK  2 active torsions:
REMARK  status: ('A' for Active; 'I' for Inactive)
REMARK    1  A    between atoms: C_1  and  C_2
REMARK    2  A    between atoms: C_4  and  C_8
REMARK                            x       y       z     vdW  Elec       q    Type
REMARK                         _______ _______ _______ _____ _____    ______ ____
ROOT
ATOM      1  C   UNL     1      -1.742   3.675   1.138  0.00  0.00    +0.000 C 
ATOM      2  N   UNL     1      -2.001   4.931   0.974  0.00  0.00    +0.000 NA
ATOM      3  C   UNL     1      -3.315   5.325   0.733  0.00  0.00    +0.000 A 
ATOM      4  C   UNL     1      -3.605   6.686   0.613  0.00  0.00    +0.000 A 
ATOM      5  C   UNL     1      -4.912   7.116   0.375  0.00  0.00    +0.000 A 
ATOM      6  C   UNL     1      -5.937   6.182   0.253  0.00  0.00    +0.000 A 
ATOM      7  C   UNL     1      -5.654   4.821   0.371  0.00  0.00    +0.000 A 
ATOM      8  C   UNL     1      -4.341   4.394   0.614  0.00  0.00    +0.000 A 
ATOM      9  C   UNL     1      -4.004   2.946   0.735  0.00  0.00    +0.000 C 
ATOM     10  O   UNL     1      -2.638   2.664   1.078  0.00  0.00    +0.000 OA
ENDROOT
BRANCH   1  14
ATOM     11  C   UNL     1       1.432  -0.082   2.295  0.00  0.00    +0.000 C 
ATOM     12  C   UNL     1       1.168   1.363   1.991  0.00  0.00    +0.000 A 
ATOM     13  C   UNL     1      -0.133   1.814   1.719  0.00  0.00    +0.000 A 
ATOM     14  C   UNL     1      -0.375   3.163   1.419  0.00  0.00    +0.000 A 
ATOM     15  C   UNL     1       0.701   4.060   1.386  0.00  0.00    +0.000 A 
ATOM     16  C   UNL     1       1.998   3.616   1.644  0.00  0.00    +0.000 A 
ATOM     17  C   UNL     1       2.230   2.273   1.942  0.00  0.00    +0.000 A 
ENDBRANCH   1  14
TORSDOF 1
