REMARK  Name = *****
REMARK  2 active torsions:
REMARK  status: ('A' for Active; 'I' for Inactive)
REMARK    1  A    between atoms: N_5  and  N_8
REMARK    2  A    between atoms: C_9  and  C_10
REMARK                            x       y       z     vdW  Elec       q    Type
REMARK                         _______ _______ _______ _____ _____    ______ ____
ROOT
ATOM      1  N   UNL     1       1.883  -1.213  -1.311  0.00  0.00    +0.000 NA
ATOM      2  C   UNL     1       3.144  -1.007  -1.565  0.00  0.00    +0.000 C 
ENDROOT
BRANCH   2   3
ATOM      3  C   UNL     1       4.077  -0.042  -0.944  0.00  0.00    +0.000 A 
ATOM      4  C   UNL     1       4.963   0.699  -1.736  0.00  0.00    +0.000 A 
ATOM      5  C   UNL     1       5.868   1.580  -1.136  0.00  0.00    +0.000 A 
ATOM      6  C   UNL     1       5.893   1.708   0.251  0.00  0.00    +0.000 A 
ATOM      7  C   UNL     1       5.027   0.962   1.048  0.00  0.00    +0.000 A 
ATOM      8  C   UNL     1       4.123   0.082   0.452  0.00  0.00    +0.000 A 
ATOM      9 CL   UNL     1       7.008   2.792   0.987  0.00  0.00    +0.000 Cl
ATOM     10 CL   UNL     1       4.969   0.595  -3.461  0.00  0.00    +0.000 Cl
ENDBRANCH   2   3
BRANCH   1  15
ATOM     11  C   UNL     1      -1.682   1.230  -0.267  0.00  0.00    +0.000 C 
ATOM     12  C   UNL     1      -1.973  -0.076   0.459  0.00  0.00    +0.000 C 
ATOM     13  C   UNL     1      -1.074  -1.245   0.067  0.00  0.00    +0.000 C 
ATOM     14  C   UNL     1       0.374  -1.051   0.517  0.00  0.00    +0.000 C 
ATOM     15  N   UNL     1       1.271  -0.373  -0.431  0.00  0.00    +0.000 N 
ATOM     16  C   UNL     1       0.716   0.851  -1.041  0.00  0.00    +0.000 C 
ATOM     17  C   UNL     1      -0.232   1.703  -0.193  0.00  0.00    +0.000 C 
ENDBRANCH   1  15
TORSDOF 2
