REMARK  Name = *****
REMARK  4 active torsions:
REMARK  status: ('A' for Active; 'I' for Inactive)
REMARK    1  A    between atoms: C_3  and  C_8
REMARK    2  A    between atoms: C_9  and  C_10
REMARK    3  A    between atoms: C_10  and  C_11
REMARK    4  A    between atoms: C_12  and  O_18
REMARK                            x       y       z     vdW  Elec       q    Type
REMARK                         _______ _______ _______ _____ _____    ______ ____
ROOT
ATOM      1  C   UNL     1      -3.050   4.565   0.454  0.00  0.00    +0.000 C 
ENDROOT
BRANCH   1   2
ATOM      2  C   UNL     1      -2.722   5.446   1.637  0.00  0.00    +0.000 A 
ATOM      3  C   UNL     1      -1.946   6.610   1.540  0.00  0.00    +0.000 A 
ATOM      4  C   UNL     1      -1.680   7.395   2.662  0.00  0.00    +0.000 A 
ATOM      5  C   UNL     1      -2.172   7.012   3.905  0.00  0.00    +0.000 A 
ATOM      6  C   UNL     1      -2.926   5.849   4.035  0.00  0.00    +0.000 A 
ATOM      7  C   UNL     1      -3.197   5.070   2.907  0.00  0.00    +0.000 A 
ATOM      8 CL   UNL     1      -1.841   7.973   5.293  0.00  0.00    +0.000 Cl
BRANCH   3   9
ATOM      9  O   UNL     1      -1.402   7.054   0.368  0.00  0.00    +0.000 OA
ATOM     10  H   UNL     1      -1.541   6.573  -0.425  0.00  0.00    +0.000 HD
ENDBRANCH   3   9
ENDBRANCH   1   2
BRANCH   1  12
ATOM     11  C   UNL     1      -2.264   2.196   0.197  0.00  0.00    +0.000 C 
ATOM     12  C   UNL     1      -2.002   3.513   0.222  0.00  0.00    +0.000 C 
BRANCH  11  15
ATOM     13  C   UNL     1      -0.654  -0.999  -0.985  0.00  0.00    +0.000 A 
ATOM     14  C   UNL     1      -1.585   0.024  -0.775  0.00  0.00    +0.000 A 
ATOM     15  C   UNL     1      -1.246   1.160  -0.025  0.00  0.00    +0.000 A 
ATOM     16  C   UNL     1       0.033   1.242   0.536  0.00  0.00    +0.000 A 
ATOM     17  C   UNL     1       0.952   0.218   0.322  0.00  0.00    +0.000 A 
ATOM     18  C   UNL     1       0.621  -0.899  -0.435  0.00  0.00    +0.000 A 
ATOM     19  F   UNL     1       2.175   0.309   0.861  0.00  0.00    +0.000 F 
ENDBRANCH  11  15
ENDBRANCH   1  12
TORSDOF 4
