REMARK  Name = *****
REMARK  4 active torsions:
REMARK  status: ('A' for Active; 'I' for Inactive)
REMARK    1  A    between atoms: C_1  and  C_2
REMARK    2  A    between atoms: C_7  and  C_8
REMARK    3  A    between atoms: C_8  and  O_9
REMARK    4  A    between atoms: O_9  and  C_10
REMARK                            x       y       z     vdW  Elec       q    Type
REMARK                         _______ _______ _______ _____ _____    ______ ____
ROOT
ATOM      1  C   UNL     1       0.964  -2.467   0.128  0.00  0.00    +0.000 C 
ENDROOT
BRANCH   1   8
ATOM      2  C   UNL     1      -1.615  -1.619   1.405  0.00  0.00    +0.000 C 
ATOM      3  C   UNL     1      -0.886  -0.729   0.435  0.00  0.00    +0.000 A 
ATOM      4  C   UNL     1      -1.435   0.527   0.126  0.00  0.00    +0.000 A 
ATOM      5  C   UNL     1      -0.800   1.386  -0.769  0.00  0.00    +0.000 A 
ATOM      6  C   UNL     1       0.394   1.002  -1.369  0.00  0.00    +0.000 A 
ATOM      7  C   UNL     1       0.956  -0.238  -1.065  0.00  0.00    +0.000 A 
ATOM      8  C   UNL     1       0.341  -1.113  -0.150  0.00  0.00    +0.000 A 
ENDBRANCH   1   8
BRANCH   1   9
ATOM      9  O   UNL     1       2.385  -2.410  -0.007  0.00  0.00    +0.000 OA
BRANCH   9  10
ATOM     10  C   UNL     1       3.019  -3.691  -0.027  0.00  0.00    +0.000 C 
ATOM     11  C   UNL     1       2.994  -4.355   1.355  0.00  0.00    +0.000 C 
ATOM     12  C   UNL     1       3.822  -5.636   1.389  0.00  0.00    +0.000 C 
ATOM     13  C   UNL     1       5.253  -5.397   0.917  0.00  0.00    +0.000 C 
ATOM     14  C   UNL     1       5.284  -4.746  -0.462  0.00  0.00    +0.000 C 
ATOM     15  C   UNL     1       4.461  -3.464  -0.491  0.00  0.00    +0.000 C 
ENDBRANCH   9  10
ENDBRANCH   1   9
TORSDOF 3
