REMARK  Name = *****
REMARK  4 active torsions:
REMARK  status: ('A' for Active; 'I' for Inactive)
REMARK    1  A    between atoms: C_4  and  C_7
REMARK    2  A    between atoms: C_7  and  O_8
REMARK    3  A    between atoms: O_8  and  C_9
REMARK    4  A    between atoms: C_9  and  C_10
REMARK                            x       y       z     vdW  Elec       q    Type
REMARK                         _______ _______ _______ _____ _____    ______ ____
ROOT
ATOM      1  O   UNL     1       3.217  -1.905   0.026  0.00  0.00    +0.000 OA
ENDROOT
BRANCH   1   2
ATOM      2  C   UNL     1       2.807  -0.609  -0.409  0.00  0.00    +0.000 C 
BRANCH   2   6
ATOM      3  C   UNL     1      -1.449   0.400  -0.331  0.00  0.00    +0.000 C 
ATOM      4  C   UNL     1      -1.045  -1.032   0.004  0.00  0.00    +0.000 C 
ATOM      5  C   UNL     1       0.379  -1.340  -0.455  0.00  0.00    +0.000 C 
ATOM      6  C   UNL     1       1.391  -0.328   0.109  0.00  0.00    +0.000 C 
ATOM      7  C   UNL     1       0.972   1.109  -0.229  0.00  0.00    +0.000 C 
ATOM      8  C   UNL     1      -0.452   1.408   0.232  0.00  0.00    +0.000 C 
ENDBRANCH   2   6
ENDBRANCH   1   2
BRANCH   1   9
ATOM      9  C   UNL     1       4.517  -2.242  -0.454  0.00  0.00    +0.000 C 
BRANCH   9  10
ATOM     10  C   UNL     1       4.887  -3.648   0.036  0.00  0.00    +0.000 C 
ATOM     11  C   UNL     1       6.329  -3.992  -0.361  0.00  0.00    +0.000 C 
ATOM     12  C   UNL     1       6.716  -5.404   0.072  0.00  0.00    +0.000 C 
ATOM     13  C   UNL     1       5.737  -6.444  -0.464  0.00  0.00    +0.000 C 
ATOM     14  C   UNL     1       4.301  -6.115  -0.071  0.00  0.00    +0.000 C 
ATOM     15  C   UNL     1       3.906  -4.704  -0.502  0.00  0.00    +0.000 C 
ENDBRANCH   9  10
ENDBRANCH   1   9
TORSDOF 4
