REMARK  Name = *****
REMARK  3 active torsions:
REMARK  status: ('A' for Active; 'I' for Inactive)
REMARK    1  A    between atoms: C_1  and  N_2
REMARK    2  A    between atoms: N_2  and  C_3
REMARK    3  A    between atoms: C_9  and  C_11
REMARK                            x       y       z     vdW  Elec       q    Type
REMARK                         _______ _______ _______ _____ _____    ______ ____
ROOT
ATOM      1  C   UNL     1       1.111   0.579   0.153  0.00  0.00    +0.000 C 
ATOM      2  N   UNL     1       2.511   0.170  -0.005  0.00  0.00    +0.000 N 
ATOM      3  C   UNL     1       3.111   0.071  -1.275  0.00  0.00    +0.000 C 
ATOM      4  O   UNL     1       4.191  -0.448  -1.549  0.00  0.00    +0.000 OA
ENDROOT
BRANCH   3   5
ATOM      5  C   UNL     1       2.364   0.559  -2.448  0.00  0.00    +0.000 A 
ATOM      6  C   UNL     1       2.370   1.910  -2.812  0.00  0.00    +0.000 A 
ATOM      7  C   UNL     1       1.673   2.320  -3.952  0.00  0.00    +0.000 A 
ATOM      8  C   UNL     1       0.990   1.377  -4.722  0.00  0.00    +0.000 A 
ATOM      9  C   UNL     1       0.998   0.027  -4.370  0.00  0.00    +0.000 A 
ATOM     10  C   UNL     1       1.692  -0.387  -3.233  0.00  0.00    +0.000 A 
ATOM     11 CL   UNL     1       0.130   1.885  -6.123  0.00  0.00    +0.000 Cl
ATOM     12 CL   UNL     1       3.200   3.108  -1.889  0.00  0.00    +0.000 Cl
ENDBRANCH   3   5
BRANCH   2  13
ATOM     13  C   UNL     1       3.216  -0.226   1.194  0.00  0.00    +0.000 A 
ATOM     14  C   UNL     1       4.617  -0.290   1.246  0.00  0.00    +0.000 A 
ATOM     15  C   UNL     1       5.292  -0.661   2.415  0.00  0.00    +0.000 A 
ATOM     16  C   UNL     1       4.580  -0.974   3.566  0.00  0.00    +0.000 A 
ATOM     17  C   UNL     1       3.192  -0.910   3.548  0.00  0.00    +0.000 A 
ATOM     18  C   UNL     1       2.520  -0.535   2.378  0.00  0.00    +0.000 A 
ENDBRANCH   2  13
TORSDOF 2
