REMARK  Name = *****
REMARK  2 active torsions:
REMARK  status: ('A' for Active; 'I' for Inactive)
REMARK    1  A    between atoms: C_3  and  C_8
REMARK    2  A    between atoms: C_15  and  C_17
REMARK                            x       y       z     vdW  Elec       q    Type
REMARK                         _______ _______ _______ _____ _____    ______ ____
ROOT
ATOM      1  C   UNL     1       2.477   2.505  -0.141  0.00  0.00    +0.000 A 
ATOM      2  N   UNL     1       3.379   2.835  -1.049  0.00  0.00    +0.000 NA
ATOM      3  C   UNL     1       3.799   4.080  -0.659  0.00  0.00    +0.000 A 
ATOM      4  C   UNL     1       3.128   4.463   0.488  0.00  0.00    +0.000 A 
ATOM      5  O   UNL     1       2.274   3.457   0.829  0.00  0.00    +0.000 OA
ATOM      6  C   UNL     1       3.315   5.668   1.149  0.00  0.00    +0.000 A 
ATOM      7  C   UNL     1       4.263   6.534   0.581  0.00  0.00    +0.000 A 
ATOM      8  C   UNL     1       4.973   6.191  -0.587  0.00  0.00    +0.000 A 
ATOM      9  C   UNL     1       4.743   4.951  -1.219  0.00  0.00    +0.000 A 
ENDROOT
BRANCH   1  12
ATOM     10  C   UNL     1       1.113  -0.918  -0.921  0.00  0.00    +0.000 A 
ATOM     11  C   UNL     1       1.855   0.264  -0.990  0.00  0.00    +0.000 A 
ATOM     12  C   UNL     1       1.684   1.283  -0.038  0.00  0.00    +0.000 A 
ATOM     13  C   UNL     1       0.747   1.090   0.989  0.00  0.00    +0.000 A 
ATOM     14  C   UNL     1       0.008  -0.092   1.054  0.00  0.00    +0.000 A 
ATOM     15  C   UNL     1       0.187  -1.096   0.104  0.00  0.00    +0.000 A 
ATOM     16 CL   UNL     1      -1.137  -0.312   2.320  0.00  0.00    +0.000 Cl
ENDBRANCH   1  12
BRANCH   8  17
ATOM     17  C   UNL     1       5.987   7.117  -1.196  0.00  0.00    +0.000 C 
ATOM     18  O   UNL     1       6.556   6.734  -2.217  0.00  0.00    +0.000 OA
ATOM     19 CL   UNL     1       6.314   8.668  -0.452  0.00  0.00    +0.000 Cl
ENDBRANCH   8  17
TORSDOF 2
