REMARK  Name = *****
REMARK  2 active torsions:
REMARK  status: ('A' for Active; 'I' for Inactive)
REMARK    1  A    between atoms: C_5  and  C_7
REMARK    2  A    between atoms: C_8  and  C_10
REMARK                            x       y       z     vdW  Elec       q    Type
REMARK                         _______ _______ _______ _____ _____    ______ ____
ROOT
ATOM      1  C   UNL     1      -0.237  -2.405  -0.729  0.00  0.00    +0.000 C 
ATOM      2  C   UNL     1      -0.991  -3.654  -1.175  0.00  0.00    +0.000 C 
ATOM      3  O   UNL     1      -1.202  -3.058   0.113  0.00  0.00    +0.000 OA
ENDROOT
BRANCH   1   8
ATOM      4  C   UNL     1       3.505  -3.247  -0.676  0.00  0.00    +0.000 A 
ATOM      5  C   UNL     1       3.937  -2.607   0.480  0.00  0.00    +0.000 A 
ATOM      6  C   UNL     1       3.025  -1.891   1.251  0.00  0.00    +0.000 A 
ATOM      7  C   UNL     1       1.680  -1.822   0.867  0.00  0.00    +0.000 A 
ATOM      8  C   UNL     1       1.208  -2.474  -0.291  0.00  0.00    +0.000 A 
ATOM      9  C   UNL     1       2.161  -3.176  -1.055  0.00  0.00    +0.000 A 
ATOM     10 CL   UNL     1       0.616  -0.883   1.857  0.00  0.00    +0.000 Cl
ENDBRANCH   1   8
BRANCH   2  11
ATOM     11  C   UNL     1      -2.111  -3.538  -2.185  0.00  0.00    +0.000 A 
ATOM     12  C   UNL     1      -3.454  -3.614  -1.768  0.00  0.00    +0.000 A 
ATOM     13  C   UNL     1      -4.514  -3.520  -2.675  0.00  0.00    +0.000 A 
ATOM     14  C   UNL     1      -4.255  -3.352  -4.031  0.00  0.00    +0.000 A 
ATOM     15  C   UNL     1      -2.938  -3.281  -4.477  0.00  0.00    +0.000 A 
ATOM     16  C   UNL     1      -1.881  -3.375  -3.565  0.00  0.00    +0.000 A 
ATOM     17 CL   UNL     1      -0.271  -3.289  -4.191  0.00  0.00    +0.000 Cl
ENDBRANCH   2  11
TORSDOF 2
