REMARK  Name = *****
REMARK  3 active torsions:
REMARK  status: ('A' for Active; 'I' for Inactive)
REMARK    1  A    between atoms: C_1  and  C_2
REMARK    2  A    between atoms: C_4  and  C_8
REMARK    3  A    between atoms: C_9  and  C_10
REMARK                            x       y       z     vdW  Elec       q    Type
REMARK                         _______ _______ _______ _____ _____    ______ ____
ROOT
ATOM      1  C   UNL     1       2.509  -0.074   0.119  0.00  0.00    +0.000 C 
ATOM      2  C   UNL     1       1.015  -0.018  -0.003  0.00  0.00    +0.000 A 
ATOM      3  C   UNL     1       0.341   1.209   0.085  0.00  0.00    +0.000 A 
ATOM      4  C   UNL     1      -1.058   1.271   0.001  0.00  0.00    +0.000 A 
ATOM      5  C   UNL     1      -1.782   0.081  -0.134  0.00  0.00    +0.000 A 
ATOM      6  C   UNL     1      -1.120  -1.146  -0.208  0.00  0.00    +0.000 A 
ATOM      7  C   UNL     1       0.272  -1.195  -0.140  0.00  0.00    +0.000 A 
ENDROOT
BRANCH   4   8
ATOM      8  C   UNL     1      -1.791   2.540   0.112  0.00  0.00    +0.000 C 
ATOM      9  C   UNL     1      -1.416   3.671  -0.512  0.00  0.00    +0.000 C 
BRANCH   9  10
ATOM     10  C   UNL     1      -2.090   4.926  -0.448  0.00  0.00    +0.000 A 
ATOM     11  C   UNL     1      -3.219   5.240   0.278  0.00  0.00    +0.000 A 
ATOM     12  O   UNL     1      -3.564   6.541   0.084  0.00  0.00    +0.000 OA
ATOM     13  C   UNL     1      -2.650   7.067  -0.771  0.00  0.00    +0.000 A 
ATOM     14  C   UNL     1      -1.722   6.116  -1.128  0.00  0.00    +0.000 A 
ENDBRANCH   9  10
ENDBRANCH   4   8
TORSDOF 2
