REMARK  Name = *****
REMARK  4 active torsions:
REMARK  status: ('A' for Active; 'I' for Inactive)
REMARK    1  A    between atoms: C_1  and  C_2
REMARK    2  A    between atoms: C_5  and  C_8
REMARK    3  A    between atoms: N_9  and  C_10
REMARK    4  A    between atoms: C_13  and  C_16
REMARK                            x       y       z     vdW  Elec       q    Type
REMARK                         _______ _______ _______ _____ _____    ______ ____
ROOT
ATOM      1  C   UNL     1      -3.323   0.212  -0.197  0.00  0.00    +0.000 C 
ATOM      2  N   UNL     1      -3.989   1.238   0.234  0.00  0.00    +0.000 NA
ENDROOT
BRANCH   1   7
ATOM      3  C   UNL     1       2.439  -0.099   0.056  0.00  0.00    +0.000 C 
ATOM      4  C   UNL     1       0.945  -0.002  -0.034  0.00  0.00    +0.000 A 
ATOM      5  C   UNL     1       0.282   1.146   0.420  0.00  0.00    +0.000 A 
ATOM      6  C   UNL     1      -1.111   1.226   0.368  0.00  0.00    +0.000 A 
ATOM      7  C   UNL     1      -1.851   0.152  -0.131  0.00  0.00    +0.000 A 
ATOM      8  C   UNL     1      -1.202  -1.003  -0.574  0.00  0.00    +0.000 A 
ATOM      9  C   UNL     1       0.192  -1.080  -0.518  0.00  0.00    +0.000 A 
ENDBRANCH   1   7
BRANCH   2  10
ATOM     10  C   UNL     1      -5.383   1.160   0.110  0.00  0.00    +0.000 A 
ATOM     11  C   UNL     1      -6.145   0.427   1.022  0.00  0.00    +0.000 A 
ATOM     12  C   UNL     1      -7.536   0.369   0.899  0.00  0.00    +0.000 A 
ATOM     13  C   UNL     1      -8.184   1.046  -0.141  0.00  0.00    +0.000 A 
ATOM     14  C   UNL     1      -7.421   1.807  -1.035  0.00  0.00    +0.000 A 
ATOM     15  C   UNL     1      -6.030   1.861  -0.909  0.00  0.00    +0.000 A 
ATOM     16  C   UNL     1      -9.679   1.017  -0.249  0.00  0.00    +0.000 C 
ENDBRANCH   2  10
TORSDOF 2
