REMARK  Name = *****
REMARK  3 active torsions:
REMARK  status: ('A' for Active; 'I' for Inactive)
REMARK    1  A    between atoms: C_3  and  S_8
REMARK    2  A    between atoms: S_8  and  S_9
REMARK    3  A    between atoms: S_9  and  C_12
REMARK                            x       y       z     vdW  Elec       q    Type
REMARK                         _______ _______ _______ _____ _____    ______ ____
ROOT
ATOM      1  S   UNL     1      -4.378   1.960   0.230  0.00  0.00    +0.000 S 
ATOM      2  O   UNL     1      -4.067   2.117   1.637  0.00  0.00    +0.000 OA
ATOM      3  O   UNL     1      -3.890   2.900  -0.761  0.00  0.00    +0.000 OA
ENDROOT
BRANCH   1   4
ATOM      4  C   UNL     1      -6.151   1.899   0.077  0.00  0.00    +0.000 A 
ATOM      5  C   UNL     1      -6.932   1.573   1.193  0.00  0.00    +0.000 A 
ATOM      6  C   UNL     1      -8.321   1.547   1.072  0.00  0.00    +0.000 A 
ATOM      7  C   UNL     1      -8.912   1.854  -0.151  0.00  0.00    +0.000 A 
ATOM      8  C   UNL     1      -8.140   2.192  -1.259  0.00  0.00    +0.000 A 
ATOM      9  C   UNL     1      -6.749   2.222  -1.148  0.00  0.00    +0.000 A 
ATOM     10  F   UNL     1     -10.246   1.828  -0.262  0.00  0.00    +0.000 F 
ENDBRANCH   1   4
BRANCH   1  11
ATOM     11  S   UNL     1      -3.801   0.035  -0.358  0.00  0.00    +0.000 S 
BRANCH  11  14
ATOM     12  C   UNL     1      -0.148  -0.722   1.243  0.00  0.00    +0.000 A 
ATOM     13  C   UNL     1      -1.521  -0.728   0.986  0.00  0.00    +0.000 A 
ATOM     14  C   UNL     1      -2.051   0.074  -0.032  0.00  0.00    +0.000 A 
ATOM     15  C   UNL     1      -1.192   0.870  -0.801  0.00  0.00    +0.000 A 
ATOM     16  C   UNL     1       0.181   0.876  -0.541  0.00  0.00    +0.000 A 
ATOM     17  C   UNL     1       0.690   0.081   0.478  0.00  0.00    +0.000 A 
ATOM     18  F   UNL     1       2.006   0.085   0.724  0.00  0.00    +0.000 F 
ENDBRANCH  11  14
ENDBRANCH   1  11
TORSDOF 3
