REMARK  Name = *****
REMARK  2 active torsions:
REMARK  status: ('A' for Active; 'I' for Inactive)
REMARK    1  A    between atoms: C_5  and  S_6
REMARK    2  A    between atoms: S_6  and  C_7
REMARK                            x       y       z     vdW  Elec       q    Type
REMARK                         _______ _______ _______ _____ _____    ______ ____
ROOT
ATOM      1  C   UNL     1       1.901   0.586  -0.960  0.00  0.00    +0.000 C 
ATOM      2  C   UNL     1       1.578  -0.908  -0.969  0.00  0.00    +0.000 C 
ATOM      3  C   UNL     1       0.070  -1.165  -1.020  0.00  0.00    +0.000 C 
ATOM      4  C   UNL     1      -0.635  -0.430   0.099  0.00  0.00    +0.000 C 
ATOM      5  C   UNL     1      -1.437  -0.974   1.033  0.00  0.00    +0.000 C 
ATOM      6  C   UNL     1      -0.343   1.056   0.112  0.00  0.00    +0.000 C 
ATOM      7  C   UNL     1       1.164   1.313   0.163  0.00  0.00    +0.000 C 
ENDROOT
BRANCH   5   8
ATOM      8  S   UNL     1      -1.839  -2.657   1.126  0.00  0.00    +0.000 S 
BRANCH   8   9
ATOM      9  C   UNL     1      -2.550  -2.693   2.760  0.00  0.00    +0.000 A 
ATOM     10  C   UNL     1      -3.939  -2.704   2.920  0.00  0.00    +0.000 A 
ATOM     11  C   UNL     1      -4.499  -2.738   4.199  0.00  0.00    +0.000 A 
ATOM     12  C   UNL     1      -3.672  -2.765   5.322  0.00  0.00    +0.000 A 
ATOM     13  C   UNL     1      -2.287  -2.762   5.168  0.00  0.00    +0.000 A 
ATOM     14  C   UNL     1      -1.726  -2.729   3.890  0.00  0.00    +0.000 A 
ENDBRANCH   8   9
ENDBRANCH   5   8
TORSDOF 2
