REMARK  Name = *****
REMARK  4 active torsions:
REMARK  status: ('A' for Active; 'I' for Inactive)
REMARK    1  A    between atoms: C_1  and  C_10
REMARK    2  A    between atoms: C_2  and  C_3
REMARK    3  A    between atoms: C_8  and  C_9
REMARK    4  A    between atoms: C_15  and  C_16
REMARK                            x       y       z     vdW  Elec       q    Type
REMARK                         _______ _______ _______ _____ _____    ______ ____
ROOT
ATOM      1  C   UNL     1       2.359   0.052   0.484  0.00  0.00    +0.000 C 
ATOM      2  C   UNL     1       2.427   1.042  -0.419  0.00  0.00    +0.000 C 
ENDROOT
BRANCH   2   3
ATOM      3  C   UNL     1       1.793   2.350  -0.208  0.00  0.00    +0.000 A 
ATOM      4  C   UNL     1       0.412   2.413   0.038  0.00  0.00    +0.000 A 
ATOM      5  C   UNL     1      -0.227   3.641   0.218  0.00  0.00    +0.000 A 
ATOM      6  C   UNL     1       0.507   4.820   0.149  0.00  0.00    +0.000 A 
ATOM      7  C   UNL     1       1.879   4.773  -0.102  0.00  0.00    +0.000 A 
ATOM      8  C   UNL     1       2.536   3.545  -0.284  0.00  0.00    +0.000 A 
ATOM      9  C   UNL     1       4.018   3.539  -0.546  0.00  0.00    +0.000 C 
ENDBRANCH   2   3
BRANCH   1  10
ATOM     10  C   UNL     1       3.006  -1.244   0.253  0.00  0.00    +0.000 A 
ATOM     11  C   UNL     1       2.192  -2.319  -0.133  0.00  0.00    +0.000 A 
ATOM     12  C   UNL     1       2.745  -3.575  -0.381  0.00  0.00    +0.000 A 
ATOM     13  C   UNL     1       4.117  -3.767  -0.248  0.00  0.00    +0.000 A 
ATOM     14  C   UNL     1       4.936  -2.705   0.137  0.00  0.00    +0.000 A 
ATOM     15  C   UNL     1       4.393  -1.437   0.402  0.00  0.00    +0.000 A 
ATOM     16  C   UNL     1       5.313  -0.317   0.805  0.00  0.00    +0.000 C 
ENDBRANCH   1  10
TORSDOF 2
