REMARK  Name = *****
REMARK  2 active torsions:
REMARK  status: ('A' for Active; 'I' for Inactive)
REMARK    1  A    between atoms: C_7  and  C_8
REMARK    2  A    between atoms: C_9  and  C_10
REMARK                            x       y       z     vdW  Elec       q    Type
REMARK                         _______ _______ _______ _____ _____    ______ ____
ROOT
ATOM      1  C   UNL     1       0.959  -1.384   2.125  0.00  0.00    +0.000 C 
ATOM      2  C   UNL     1       1.235  -1.493   3.289  0.00  0.00    +0.000 C 
ENDROOT
BRANCH   1   9
ATOM      3  C   UNL     1       0.641   1.203   0.714  0.00  0.00    +0.000 C 
ATOM      4  C   UNL     1       1.266  -0.029  -0.029  0.00  0.00    +0.000 C 
ATOM      5  C   UNL     1       0.429  -0.018  -1.353  0.00  0.00    +0.000 C 
ATOM      6  C   UNL     1      -0.925  -0.021  -0.676  0.00  0.00    +0.000 C 
ATOM      7  C   UNL     1      -0.793   0.736   0.602  0.00  0.00    +0.000 C 
ATOM      8  C   UNL     1      -0.795  -0.762   0.618  0.00  0.00    +0.000 C 
ATOM      9  C   UNL     1       0.633  -1.257   0.707  0.00  0.00    +0.000 C 
ENDBRANCH   1   9
BRANCH   2  10
ATOM     10  C   UNL     1       1.566  -1.616   4.675  0.00  0.00    +0.000 A 
ATOM     11  C   UNL     1       1.872  -0.478   5.425  0.00  0.00    +0.000 A 
ATOM     12  C   UNL     1       2.197  -0.599   6.777  0.00  0.00    +0.000 A 
ATOM     13  C   UNL     1       2.214  -1.856   7.381  0.00  0.00    +0.000 A 
ATOM     14  C   UNL     1       1.907  -2.993   6.635  0.00  0.00    +0.000 A 
ATOM     15  C   UNL     1       1.583  -2.874   5.282  0.00  0.00    +0.000 A 
ENDBRANCH   2  10
TORSDOF 2
