REMARK  Name = *****
REMARK  3 active torsions:
REMARK  status: ('A' for Active; 'I' for Inactive)
REMARK    1  A    between atoms: C_4  and  C_7
REMARK    2  A    between atoms: C_7  and  S_8
REMARK    3  A    between atoms: S_8  and  C_9
REMARK                            x       y       z     vdW  Elec       q    Type
REMARK                         _______ _______ _______ _____ _____    ______ ____
ROOT
ATOM      1  C   UNL     1      -2.982   0.171  -0.140  0.00  0.00    +0.000 C 
ENDROOT
BRANCH   1   5
ATOM      2  C   UNL     1       1.322  -0.042   0.080  0.00  0.00    +0.000 A 
ATOM      3  C   UNL     1       0.582  -1.180  -0.236  0.00  0.00    +0.000 A 
ATOM      4  C   UNL     1      -0.810  -1.111  -0.310  0.00  0.00    +0.000 A 
ATOM      5  C   UNL     1      -1.477   0.100  -0.072  0.00  0.00    +0.000 A 
ATOM      6  C   UNL     1      -0.722   1.236   0.254  0.00  0.00    +0.000 A 
ATOM      7  C   UNL     1       0.670   1.165   0.327  0.00  0.00    +0.000 A 
ENDBRANCH   1   5
BRANCH   1   8
ATOM      8  S   UNL     1      -3.738  -0.252   1.460  0.00  0.00    +0.000 S 
BRANCH   8   9
ATOM      9  C   UNL     1      -5.389   0.201   1.180  0.00  0.00    +0.000 A 
ATOM     10  C   UNL     1      -6.001   1.031   2.034  0.00  0.00    +0.000 A 
ATOM     11  C   UNL     1      -7.414   1.357   1.760  0.00  0.00    +0.000 A 
ATOM     12  S   UNL     1      -8.369   2.339   2.718  0.00  0.00    +0.000 S 
ATOM     13  S   UNL     1      -7.990   0.617   0.278  0.00  0.00    +0.000 S 
ATOM     14  S   UNL     1      -6.310  -0.467  -0.129  0.00  0.00    +0.000 S 
ENDBRANCH   8   9
ENDBRANCH   1   8
TORSDOF 3
