REMARK  Name = *****
REMARK  5 active torsions:
REMARK  status: ('A' for Active; 'I' for Inactive)
REMARK    1  A    between atoms: C_1  and  C_2
REMARK    2  A    between atoms: C_4  and  C_8
REMARK    3  A    between atoms: C_8  and  O_10
REMARK    4  A    between atoms: O_10  and  C_11
REMARK    5  A    between atoms: C_11  and  C_12
REMARK                            x       y       z     vdW  Elec       q    Type
REMARK                         _______ _______ _______ _____ _____    ______ ____
ROOT
ATOM      1  C   UNL     1      -1.930   2.633   0.108  0.00  0.00    +0.000 C 
ATOM      2  O   UNL     1      -3.133   2.665   0.314  0.00  0.00    +0.000 OA
ENDROOT
BRANCH   1   6
ATOM      3  C   UNL     1       2.472   0.154  -0.042  0.00  0.00    +0.000 C 
ATOM      4  C   UNL     1       0.972   0.157  -0.001  0.00  0.00    +0.000 A 
ATOM      5  C   UNL     1       0.264   1.368   0.017  0.00  0.00    +0.000 A 
ATOM      6  C   UNL     1      -1.137   1.374   0.090  0.00  0.00    +0.000 A 
ATOM      7  C   UNL     1      -1.828   0.157   0.162  0.00  0.00    +0.000 A 
ATOM      8  C   UNL     1      -1.128  -1.049   0.158  0.00  0.00    +0.000 A 
ATOM      9  C   UNL     1       0.265  -1.049   0.081  0.00  0.00    +0.000 A 
ENDBRANCH   1   6
BRANCH   1  10
ATOM     10  O   UNL     1      -1.133   3.696  -0.151  0.00  0.00    +0.000 OA
BRANCH  10  11
ATOM     11  C   UNL     1      -1.772   4.978  -0.128  0.00  0.00    +0.000 C 
BRANCH  11  12
ATOM     12  C   UNL     1      -1.458   5.661   1.177  0.00  0.00    +0.000 A 
ATOM     13  C   UNL     1      -0.290   6.423   1.322  0.00  0.00    +0.000 A 
ATOM     14  C   UNL     1       0.008   7.037   2.540  0.00  0.00    +0.000 A 
ATOM     15  C   UNL     1      -0.853   6.887   3.625  0.00  0.00    +0.000 A 
ATOM     16  C   UNL     1      -2.010   6.121   3.496  0.00  0.00    +0.000 A 
ATOM     17  C   UNL     1      -2.310   5.507   2.279  0.00  0.00    +0.000 A 
ENDBRANCH  11  12
ENDBRANCH  10  11
ENDBRANCH   1  10
TORSDOF 4
