REMARK  Name = *****
REMARK  4 active torsions:
REMARK  status: ('A' for Active; 'I' for Inactive)
REMARK    1  A    between atoms: C_1  and  C_2
REMARK    2  A    between atoms: C_2  and  O_10
REMARK    3  A    between atoms: C_3  and  C_4
REMARK    4  A    between atoms: O_10  and  C_11
REMARK                            x       y       z     vdW  Elec       q    Type
REMARK                         _______ _______ _______ _____ _____    ______ ____
ROOT
ATOM      1  C   UNL     1       1.171  -0.095   0.503  0.00  0.00    +0.000 C 
ATOM      2  C   UNL     1       2.574   0.004  -0.020  0.00  0.00    +0.000 C 
ATOM      3  C   UNL     1       3.111   1.079  -0.629  0.00  0.00    +0.000 C 
ENDROOT
BRANCH   3   4
ATOM      4  C   UNL     1       2.447   2.371  -0.807  0.00  0.00    +0.000 A 
ATOM      5  C   UNL     1       2.226   3.220   0.284  0.00  0.00    +0.000 A 
ATOM      6  C   UNL     1       1.599   4.453   0.100  0.00  0.00    +0.000 A 
ATOM      7  C   UNL     1       1.192   4.845  -1.175  0.00  0.00    +0.000 A 
ATOM      8  C   UNL     1       1.414   4.007  -2.267  0.00  0.00    +0.000 A 
ATOM      9  C   UNL     1       2.043   2.773  -2.084  0.00  0.00    +0.000 A 
ENDBRANCH   3   4
BRANCH   2  10
ATOM     10  O   UNL     1       3.273  -1.197   0.083  0.00  0.00    +0.000 OA
BRANCH  10  11
ATOM     11  C   UNL     1       4.500  -1.197   0.707  0.00  0.00    +0.000 A 
ATOM     12  C   UNL     1       4.793  -0.418   1.830  0.00  0.00    +0.000 A 
ATOM     13  C   UNL     1       6.053  -0.502   2.424  0.00  0.00    +0.000 A 
ATOM     14  C   UNL     1       7.014  -1.371   1.906  0.00  0.00    +0.000 A 
ATOM     15  C   UNL     1       6.714  -2.164   0.798  0.00  0.00    +0.000 A 
ATOM     16  C   UNL     1       5.455  -2.081   0.203  0.00  0.00    +0.000 A 
ENDBRANCH  10  11
ENDBRANCH   2  10
TORSDOF 3
