REMARK  Name = *****
REMARK  5 active torsions:
REMARK  status: ('A' for Active; 'I' for Inactive)
REMARK    1  A    between atoms: C_1  and  S_2
REMARK    2  A    between atoms: S_2  and  C_3
REMARK    3  A    between atoms: C_6  and  S_9
REMARK    4  A    between atoms: S_9  and  C_10
REMARK    5  A    between atoms: C_10  and  C_11
REMARK                            x       y       z     vdW  Elec       q    Type
REMARK                         _______ _______ _______ _____ _____    ______ ____
ROOT
ATOM      1  C   UNL     1       3.263  -0.729   1.657  0.00  0.00    +0.000 A 
ATOM      2  C   UNL     1       3.957   0.052   2.586  0.00  0.00    +0.000 A 
ATOM      3  C   UNL     1       4.307  -0.476   3.833  0.00  0.00    +0.000 A 
ATOM      4  C   UNL     1       3.952  -1.785   4.170  0.00  0.00    +0.000 A 
ATOM      5  C   UNL     1       3.260  -2.566   3.241  0.00  0.00    +0.000 A 
ATOM      6  C   UNL     1       2.909  -2.037   1.995  0.00  0.00    +0.000 A 
ENDROOT
BRANCH   1   8
ATOM      7  C   UNL     1       4.430   0.279  -0.616  0.00  0.00    +0.000 C 
ATOM      8  S   UNL     1       2.790  -0.080   0.066  0.00  0.00    +0.000 S 
ENDBRANCH   1   8
BRANCH   4   9
ATOM      9  S   UNL     1       4.392  -2.491   5.745  0.00  0.00    +0.000 S 
BRANCH   9  10
ATOM     10  C   UNL     1       3.458  -1.378   6.848  0.00  0.00    +0.000 C 
BRANCH  10  11
ATOM     11  C   UNL     1       3.518  -1.843   8.281  0.00  0.00    +0.000 A 
ATOM     12  C   UNL     1       4.569  -1.440   9.118  0.00  0.00    +0.000 A 
ATOM     13  C   UNL     1       4.628  -1.879  10.442  0.00  0.00    +0.000 A 
ATOM     14  C   UNL     1       3.642  -2.729  10.941  0.00  0.00    +0.000 A 
ATOM     15  C   UNL     1       2.598  -3.143  10.116  0.00  0.00    +0.000 A 
ATOM     16  C   UNL     1       2.537  -2.706   8.792  0.00  0.00    +0.000 A 
ENDBRANCH  10  11
ENDBRANCH   9  10
ENDBRANCH   4   9
TORSDOF 4
