REMARK  Name = *****
REMARK  3 active torsions:
REMARK  status: ('A' for Active; 'I' for Inactive)
REMARK    1  A    between atoms: C_1  and  C_2
REMARK    2  A    between atoms: C_5  and  C_8
REMARK    3  A    between atoms: N_10  and  C_11
REMARK                            x       y       z     vdW  Elec       q    Type
REMARK                         _______ _______ _______ _____ _____    ______ ____
ROOT
ATOM      1  C   UNL     1      -3.276  -0.002   0.227  0.00  0.00    +0.000 C 
ATOM      2  O   UNL     1      -3.843  -1.080   0.405  0.00  0.00    +0.000 OA
ATOM      3  N   UNL     1      -3.889   1.254   0.044  0.00  0.00    +0.000 N 
ATOM      4 CL   UNL     1      -2.931   2.666   0.268  0.00  0.00    +0.000 Cl
ENDROOT
BRANCH   1   9
ATOM      5  C   UNL     1       2.492  -0.409   0.263  0.00  0.00    +0.000 C 
ATOM      6  C   UNL     1       0.997  -0.271   0.259  0.00  0.00    +0.000 A 
ATOM      7  C   UNL     1       0.332   0.188  -0.887  0.00  0.00    +0.000 A 
ATOM      8  C   UNL     1      -1.060   0.286  -0.906  0.00  0.00    +0.000 A 
ATOM      9  C   UNL     1      -1.794  -0.070   0.231  0.00  0.00    +0.000 A 
ATOM     10  C   UNL     1      -1.144  -0.568   1.364  0.00  0.00    +0.000 A 
ATOM     11  C   UNL     1       0.248  -0.665   1.376  0.00  0.00    +0.000 A 
ENDBRANCH   1   9
BRANCH   3  12
ATOM     12  C   UNL     1      -5.304   1.417  -0.186  0.00  0.00    +0.000 A 
ATOM     13  C   UNL     1      -6.129   0.339  -0.547  0.00  0.00    +0.000 A 
ATOM     14  C   UNL     1      -7.501   0.507  -0.780  0.00  0.00    +0.000 A 
ATOM     15  C   UNL     1      -8.083   1.763  -0.666  0.00  0.00    +0.000 A 
ATOM     16  C   UNL     1      -7.292   2.851  -0.324  0.00  0.00    +0.000 A 
ATOM     17  C   UNL     1      -5.921   2.680  -0.091  0.00  0.00    +0.000 A 
ENDBRANCH   3  12
TORSDOF 2
