REMARK  Name = *****
REMARK  3 active torsions:
REMARK  status: ('A' for Active; 'I' for Inactive)
REMARK    1  A    between atoms: C_4  and  N_7
REMARK    2  A    between atoms: N_7  and  C_8
REMARK    3  A    between atoms: C_8  and  C_9
REMARK                            x       y       z     vdW  Elec       q    Type
REMARK                         _______ _______ _______ _____ _____    ______ ____
ROOT
ATOM      1  C   UNL     1       3.559  -1.319   0.293  0.00  0.00    +0.000 C 
ENDROOT
BRANCH   1   2
ATOM      2  C   UNL     1       4.917  -1.655  -0.178  0.00  0.00    +0.000 A 
ATOM      3  C   UNL     1       5.402  -1.141  -1.387  0.00  0.00    +0.000 A 
ATOM      4  C   UNL     1       6.689  -1.470  -1.814  0.00  0.00    +0.000 A 
ATOM      5  C   UNL     1       7.477  -2.307  -1.031  0.00  0.00    +0.000 A 
ATOM      6  C   UNL     1       7.004  -2.823   0.172  0.00  0.00    +0.000 A 
ATOM      7  C   UNL     1       5.716  -2.496   0.604  0.00  0.00    +0.000 A 
ATOM      8  F   UNL     1       8.713  -2.623  -1.440  0.00  0.00    +0.000 F 
ENDBRANCH   1   2
BRANCH   1   9
ATOM      9  N   UNL     1       2.775  -0.555  -0.387  0.00  0.00    +0.000 NA
BRANCH   9  13
ATOM     10  C   UNL     1      -1.405   0.296  -0.187  0.00  0.00    +0.000 C 
ATOM     11  C   UNL     1      -0.945  -1.101   0.219  0.00  0.00    +0.000 C 
ATOM     12  C   UNL     1       0.476  -1.387  -0.260  0.00  0.00    +0.000 C 
ATOM     13  C   UNL     1       1.460  -0.317   0.225  0.00  0.00    +0.000 C 
ATOM     14  C   UNL     1       0.994   1.082  -0.196  0.00  0.00    +0.000 C 
ATOM     15  C   UNL     1      -0.426   1.369   0.283  0.00  0.00    +0.000 C 
ENDBRANCH   9  13
ENDBRANCH   1   9
TORSDOF 3
