REMARK  Name = *****
REMARK  5 active torsions:
REMARK  status: ('A' for Active; 'I' for Inactive)
REMARK    1  A    between atoms: C_1  and  C_2
REMARK    2  A    between atoms: C_5  and  C_8
REMARK    3  A    between atoms: C_8  and  O_9
REMARK    4  A    between atoms: O_9  and  N_10
REMARK    5  A    between atoms: C_11  and  C_12
REMARK                            x       y       z     vdW  Elec       q    Type
REMARK                         _______ _______ _______ _____ _____    ______ ____
ROOT
ATOM      1  O   UNL     1      -3.638   1.344  -0.172  0.00  0.00    +0.000 OA
ENDROOT
BRANCH   1   2
ATOM      2  N   UNL     1      -5.035   1.413  -0.245  0.00  0.00    +0.000 NA
ATOM      3  C   UNL     1      -5.459   2.590  -0.600  0.00  0.00    +0.000 C 
BRANCH   3   4
ATOM      4  C   UNL     1      -4.699   3.796  -0.998  0.00  0.00    +0.000 A 
ATOM      5  C   UNL     1      -3.495   3.733  -1.704  0.00  0.00    +0.000 A 
ATOM      6  C   UNL     1      -2.847   4.911  -2.082  0.00  0.00    +0.000 A 
ATOM      7  C   UNL     1      -3.406   6.150  -1.770  0.00  0.00    +0.000 A 
ATOM      8  C   UNL     1      -4.617   6.215  -1.083  0.00  0.00    +0.000 A 
ATOM      9  C   UNL     1      -5.268   5.040  -0.702  0.00  0.00    +0.000 A 
ENDBRANCH   3   4
ENDBRANCH   1   2
BRANCH   1  10
ATOM     10  C   UNL     1      -3.258   0.031   0.235  0.00  0.00    +0.000 C 
BRANCH  10  15
ATOM     11  C   UNL     1       2.556  -0.282   0.069  0.00  0.00    +0.000 C 
ATOM     12  C   UNL     1       1.060  -0.179   0.104  0.00  0.00    +0.000 A 
ATOM     13  C   UNL     1       0.408   0.328   1.233  0.00  0.00    +0.000 A 
ATOM     14  C   UNL     1      -0.987   0.395   1.275  0.00  0.00    +0.000 A 
ATOM     15  C   UNL     1      -1.755  -0.062   0.196  0.00  0.00    +0.000 A 
ATOM     16  C   UNL     1      -1.100  -0.570  -0.933  0.00  0.00    +0.000 A 
ATOM     17  C   UNL     1       0.295  -0.637  -0.975  0.00  0.00    +0.000 A 
ENDBRANCH  10  15
ENDBRANCH   1  10
TORSDOF 4
