REMARK  Name = *****
REMARK  3 active torsions:
REMARK  status: ('A' for Active; 'I' for Inactive)
REMARK    1  A    between atoms: C_4  and  C_7
REMARK    2  A    between atoms: C_8  and  C_9
REMARK    3  A    between atoms: C_14  and  C_15
REMARK                            x       y       z     vdW  Elec       q    Type
REMARK                         _______ _______ _______ _____ _____    ______ ____
ROOT
ATOM      1  C   UNL     1      -5.161  -0.264  -0.340  0.00  0.00    +0.000 A 
ATOM      2  C   UNL     1      -5.935  -0.468   0.813  0.00  0.00    +0.000 A 
ATOM      3  C   UNL     1      -7.296  -0.155   0.827  0.00  0.00    +0.000 A 
ATOM      4  C   UNL     1      -7.903   0.374  -0.310  0.00  0.00    +0.000 A 
ATOM      5  C   UNL     1      -7.151   0.577  -1.466  0.00  0.00    +0.000 A 
ATOM      6  C   UNL     1      -5.786   0.246  -1.492  0.00  0.00    +0.000 A 
ENDROOT
BRANCH   6   7
ATOM      7  C   UNL     1      -5.067   0.454  -2.778  0.00  0.00    +0.000 C 
ATOM      8  O   UNL     1      -5.241   1.536  -3.337  0.00  0.00    +0.000 OA
ATOM      9 CL   UNL     1      -4.130  -0.860  -3.451  0.00  0.00    +0.000 Cl
ENDBRANCH   6   7
BRANCH   1  11
ATOM     10  C   UNL     1      -2.807   0.421  -0.255  0.00  0.00    +0.000 C 
ATOM     11  C   UNL     1      -3.727  -0.556  -0.242  0.00  0.00    +0.000 C 
BRANCH  10  15
ATOM     12  C   UNL     1       1.409  -0.213   0.049  0.00  0.00    +0.000 A 
ATOM     13  C   UNL     1       0.643  -1.060  -0.750  0.00  0.00    +0.000 A 
ATOM     14  C   UNL     1      -0.737  -0.867  -0.851  0.00  0.00    +0.000 A 
ATOM     15  C   UNL     1      -1.364   0.169  -0.147  0.00  0.00    +0.000 A 
ATOM     16  C   UNL     1      -0.582   1.024   0.638  0.00  0.00    +0.000 A 
ATOM     17  C   UNL     1       0.798   0.830   0.741  0.00  0.00    +0.000 A 
ENDBRANCH  10  15
ENDBRANCH   1  11
TORSDOF 3
