REMARK  Name = *****
REMARK  4 active torsions:
REMARK  status: ('A' for Active; 'I' for Inactive)
REMARK    1  A    between atoms: C_1  and  S_2
REMARK    2  A    between atoms: S_2  and  C_3
REMARK    3  A    between atoms: C_8  and  C_9
REMARK    4  A    between atoms: C_10  and  C_11
REMARK                            x       y       z     vdW  Elec       q    Type
REMARK                         _______ _______ _______ _____ _____    ______ ____
ROOT
ATOM      1  C   UNL     1       5.120  -0.201   2.160  0.00  0.00    +0.000 C 
ATOM      2  C   UNL     1       5.684  -1.257   2.264  0.00  0.00    +0.000 C 
ENDROOT
BRANCH   2   3
ATOM      3  C   UNL     1       6.341  -2.521   2.376  0.00  0.00    +0.000 A 
ATOM      4  C   UNL     1       7.735  -2.581   2.467  0.00  0.00    +0.000 A 
ATOM      5  C   UNL     1       8.374  -3.818   2.574  0.00  0.00    +0.000 A 
ATOM      6  C   UNL     1       7.613  -4.983   2.590  0.00  0.00    +0.000 A 
ATOM      7  C   UNL     1       6.226  -4.935   2.501  0.00  0.00    +0.000 A 
ATOM      8  C   UNL     1       5.586  -3.699   2.393  0.00  0.00    +0.000 A 
ATOM      9  F   UNL     1       8.227  -6.169   2.694  0.00  0.00    +0.000 F 
ENDBRANCH   2   3
BRANCH   1  15
ATOM     10  C   UNL     1       3.405   1.256   1.098  0.00  0.00    +0.000 A 
ATOM     11  C   UNL     1       2.768   2.504   1.042  0.00  0.00    +0.000 A 
ATOM     12  C   UNL     1       3.162   3.544   1.887  0.00  0.00    +0.000 A 
ATOM     13  C   UNL     1       4.193   3.345   2.800  0.00  0.00    +0.000 A 
ATOM     14  C   UNL     1       4.829   2.105   2.873  0.00  0.00    +0.000 A 
ATOM     15  C   UNL     1       4.440   1.055   2.030  0.00  0.00    +0.000 A 
BRANCH  10  17
ATOM     16  C   UNL     1       4.129   0.092  -1.272  0.00  0.00    +0.000 C 
ATOM     17  S   UNL     1       2.822  -0.017  -0.022  0.00  0.00    +0.000 S 
ENDBRANCH  10  17
ENDBRANCH   1  15
TORSDOF 3
