REMARK  Name = *****
REMARK  3 active torsions:
REMARK  status: ('A' for Active; 'I' for Inactive)
REMARK    1  A    between atoms: C_5  and  C_7
REMARK    2  A    between atoms: C_7  and  O_9
REMARK    3  A    between atoms: O_9  and  C_10
REMARK                            x       y       z     vdW  Elec       q    Type
REMARK                         _______ _______ _______ _____ _____    ______ ____
ROOT
ATOM      1  C   UNL     1       1.093  -1.945   0.879  0.00  0.00    +0.000 C 
ATOM      2  O   UNL     1       0.681  -3.074   1.110  0.00  0.00    +0.000 OA
ENDROOT
BRANCH   1   7
ATOM      3  C   UNL     1      -2.000  -0.117  -0.248  0.00  0.00    +0.000 A 
ATOM      4  C   UNL     1      -1.466   1.008  -0.876  0.00  0.00    +0.000 A 
ATOM      5  C   UNL     1      -0.083   1.176  -0.942  0.00  0.00    +0.000 A 
ATOM      6  C   UNL     1       0.764   0.224  -0.374  0.00  0.00    +0.000 A 
ATOM      7  C   UNL     1       0.242  -0.900   0.267  0.00  0.00    +0.000 A 
ATOM      8  C   UNL     1      -1.150  -1.070   0.319  0.00  0.00    +0.000 A 
ATOM      9  F   UNL     1       2.085   0.419  -0.486  0.00  0.00    +0.000 F 
ENDBRANCH   1   7
BRANCH   1  10
ATOM     10  O   UNL     1       2.330  -1.428   1.204  0.00  0.00    +0.000 OA
BRANCH  10  11
ATOM     11  C   UNL     1       3.190  -2.397   1.729  0.00  0.00    +0.000 A 
ATOM     12  C   UNL     1       3.271  -2.521   3.117  0.00  0.00    +0.000 A 
ATOM     13  C   UNL     1       4.148  -3.455   3.670  0.00  0.00    +0.000 A 
ATOM     14  C   UNL     1       4.945  -4.245   2.838  0.00  0.00    +0.000 A 
ATOM     15  C   UNL     1       4.873  -4.101   1.449  0.00  0.00    +0.000 A 
ATOM     16  C   UNL     1       3.997  -3.170   0.890  0.00  0.00    +0.000 A 
ATOM     17 CL   UNL     1       3.950  -2.992  -0.825  0.00  0.00    +0.000 Cl
ENDBRANCH  10  11
ENDBRANCH   1  10
TORSDOF 3
