REMARK  Name = *****
REMARK  4 active torsions:
REMARK  status: ('A' for Active; 'I' for Inactive)
REMARK    1  A    between atoms: C_4  and  C_7
REMARK    2  A    between atoms: C_7  and  C_8
REMARK    3  A    between atoms: C_7  and  S_10
REMARK    4  A    between atoms: S_10  and  C_11
REMARK                            x       y       z     vdW  Elec       q    Type
REMARK                         _______ _______ _______ _____ _____    ______ ____
ROOT
ATOM      1  C   UNL     1      -2.693   0.540  -0.560  0.00  0.00    +0.000 C 
ENDROOT
BRANCH   1   5
ATOM      2  C   UNL     1       1.374  -0.671   0.323  0.00  0.00    +0.000 A 
ATOM      3  C   UNL     1       0.482  -0.385   1.353  0.00  0.00    +0.000 A 
ATOM      4  C   UNL     1      -0.826   0.005   1.058  0.00  0.00    +0.000 A 
ATOM      5  C   UNL     1      -1.258   0.123  -0.275  0.00  0.00    +0.000 A 
ATOM      6  C   UNL     1      -0.347  -0.180  -1.302  0.00  0.00    +0.000 A 
ATOM      7  C   UNL     1       0.959  -0.572  -1.003  0.00  0.00    +0.000 A 
ENDBRANCH   1   5
BRANCH   1   8
ATOM      8  C   UNL     1      -2.839   1.419  -1.793  0.00  0.00    +0.000 C 
ATOM      9  O   UNL     1      -3.788   1.434  -2.573  0.00  0.00    +0.000 OA
ENDBRANCH   1   8
BRANCH   1  10
ATOM     10  S   UNL     1      -3.876  -0.862  -0.524  0.00  0.00    +0.000 S 
BRANCH  10  11
ATOM     11  C   UNL     1      -3.233  -1.921  -1.804  0.00  0.00    +0.000 A 
ATOM     12  C   UNL     1      -2.373  -2.973  -1.472  0.00  0.00    +0.000 A 
ATOM     13  C   UNL     1      -1.868  -3.815  -2.466  0.00  0.00    +0.000 A 
ATOM     14  C   UNL     1      -2.238  -3.614  -3.794  0.00  0.00    +0.000 A 
ATOM     15  C   UNL     1      -3.113  -2.584  -4.134  0.00  0.00    +0.000 A 
ATOM     16  C   UNL     1      -3.615  -1.743  -3.138  0.00  0.00    +0.000 A 
ATOM     17 CL   UNL     1      -1.614  -4.646  -5.021  0.00  0.00    +0.000 Cl
ENDBRANCH  10  11
ENDBRANCH   1  10
TORSDOF 4
