REMARK  Name = *****
REMARK  6 active torsions:
REMARK  status: ('A' for Active; 'I' for Inactive)
REMARK    1  A    between atoms: C_1  and  C_2
REMARK    2  A    between atoms: C_5  and  S_8
REMARK    3  A    between atoms: S_8  and  O_10
REMARK    4  A    between atoms: O_10  and  C_11
REMARK    5  A    between atoms: C_14  and  O_17
REMARK    6  A    between atoms: O_17  and  C_18
REMARK                            x       y       z     vdW  Elec       q    Type
REMARK                         _______ _______ _______ _____ _____    ______ ____
ROOT
ATOM      1  S   UNL     1      -3.682  -0.334  -0.555  0.00  0.00    +0.000 S 
ATOM      2  O   UNL     1      -4.027  -1.275   0.563  0.00  0.00    +0.000 OA
ENDROOT
BRANCH   1   7
ATOM      3  C   UNL     1       2.276   0.953   0.027  0.00  0.00    +0.000 C 
ATOM      4  C   UNL     1       0.810   0.660  -0.091  0.00  0.00    +0.000 A 
ATOM      5  C   UNL     1       0.186  -0.211   0.811  0.00  0.00    +0.000 A 
ATOM      6  C   UNL     1      -1.174  -0.509   0.682  0.00  0.00    +0.000 A 
ATOM      7  C   UNL     1      -1.925   0.054  -0.354  0.00  0.00    +0.000 A 
ATOM      8  C   UNL     1      -1.298   0.908  -1.269  0.00  0.00    +0.000 A 
ATOM      9  C   UNL     1       0.061   1.206  -1.140  0.00  0.00    +0.000 A 
ENDBRANCH   1   7
BRANCH   1  10
ATOM     10  O   UNL     1      -4.140   1.145  -0.098  0.00  0.00    +0.000 OA
BRANCH  10  11
ATOM     11  C   UNL     1      -5.274   1.610  -0.710  0.00  0.00    +0.000 A 
ATOM     12  C   UNL     1      -6.517   1.002  -0.523  0.00  0.00    +0.000 A 
ATOM     13  C   UNL     1      -7.654   1.530  -1.143  0.00  0.00    +0.000 A 
ATOM     14  C   UNL     1      -7.552   2.676  -1.935  0.00  0.00    +0.000 A 
ATOM     15  C   UNL     1      -6.307   3.294  -2.090  0.00  0.00    +0.000 A 
ATOM     16  C   UNL     1      -5.170   2.770  -1.473  0.00  0.00    +0.000 A 
BRANCH  14  17
ATOM     17  O   UNL     1      -8.580   3.292  -2.595  0.00  0.00    +0.000 OA
ATOM     18  C   UNL     1      -9.865   2.694  -2.484  0.00  0.00    +0.000 C 
ENDBRANCH  14  17
ENDBRANCH  10  11
ENDBRANCH   1  10
TORSDOF 4
