REMARK  Name = *****
REMARK  3 active torsions:
REMARK  status: ('A' for Active; 'I' for Inactive)
REMARK    1  A    between atoms: C_1  and  C_2
REMARK    2  A    between atoms: C_5  and  S_8
REMARK    3  A    between atoms: S_8  and  C_10
REMARK                            x       y       z     vdW  Elec       q    Type
REMARK                         _______ _______ _______ _____ _____    ______ ____
ROOT
ATOM      1  S   UNL     1      -3.192  -0.012  -0.455  0.00  0.00    +0.000 S 
ATOM      2  O   UNL     1      -1.882   0.017  -1.190  0.00  0.00    +0.000 OA
ENDROOT
BRANCH   1   3
ATOM      3  C   UNL     1      -3.872   1.636  -0.559  0.00  0.00    +0.000 C 
ATOM      4  C   UNL     1      -3.209   2.731  -0.142  0.00  0.00    +0.000 C 
ATOM      5  C   UNL     1      -3.827   4.107  -0.282  0.00  0.00    +0.000 C 
ATOM      6  C   UNL     1      -2.918   5.025  -1.101  0.00  0.00    +0.000 C 
ATOM      7  C   UNL     1      -1.501   5.080  -0.528  0.00  0.00    +0.000 C 
ATOM      8  C   UNL     1      -0.907   3.682  -0.356  0.00  0.00    +0.000 C 
ATOM      9  C   UNL     1      -1.825   2.775   0.465  0.00  0.00    +0.000 C 
ATOM     10  F   UNL     1      -5.123   1.792  -1.053  0.00  0.00    +0.000 F 
ENDBRANCH   1   3
BRANCH   1  15
ATOM     11  C   UNL     1      -7.090  -3.119  -4.006  0.00  0.00    +0.000 C 
ATOM     12  C   UNL     1      -6.144  -2.331  -3.149  0.00  0.00    +0.000 A 
ATOM     13  C   UNL     1      -6.497  -1.978  -1.841  0.00  0.00    +0.000 A 
ATOM     14  C   UNL     1      -5.604  -1.271  -1.032  0.00  0.00    +0.000 A 
ATOM     15  C   UNL     1      -4.342  -0.913  -1.520  0.00  0.00    +0.000 A 
ATOM     16  C   UNL     1      -3.979  -1.285  -2.817  0.00  0.00    +0.000 A 
ATOM     17  C   UNL     1      -4.873  -1.992  -3.625  0.00  0.00    +0.000 A 
ENDBRANCH   1  15
TORSDOF 2
