REMARK  Name = *****
REMARK  8 active torsions:
REMARK  status: ('A' for Active; 'I' for Inactive)
REMARK    1  A    between atoms: C_1  and  C_2
REMARK    2  A    between atoms: C_4  and  C_8
REMARK    3  A    between atoms: C_8  and  N_9
REMARK    4  A    between atoms: N_9  and  C_10
REMARK    5  A    between atoms: N_9  and  O_18
REMARK    6  A    between atoms: C_10  and  C_11
REMARK    7  A    between atoms: C_15  and  C_17
REMARK    8  A    between atoms: O_18  and  C_19
REMARK                            x       y       z     vdW  Elec       q    Type
REMARK                         _______ _______ _______ _____ _____    ______ ____
ROOT
ATOM      1  N   UNL     1      -0.892   3.476  -0.390  0.00  0.00    +0.000 NA
ENDROOT
BRANCH   1   2
ATOM      2  O   UNL     1      -1.792   4.633  -0.433  0.00  0.00    +0.000 OA
ATOM      3  C   UNL     1      -1.337   5.594   0.517  0.00  0.00    +0.000 C 
ENDBRANCH   1   2
BRANCH   1   4
ATOM      4  C   UNL     1      -1.761   2.357   0.018  0.00  0.00    +0.000 C 
BRANCH   4   8
ATOM      5  C   UNL     1       2.083  -0.306   1.940  0.00  0.00    +0.000 C 
ATOM      6  C   UNL     1       0.814  -0.250   1.142  0.00  0.00    +0.000 A 
ATOM      7  C   UNL     1       0.135   0.965   0.976  0.00  0.00    +0.000 A 
ATOM      8  C   UNL     1      -1.025   1.043   0.188  0.00  0.00    +0.000 A 
ATOM      9  C   UNL     1      -1.507  -0.122  -0.424  0.00  0.00    +0.000 A 
ATOM     10  C   UNL     1      -0.831  -1.332  -0.271  0.00  0.00    +0.000 A 
ATOM     11  C   UNL     1       0.328  -1.394   0.502  0.00  0.00    +0.000 A 
ENDBRANCH   4   8
ENDBRANCH   1   4
BRANCH   1  12
ATOM     12  C   UNL     1      -0.417   3.300  -1.777  0.00  0.00    +0.000 C 
BRANCH  12  13
ATOM     13  C   UNL     1       0.590   4.354  -2.197  0.00  0.00    +0.000 A 
ATOM     14  C   UNL     1       1.754   4.568  -1.444  0.00  0.00    +0.000 A 
ATOM     15  C   UNL     1       2.699   5.509  -1.852  0.00  0.00    +0.000 A 
ATOM     16  C   UNL     1       2.498   6.239  -3.023  0.00  0.00    +0.000 A 
ATOM     17  C   UNL     1       1.344   6.043  -3.790  0.00  0.00    +0.000 A 
ATOM     18  C   UNL     1       0.401   5.091  -3.376  0.00  0.00    +0.000 A 
ATOM     19  C   UNL     1       1.155   6.789  -5.077  0.00  0.00    +0.000 C 
ENDBRANCH  12  13
ENDBRANCH   1  12
TORSDOF 5
