REMARK  Name = *****
REMARK  1 active torsions:
REMARK  status: ('A' for Active; 'I' for Inactive)
REMARK    1  A    between atoms: C_9  and  C_11
REMARK                            x       y       z     vdW  Elec       q    Type
REMARK                         _______ _______ _______ _____ _____    ______ ____
ROOT
ATOM      1  C   UNL     1      -1.222   1.377   0.154  0.00  0.00    +0.000 C 
ATOM      2  C   UNL     1       0.099   0.688   0.079  0.00  0.00    +0.000 A 
ATOM      3  C   UNL     1       1.303   1.406   0.118  0.00  0.00    +0.000 A 
ATOM      4  C   UNL     1       2.522   0.731   0.066  0.00  0.00    +0.000 A 
ATOM      5  C   UNL     1       2.541  -0.659  -0.018  0.00  0.00    +0.000 A 
ATOM      6  C   UNL     1       1.340  -1.370  -0.050  0.00  0.00    +0.000 A 
ATOM      7  C   UNL     1       0.116  -0.700  -0.002  0.00  0.00    +0.000 A 
ATOM      8  N   UNL     1      -1.065  -1.438  -0.047  0.00  0.00    +0.000 NA
ATOM      9  C   UNL     1      -2.192  -0.809  -0.105  0.00  0.00    +0.000 C 
ATOM     10  O   UNL     1      -2.359   0.532  -0.087  0.00  0.00    +0.000 OA
ENDROOT
BRANCH   9  11
ATOM     11  C   UNL     1      -3.500  -1.508  -0.198  0.00  0.00    +0.000 A 
ATOM     12  C   UNL     1      -3.538  -2.900  -0.023  0.00  0.00    +0.000 A 
ATOM     13  C   UNL     1      -4.750  -3.591  -0.111  0.00  0.00    +0.000 A 
ATOM     14  C   UNL     1      -5.927  -2.895  -0.378  0.00  0.00    +0.000 A 
ATOM     15  C   UNL     1      -5.903  -1.513  -0.557  0.00  0.00    +0.000 A 
ATOM     16  C   UNL     1      -4.692  -0.819  -0.467  0.00  0.00    +0.000 A 
ATOM     17 CL   UNL     1      -7.418  -3.745  -0.489  0.00  0.00    +0.000 Cl
ENDBRANCH   9  11
TORSDOF 1
