REMARK  Name = *****
REMARK  5 active torsions:
REMARK  status: ('A' for Active; 'I' for Inactive)
REMARK    1  A    between atoms: C_1  and  C_2
REMARK    2  A    between atoms: C_5  and  S_8
REMARK    3  A    between atoms: S_8  and  N_10
REMARK    4  A    between atoms: N_10  and  C_11
REMARK    5  A    between atoms: N_10  and  C_12
REMARK                            x       y       z     vdW  Elec       q    Type
REMARK                         _______ _______ _______ _____ _____    ______ ____
ROOT
ATOM      1  S   UNL     1      -3.519  -0.099  -1.150  0.00  0.00    +0.000 S 
ATOM      2  O   UNL     1      -4.236  -1.144  -0.350  0.00  0.00    +0.000 OA
ENDROOT
BRANCH   1   7
ATOM      3  C   UNL     1       1.958   0.501   1.520  0.00  0.00    +0.000 C 
ATOM      4  C   UNL     1       0.617   0.327   0.868  0.00  0.00    +0.000 A 
ATOM      5  C   UNL     1       0.507   0.281  -0.527  0.00  0.00    +0.000 A 
ATOM      6  C   UNL     1      -0.744   0.147  -1.135  0.00  0.00    +0.000 A 
ATOM      7  C   UNL     1      -1.901   0.074  -0.352  0.00  0.00    +0.000 A 
ATOM      8  C   UNL     1      -1.795   0.123   1.042  0.00  0.00    +0.000 A 
ATOM      9  C   UNL     1      -0.544   0.258   1.648  0.00  0.00    +0.000 A 
ENDBRANCH   1   7
BRANCH   1  10
ATOM     10  N   UNL     1      -4.042   1.456  -0.759  0.00  0.00    +0.000 N 
ATOM     11  C   UNL     1      -3.289   2.591  -1.289  0.00  0.00    +0.000 C 
BRANCH  10  12
ATOM     12  C   UNL     1      -5.319   1.756  -0.228  0.00  0.00    +0.000 A 
ATOM     13  C   UNL     1      -5.532   2.942   0.503  0.00  0.00    +0.000 A 
ATOM     14  C   UNL     1      -6.784   3.269   1.037  0.00  0.00    +0.000 A 
ATOM     15  C   UNL     1      -7.862   2.411   0.858  0.00  0.00    +0.000 A 
ATOM     16  C   UNL     1      -7.683   1.228   0.150  0.00  0.00    +0.000 A 
ATOM     17  C   UNL     1      -6.428   0.907  -0.381  0.00  0.00    +0.000 A 
ENDBRANCH  10  12
ENDBRANCH   1  10
TORSDOF 3
