REMARK  Name = *****
REMARK  3 active torsions:
REMARK  status: ('A' for Active; 'I' for Inactive)
REMARK    1  A    between atoms: C_4  and  C_7
REMARK    2  A    between atoms: C_7  and  C_8
REMARK    3  A    between atoms: C_9  and  C_10
REMARK                            x       y       z     vdW  Elec       q    Type
REMARK                         _______ _______ _______ _____ _____    ______ ____
ROOT
ATOM      1  C   UNL     1       2.780  -0.733  -0.325  0.00  0.00    +0.000 C 
ENDROOT
BRANCH   1   5
ATOM      2  C   UNL     1      -1.448   0.431  -0.228  0.00  0.00    +0.000 C 
ATOM      3  C   UNL     1      -1.093  -0.999   0.167  0.00  0.00    +0.000 C 
ATOM      4  C   UNL     1       0.309  -1.383  -0.300  0.00  0.00    +0.000 C 
ATOM      5  C   UNL     1       1.373  -0.392   0.205  0.00  0.00    +0.000 C 
ATOM      6  C   UNL     1       0.999   1.045  -0.198  0.00  0.00    +0.000 C 
ATOM      7  C   UNL     1      -0.404   1.422   0.272  0.00  0.00    +0.000 C 
ENDBRANCH   1   5
BRANCH   1   8
ATOM      8  C   UNL     1       3.289  -2.059   0.165  0.00  0.00    +0.000 C 
ATOM      9  C   UNL     1       3.621  -3.076  -0.645  0.00  0.00    +0.000 C 
BRANCH   9  10
ATOM     10  C   UNL     1       4.096  -4.311  -0.124  0.00  0.00    +0.000 A 
ATOM     11  C   UNL     1       4.482  -5.451  -0.821  0.00  0.00    +0.000 A 
ATOM     12  C   UNL     1       4.880  -6.429   0.122  0.00  0.00    +0.000 A 
ATOM     13  C   UNL     1       4.721  -5.846   1.352  0.00  0.00    +0.000 A 
ATOM     14  O   UNL     1       4.254  -4.581   1.219  0.00  0.00    +0.000 OA
ENDBRANCH   9  10
ENDBRANCH   1   8
TORSDOF 3
