REMARK  Name = *****
REMARK  2 active torsions:
REMARK  status: ('A' for Active; 'I' for Inactive)
REMARK    1  A    between atoms: C_7  and  C_11
REMARK    2  A    between atoms: C_12  and  C_13
REMARK                            x       y       z     vdW  Elec       q    Type
REMARK                         _______ _______ _______ _____ _____    ______ ____
ROOT
ATOM      1  C   UNL     1      -1.213  -1.462  -0.359  0.00  0.00    +0.000 C 
ATOM      2  C   UNL     1       0.063  -0.707  -0.077  0.00  0.00    +0.000 A 
ATOM      3  C   UNL     1       0.033   0.704   0.004  0.00  0.00    +0.000 A 
ATOM      4  C   UNL     1      -1.299   1.403  -0.166  0.00  0.00    +0.000 C 
ATOM      5  O   UNL     1      -2.238   0.549  -0.834  0.00  0.00    +0.000 OA
ATOM      6  O   UNL     1      -2.343  -0.656  -0.006  0.00  0.00    +0.000 OA
ATOM      7  C   UNL     1       1.220   1.412   0.272  0.00  0.00    +0.000 A 
ATOM      8  C   UNL     1       2.420   0.702   0.427  0.00  0.00    +0.000 A 
ATOM      9  C   UNL     1       2.449  -0.689   0.314  0.00  0.00    +0.000 A 
ATOM     10  C   UNL     1       1.275  -1.393   0.061  0.00  0.00    +0.000 A 
ENDROOT
BRANCH   7  11
ATOM     11  C   UNL     1       1.220   2.873   0.436  0.00  0.00    +0.000 C 
ATOM     12  C   UNL     1       2.008   3.680  -0.292  0.00  0.00    +0.000 C 
BRANCH  12  13
ATOM     13  C   UNL     1       2.024   5.145  -0.170  0.00  0.00    +0.000 A 
ATOM     14  C   UNL     1       1.860   5.799   1.058  0.00  0.00    +0.000 A 
ATOM     15  C   UNL     1       1.911   7.193   1.134  0.00  0.00    +0.000 A 
ATOM     16  C   UNL     1       2.138   7.948  -0.015  0.00  0.00    +0.000 A 
ATOM     17  C   UNL     1       2.320   7.309  -1.239  0.00  0.00    +0.000 A 
ATOM     18  C   UNL     1       2.268   5.915  -1.315  0.00  0.00    +0.000 A 
ENDBRANCH  12  13
ENDBRANCH   7  11
TORSDOF 2
