REMARK  Name = *****
REMARK  2 active torsions:
REMARK  status: ('A' for Active; 'I' for Inactive)
REMARK    1  A    between atoms: C_4  and  C_7
REMARK    2  A    between atoms: N_9  and  C_10
REMARK                            x       y       z     vdW  Elec       q    Type
REMARK                         _______ _______ _______ _____ _____    ______ ____
ROOT
ATOM      1  C   UNL     1      -2.683   0.136  -0.395  0.00  0.00    +0.000 C 
ATOM      2  C   UNL     1      -3.700  -0.528   0.510  0.00  0.00    +0.000 C 
ATOM      3  N   UNL     1      -3.242  -1.184  -0.714  0.00  0.00    +0.000 N 
ATOM      4 CL   UNL     1      -3.202  -1.337   1.993  0.00  0.00    +0.000 Cl
ATOM      5 CL   UNL     1      -5.291   0.204   0.633  0.00  0.00    +0.000 Cl
ENDROOT
BRANCH   1   9
ATOM      6  C   UNL     1       1.535   0.389   0.585  0.00  0.00    +0.000 A 
ATOM      7  C   UNL     1       1.105  -0.471  -0.420  0.00  0.00    +0.000 A 
ATOM      8  C   UNL     1      -0.254  -0.556  -0.733  0.00  0.00    +0.000 A 
ATOM      9  C   UNL     1      -1.215   0.207  -0.047  0.00  0.00    +0.000 A 
ATOM     10  C   UNL     1      -0.751   1.076   0.957  0.00  0.00    +0.000 A 
ATOM     11  C   UNL     1       0.607   1.165   1.274  0.00  0.00    +0.000 A 
ENDBRANCH   1   9
BRANCH   3  12
ATOM     12  C   UNL     1      -4.094  -1.400  -1.822  0.00  0.00    +0.000 A 
ATOM     13  C   UNL     1      -4.761  -0.414  -2.560  0.00  0.00    +0.000 A 
ATOM     14  C   UNL     1      -5.561  -0.753  -3.658  0.00  0.00    +0.000 A 
ATOM     15  C   UNL     1      -5.700  -2.083  -4.043  0.00  0.00    +0.000 A 
ATOM     16  C   UNL     1      -5.038  -3.078  -3.332  0.00  0.00    +0.000 A 
ATOM     17  C   UNL     1      -4.242  -2.736  -2.236  0.00  0.00    +0.000 A 
ENDBRANCH   3  12
TORSDOF 2
