REMARK  Name = *****
REMARK  5 active torsions:
REMARK  status: ('A' for Active; 'I' for Inactive)
REMARK    1  A    between atoms: C_1  and  C_2
REMARK    2  A    between atoms: C_7  and  O_8
REMARK    3  A    between atoms: O_8  and  C_9
REMARK    4  A    between atoms: C_9  and  C_10
REMARK    5  A    between atoms: C_10  and  C_11
REMARK                            x       y       z     vdW  Elec       q    Type
REMARK                         _______ _______ _______ _____ _____    ______ ____
ROOT
ATOM      1  O   UNL     1       0.544  -2.198   1.190  0.00  0.00    +0.000 OA
ENDROOT
BRANCH   1   8
ATOM      2  C   UNL     1       2.824  -0.660   2.034  0.00  0.00    +0.000 C 
ATOM      3  C   UNL     1       1.642  -0.064   1.328  0.00  0.00    +0.000 A 
ATOM      4  C   UNL     1       1.614   1.307   1.034  0.00  0.00    +0.000 A 
ATOM      5  C   UNL     1       0.517   1.873   0.379  0.00  0.00    +0.000 A 
ATOM      6  C   UNL     1      -0.565   1.076   0.008  0.00  0.00    +0.000 A 
ATOM      7  C   UNL     1      -0.544  -0.290   0.279  0.00  0.00    +0.000 A 
ATOM      8  C   UNL     1       0.564  -0.856   0.911  0.00  0.00    +0.000 A 
ENDBRANCH   1   8
BRANCH   1   9
ATOM      9  C   UNL     1       1.030  -2.948   0.066  0.00  0.00    +0.000 C 
BRANCH   9  10
ATOM     10  C   UNL     1       0.970  -4.441   0.396  0.00  0.00    +0.000 C 
BRANCH  10  11
ATOM     11  C   UNL     1       2.061  -4.880   1.346  0.00  0.00    +0.000 A 
ATOM     12  C   UNL     1       1.930  -4.666   2.725  0.00  0.00    +0.000 A 
ATOM     13  C   UNL     1       2.937  -5.069   3.604  0.00  0.00    +0.000 A 
ATOM     14  C   UNL     1       4.084  -5.689   3.113  0.00  0.00    +0.000 A 
ATOM     15  C   UNL     1       4.227  -5.903   1.743  0.00  0.00    +0.000 A 
ATOM     16  C   UNL     1       3.222  -5.499   0.862  0.00  0.00    +0.000 A 
ENDBRANCH  10  11
ENDBRANCH   9  10
ENDBRANCH   1   9
TORSDOF 4
