REMARK  Name = *****
REMARK  3 active torsions:
REMARK  status: ('A' for Active; 'I' for Inactive)
REMARK    1  A    between atoms: C_1  and  C_2
REMARK    2  A    between atoms: C_5  and  C_8
REMARK    3  A    between atoms: C_9  and  C_10
REMARK                            x       y       z     vdW  Elec       q    Type
REMARK                         _______ _______ _______ _____ _____    ______ ____
ROOT
ATOM      1  C   UNL     1       1.190   0.075   0.123  0.00  0.00    +0.000 C 
ATOM      2  C   UNL     1       2.672   0.093  -0.107  0.00  0.00    +0.000 A 
ATOM      3  C   UNL     1       3.345   1.304  -0.309  0.00  0.00    +0.000 A 
ATOM      4  C   UNL     1       4.721   1.316  -0.556  0.00  0.00    +0.000 A 
ATOM      5  C   UNL     1       5.433   0.117  -0.613  0.00  0.00    +0.000 A 
ATOM      6  C   UNL     1       4.766  -1.095  -0.428  0.00  0.00    +0.000 A 
ATOM      7  C   UNL     1       3.391  -1.107  -0.181  0.00  0.00    +0.000 A 
ENDROOT
BRANCH   5   8
ATOM      8  C   UNL     1       6.840   0.131  -0.867  0.00  0.00    +0.000 C 
ATOM      9  C   UNL     1       8.022   0.143  -1.080  0.00  0.00    +0.000 C 
BRANCH   9  10
ATOM     10  C   UNL     1       9.413   0.152  -1.331  0.00  0.00    +0.000 C 
ATOM     11  C   UNL     1      10.163   1.259  -1.461  0.00  0.00    +0.000 C 
ATOM     12  C   UNL     1      11.534   0.880  -1.710  0.00  0.00    +0.000 C 
ATOM     13  C   UNL     1      11.630  -0.457  -1.733  0.00  0.00    +0.000 C 
ATOM     14  C   UNL     1      10.277  -1.068  -1.491  0.00  0.00    +0.000 C 
ENDBRANCH   9  10
ENDBRANCH   5   8
TORSDOF 2
