REMARK  Name = *****
REMARK  5 active torsions:
REMARK  status: ('A' for Active; 'I' for Inactive)
REMARK    1  A    between atoms: C_1  and  C_2
REMARK    2  A    between atoms: C_3  and  C_7
REMARK    3  A    between atoms: C_8  and  C_9
REMARK    4  A    between atoms: C_12  and  O_15
REMARK    5  A    between atoms: O_15  and  C_16
REMARK                            x       y       z     vdW  Elec       q    Type
REMARK                         _______ _______ _______ _____ _____    ______ ____
ROOT
ATOM      1  C   UNL     1       0.553  -2.456  -0.069  0.00  0.00    +0.000 C 
ATOM      2  C   UNL     1       1.763  -3.029   0.026  0.00  0.00    +0.000 C 
ENDROOT
BRANCH   1   5
ATOM      3  C   UNL     1       2.363  -0.039  -1.225  0.00  0.00    +0.000 C 
ATOM      4  C   UNL     1       1.114   0.037  -0.405  0.00  0.00    +0.000 A 
ATOM      5  C   UNL     1       0.367  -1.046   0.057  0.00  0.00    +0.000 A 
ATOM      6  S   UNL     1      -1.046  -0.508   0.895  0.00  0.00    +0.000 S 
ATOM      7  C   UNL     1      -0.637   1.132   0.700  0.00  0.00    +0.000 A 
ATOM      8  C   UNL     1       0.528   1.288  -0.010  0.00  0.00    +0.000 A 
ENDBRANCH   1   5
BRANCH   2   9
ATOM      9  C   UNL     1       1.993  -4.478  -0.071  0.00  0.00    +0.000 A 
ATOM     10  C   UNL     1       1.290  -5.290  -0.970  0.00  0.00    +0.000 A 
ATOM     11  C   UNL     1       1.558  -6.663  -1.058  0.00  0.00    +0.000 A 
ATOM     12  C   UNL     1       2.541  -7.239  -0.255  0.00  0.00    +0.000 A 
ATOM     13  C   UNL     1       3.256  -6.430   0.629  0.00  0.00    +0.000 A 
ATOM     14  C   UNL     1       2.990  -5.060   0.718  0.00  0.00    +0.000 A 
BRANCH  12  15
ATOM     15  O   UNL     1       2.900  -8.558  -0.243  0.00  0.00    +0.000 OA
ATOM     16  C   UNL     1       2.177  -9.430  -1.103  0.00  0.00    +0.000 C 
ENDBRANCH  12  15
ENDBRANCH   2   9
TORSDOF 3
