REMARK  Name = *****
REMARK  3 active torsions:
REMARK  status: ('A' for Active; 'I' for Inactive)
REMARK    1  A    between atoms: C_1  and  C_2
REMARK    2  A    between atoms: C_4  and  C_17
REMARK    3  A    between atoms: C_9  and  C_11
REMARK                            x       y       z     vdW  Elec       q    Type
REMARK                         _______ _______ _______ _____ _____    ______ ____
ROOT
ATOM      1  C   UNL     1       0.990  -0.079   0.121  0.00  0.00    +0.000 C 
ATOM      2  C   UNL     1       2.491  -0.083   0.075  0.00  0.00    +0.000 A 
ATOM      3  C   UNL     1       3.203   1.129   0.151  0.00  0.00    +0.000 A 
ATOM      4  C   UNL     1       4.611   1.181   0.143  0.00  0.00    +0.000 A 
ATOM      5  C   UNL     1       5.238  -0.062   0.070  0.00  0.00    +0.000 A 
ATOM      6  C   UNL     1       4.585  -1.282   0.009  0.00  0.00    +0.000 A 
ATOM      7  C   UNL     1       3.185  -1.306   0.017  0.00  0.00    +0.000 A 
ATOM      8  N   UNL     1       5.499  -2.303  -0.047  0.00  0.00    +0.000 NA
ATOM      9  C   UNL     1       6.666  -1.682  -0.022  0.00  0.00    +0.000 A 
ATOM     10  O   UNL     1       6.580  -0.314   0.050  0.00  0.00    +0.000 OA
ATOM     11  C   UNL     1       5.337   2.486   0.219  0.00  0.00    +0.000 C 
ENDROOT
BRANCH   9  12
ATOM     12  C   UNL     1       8.011  -2.253  -0.057  0.00  0.00    +0.000 A 
ATOM     13  C   UNL     1       8.170  -3.646  -0.126  0.00  0.00    +0.000 A 
ATOM     14  C   UNL     1       9.442  -4.222  -0.161  0.00  0.00    +0.000 A 
ATOM     15  C   UNL     1      10.574  -3.411  -0.128  0.00  0.00    +0.000 A 
ATOM     16  C   UNL     1      10.435  -2.026  -0.061  0.00  0.00    +0.000 A 
ATOM     17  C   UNL     1       9.161  -1.451  -0.026  0.00  0.00    +0.000 A 
ENDBRANCH   9  12
TORSDOF 1
