REMARK  Name = *****
REMARK  4 active torsions:
REMARK  status: ('A' for Active; 'I' for Inactive)
REMARK    1  A    between atoms: C_4  and  C_7
REMARK    2  A    between atoms: C_7  and  C_8
REMARK    3  A    between atoms: C_8  and  O_10
REMARK    4  A    between atoms: O_10  and  C_11
REMARK                            x       y       z     vdW  Elec       q    Type
REMARK                         _______ _______ _______ _____ _____    ______ ____
ROOT
ATOM      1  C   UNL     1      -3.773  -0.135  -0.378  0.00  0.00    +0.000 C 
ATOM      2  O   UNL     1      -3.579  -1.095  -1.111  0.00  0.00    +0.000 OA
ENDROOT
BRANCH   1   3
ATOM      3  C   UNL     1      -2.726   0.849   0.103  0.00  0.00    +0.000 C 
BRANCH   3   7
ATOM      4  C   UNL     1       1.293  -0.723   0.116  0.00  0.00    +0.000 A 
ATOM      5  C   UNL     1       0.706  -0.319  -1.081  0.00  0.00    +0.000 A 
ATOM      6  C   UNL     1      -0.593   0.190  -1.086  0.00  0.00    +0.000 A 
ATOM      7  C   UNL     1      -1.318   0.302   0.109  0.00  0.00    +0.000 A 
ATOM      8  C   UNL     1      -0.720  -0.114   1.307  0.00  0.00    +0.000 A 
ATOM      9  C   UNL     1       0.581  -0.621   1.309  0.00  0.00    +0.000 A 
ENDBRANCH   3   7
ENDBRANCH   1   3
BRANCH   1  10
ATOM     10  O   UNL     1      -5.008   0.274   0.126  0.00  0.00    +0.000 OA
BRANCH  10  11
ATOM     11  C   UNL     1      -6.064  -0.494  -0.363  0.00  0.00    +0.000 A 
ATOM     12  C   UNL     1      -6.600  -1.500   0.438  0.00  0.00    +0.000 A 
ATOM     13  C   UNL     1      -7.683  -2.241  -0.038  0.00  0.00    +0.000 A 
ATOM     14  C   UNL     1      -8.230  -1.963  -1.296  0.00  0.00    +0.000 A 
ATOM     15  C   UNL     1      -7.697  -0.939  -2.082  0.00  0.00    +0.000 A 
ATOM     16  C   UNL     1      -6.617  -0.203  -1.608  0.00  0.00    +0.000 A 
ATOM     17  F   UNL     1      -6.118   0.794  -2.353  0.00  0.00    +0.000 F 
ENDBRANCH  10  11
ENDBRANCH   1  10
TORSDOF 4
