REMARK  Name = *****
REMARK  5 active torsions:
REMARK  status: ('A' for Active; 'I' for Inactive)
REMARK    1  A    between atoms: C_1  and  C_2
REMARK    2  A    between atoms: C_6  and  C_7
REMARK    3  A    between atoms: C_6  and  C_8
REMARK    4  A    between atoms: C_8  and  C_9
REMARK    5  A    between atoms: C_10  and  C_11
REMARK                            x       y       z     vdW  Elec       q    Type
REMARK                         _______ _______ _______ _____ _____    ______ ____
ROOT
ATOM      1  C   UNL     1       2.872   2.386  -0.797  0.00  0.00    +0.000 C 
ENDROOT
BRANCH   1   7
ATOM      2  C   UNL     1       0.961   0.068   0.072  0.00  0.00    +0.000 C 
ATOM      3  C   UNL     1       2.451   0.022   0.081  0.00  0.00    +0.000 C 
ATOM      4  C   UNL     1       3.197  -1.092   0.055  0.00  0.00    +0.000 C 
ATOM      5  C   UNL     1       4.654  -0.793   0.136  0.00  0.00    +0.000 C 
ATOM      6  C   UNL     1       4.703   0.701  -0.179  0.00  0.00    +0.000 C 
ATOM      7  C   UNL     1       3.310   1.274   0.189  0.00  0.00    +0.000 C 
ATOM      8  C   UNL     1       3.301   1.784   1.642  0.00  0.00    +0.000 C 
ENDBRANCH   1   7
BRANCH   1   9
ATOM      9  C   UNL     1       3.783   3.587  -0.836  0.00  0.00    +0.000 C 
ATOM     10  C   UNL     1       3.401   4.820  -0.468  0.00  0.00    +0.000 C 
BRANCH  10  11
ATOM     11  C   UNL     1       4.277   6.000  -0.493  0.00  0.00    +0.000 A 
ATOM     12  C   UNL     1       5.223   6.211  -1.505  0.00  0.00    +0.000 A 
ATOM     13  C   UNL     1       6.016   7.362  -1.509  0.00  0.00    +0.000 A 
ATOM     14  C   UNL     1       5.865   8.318  -0.507  0.00  0.00    +0.000 A 
ATOM     15  C   UNL     1       4.917   8.127   0.496  0.00  0.00    +0.000 A 
ATOM     16  C   UNL     1       4.124   6.977   0.499  0.00  0.00    +0.000 A 
ENDBRANCH  10  11
ENDBRANCH   1   9
TORSDOF 3
