REMARK  Name = *****
REMARK  0 active torsions:
REMARK  status: ('A' for Active; 'I' for Inactive)
REMARK                            x       y       z     vdW  Elec       q    Type
REMARK                         _______ _______ _______ _____ _____    ______ ____
ROOT
ATOM      1  C   UNL     1       1.174   0.555   1.498  0.00  0.00    +0.000 C 
ATOM      2  C   UNL     1       1.298  -0.239   2.792  0.00  0.00    +0.000 C 
ATOM      3  C   UNL     1       2.592  -1.029   2.601  0.00  0.00    +0.000 C 
ATOM      4  C   UNL     1       2.632  -1.306   1.118  0.00  0.00    +0.000 C 
ATOM      5  C   UNL     1       1.608  -0.442   0.423  0.00  0.00    +0.000 C 
ATOM      6  C   UNL     1       3.946  -1.633   0.449  0.00  0.00    +0.000 C 
ATOM      7  C   UNL     1       2.907  -2.703   0.614  0.00  0.00    +0.000 C 
ATOM      8  C   UNL     1       3.060  -3.076  -0.834  0.00  0.00    +0.000 C 
ATOM      9  C   UNL     1       4.100  -2.007  -1.000  0.00  0.00    +0.000 C 
ATOM     10  C   UNL     1       4.373  -3.404  -1.503  0.00  0.00    +0.000 C 
ATOM     11  C   UNL     1       5.395  -4.270  -0.808  0.00  0.00    +0.000 C 
ATOM     12  C   UNL     1       5.818  -5.276  -1.880  0.00  0.00    +0.000 C 
ATOM     13  C   UNL     1       5.698  -4.485  -3.177  0.00  0.00    +0.000 C 
ATOM     14  C   UNL     1       4.412  -3.682  -2.986  0.00  0.00    +0.000 C 
ENDROOT
TORSDOF 0
