REMARK  Name = *****
REMARK  3 active torsions:
REMARK  status: ('A' for Active; 'I' for Inactive)
REMARK    1  A    between atoms: C_3  and  C_8
REMARK    2  A    between atoms: C_8  and  O_10
REMARK    3  A    between atoms: O_10  and  C_11
REMARK                            x       y       z     vdW  Elec       q    Type
REMARK                         _______ _______ _______ _____ _____    ______ ____
ROOT
ATOM      1  C   UNL     1      -1.947   2.212   0.661  0.00  0.00    +0.000 C 
ATOM      2  O   UNL     1      -3.105   2.389   0.314  0.00  0.00    +0.000 OA
ENDROOT
BRANCH   1   5
ATOM      3  C   UNL     1      -0.968  -0.929  -1.190  0.00  0.00    +0.000 A 
ATOM      4  C   UNL     1      -1.711   0.138  -0.679  0.00  0.00    +0.000 A 
ATOM      5  C   UNL     1      -1.104   1.097   0.149  0.00  0.00    +0.000 A 
ATOM      6  C   UNL     1       0.257   0.981   0.454  0.00  0.00    +0.000 A 
ATOM      7  C   UNL     1       0.983  -0.087  -0.063  0.00  0.00    +0.000 A 
ATOM      8  C   UNL     1       0.385  -1.042  -0.879  0.00  0.00    +0.000 A 
ATOM      9  F   UNL     1       2.285  -0.198   0.231  0.00  0.00    +0.000 F 
ENDBRANCH   1   5
BRANCH   1  10
ATOM     10  O   UNL     1      -1.230   2.959   1.576  0.00  0.00    +0.000 OA
BRANCH  10  11
ATOM     11  C   UNL     1      -1.949   4.070   2.028  0.00  0.00    +0.000 A 
ATOM     12  C   UNL     1      -1.839   5.301   1.375  0.00  0.00    +0.000 A 
ATOM     13  C   UNL     1      -2.540   6.403   1.866  0.00  0.00    +0.000 A 
ATOM     14  C   UNL     1      -3.333   6.271   3.010  0.00  0.00    +0.000 A 
ATOM     15  C   UNL     1      -3.418   5.039   3.663  0.00  0.00    +0.000 A 
ATOM     16  C   UNL     1      -2.722   3.932   3.183  0.00  0.00    +0.000 A 
ATOM     17 CL   UNL     1      -4.386   4.890   5.077  0.00  0.00    +0.000 Cl
ATOM     18 CL   UNL     1      -0.843   5.495  -0.019  0.00  0.00    +0.000 Cl
ENDBRANCH  10  11
ENDBRANCH   1  10
TORSDOF 3
