REMARK  Name = *****
REMARK  2 active torsions:
REMARK  status: ('A' for Active; 'I' for Inactive)
REMARK    1  A    between atoms: C_6  and  N_7
REMARK    2  A    between atoms: C_8  and  C_9
REMARK                            x       y       z     vdW  Elec       q    Type
REMARK                         _______ _______ _______ _____ _____    ______ ____
ROOT
ATOM      1  N   UNL     1      -3.394  -0.044  -0.103  0.00  0.00    +0.000 NA
ATOM      2  C   UNL     1      -4.035   1.067   0.098  0.00  0.00    +0.000 C 
ENDROOT
BRANCH   2   3
ATOM      3  C   UNL     1      -5.513   1.126   0.051  0.00  0.00    +0.000 A 
ATOM      4  C   UNL     1      -6.211   2.327   0.243  0.00  0.00    +0.000 A 
ATOM      5  C   UNL     1      -7.610   2.340   0.191  0.00  0.00    +0.000 A 
ATOM      6  C   UNL     1      -8.308   1.158  -0.051  0.00  0.00    +0.000 A 
ATOM      7  C   UNL     1      -7.625  -0.040  -0.244  0.00  0.00    +0.000 A 
ATOM      8  C   UNL     1      -6.229  -0.056  -0.193  0.00  0.00    +0.000 A 
ATOM      9 CL   UNL     1     -10.026   1.180  -0.113  0.00  0.00    +0.000 Cl
ATOM     10 CL   UNL     1      -5.421   3.834   0.545  0.00  0.00    +0.000 Cl
ENDBRANCH   2   3
BRANCH   1  16
ATOM     11  C   UNL     1      -1.248   0.391  -1.157  0.00  0.00    +0.000 A 
ATOM     12  C   UNL     1       0.145   0.449  -1.087  0.00  0.00    +0.000 A 
ATOM     13  C   UNL     1       0.782   0.134   0.108  0.00  0.00    +0.000 A 
ATOM     14  C   UNL     1       0.054  -0.240   1.232  0.00  0.00    +0.000 A 
ATOM     15  C   UNL     1      -1.339  -0.296   1.158  0.00  0.00    +0.000 A 
ATOM     16  C   UNL     1      -1.997   0.031  -0.031  0.00  0.00    +0.000 A 
ATOM     17  F   UNL     1       2.119   0.187   0.177  0.00  0.00    +0.000 F 
ENDBRANCH   1  16
TORSDOF 2
