REMARK  Name = *****
REMARK  4 active torsions:
REMARK  status: ('A' for Active; 'I' for Inactive)
REMARK    1  A    between atoms: C_1  and  C_2
REMARK    2  A    between atoms: C_6  and  O_8
REMARK    3  A    between atoms: O_8  and  C_9
REMARK    4  A    between atoms: C_9  and  C_11
REMARK                            x       y       z     vdW  Elec       q    Type
REMARK                         _______ _______ _______ _____ _____    ______ ____
ROOT
ATOM      1  O   UNL     1      -1.406  -1.089  -1.727  0.00  0.00    +0.000 OA
ENDROOT
BRANCH   1   7
ATOM      2  C   UNL     1       2.494  -0.006  -0.044  0.00  0.00    +0.000 C 
ATOM      3  C   UNL     1       0.993   0.050  -0.034  0.00  0.00    +0.000 C 
ATOM      4  C   UNL     1       0.322   1.215  -0.049  0.00  0.00    +0.000 C 
ATOM      5  C   UNL     1      -1.175   1.312  -0.008  0.00  0.00    +0.000 C 
ATOM      6  C   UNL     1      -1.850   0.004   0.410  0.00  0.00    +0.000 C 
ATOM      7  C   UNL     1      -1.230  -1.202  -0.298  0.00  0.00    +0.000 C 
ATOM      8  C   UNL     1       0.281  -1.286  -0.011  0.00  0.00    +0.000 C 
ENDBRANCH   1   7
BRANCH   1   9
ATOM      9  C   UNL     1      -2.605  -1.480  -2.219  0.00  0.00    +0.000 C 
ATOM     10  O   UNL     1      -3.533  -1.935  -1.569  0.00  0.00    +0.000 OA
BRANCH   9  11
ATOM     11  C   UNL     1      -2.653  -1.276  -3.693  0.00  0.00    +0.000 A 
ATOM     12  C   UNL     1      -3.818  -1.651  -4.375  0.00  0.00    +0.000 A 
ATOM     13  C   UNL     1      -3.912  -1.476  -5.758  0.00  0.00    +0.000 A 
ATOM     14  C   UNL     1      -2.844  -0.926  -6.465  0.00  0.00    +0.000 A 
ATOM     15  C   UNL     1      -1.681  -0.550  -5.793  0.00  0.00    +0.000 A 
ATOM     16  C   UNL     1      -1.583  -0.723  -4.410  0.00  0.00    +0.000 A 
ENDBRANCH   9  11
ENDBRANCH   1   9
TORSDOF 3
