REMARK  Name = *****
REMARK  4 active torsions:
REMARK  status: ('A' for Active; 'I' for Inactive)
REMARK    1  A    between atoms: C_4  and  C_7
REMARK    2  A    between atoms: C_7  and  C_8
REMARK    3  A    between atoms: C_8  and  C_9
REMARK    4  A    between atoms: C_11  and  C_15
REMARK                            x       y       z     vdW  Elec       q    Type
REMARK                         _______ _______ _______ _____ _____    ______ ____
ROOT
ATOM      1  C   UNL     1      -3.595  -0.851  -0.324  0.00  0.00    +0.000 C 
ENDROOT
BRANCH   1   2
ATOM      2  C   UNL     1      -5.077  -0.614  -0.489  0.00  0.00    +0.000 A 
ATOM      3  C   UNL     1      -5.625  -0.418  -1.764  0.00  0.00    +0.000 A 
ATOM      4  C   UNL     1      -6.996  -0.181  -1.910  0.00  0.00    +0.000 A 
ATOM      5  C   UNL     1      -7.830  -0.133  -0.791  0.00  0.00    +0.000 A 
ATOM      6  C   UNL     1      -7.287  -0.321   0.480  0.00  0.00    +0.000 A 
ATOM      7  C   UNL     1      -5.919  -0.557   0.631  0.00  0.00    +0.000 A 
BRANCH   4   8
ATOM      8  C   UNL     1      -7.574   0.023  -3.253  0.00  0.00    +0.000 C 
ATOM      9  O   UNL     1      -6.891   0.002  -4.269  0.00  0.00    +0.000 OA
ENDBRANCH   4   8
ENDBRANCH   1   2
BRANCH   1  10
ATOM     10  C   UNL     1      -2.823   0.464  -0.192  0.00  0.00    +0.000 C 
BRANCH  10  14
ATOM     11  C   UNL     1       1.401  -0.267   0.272  0.00  0.00    +0.000 A 
ATOM     12  C   UNL     1       0.859  -0.093  -1.000  0.00  0.00    +0.000 A 
ATOM     13  C   UNL     1      -0.507   0.149  -1.151  0.00  0.00    +0.000 A 
ATOM     14  C   UNL     1      -1.343   0.225  -0.028  0.00  0.00    +0.000 A 
ATOM     15  C   UNL     1      -0.789   0.043   1.246  0.00  0.00    +0.000 A 
ATOM     16  C   UNL     1       0.578  -0.200   1.394  0.00  0.00    +0.000 A 
ENDBRANCH  10  14
ENDBRANCH   1  10
TORSDOF 4
