REMARK  Name = *****
REMARK  3 active torsions:
REMARK  status: ('A' for Active; 'I' for Inactive)
REMARK    1  A    between atoms: C_4  and  C_15
REMARK    2  A    between atoms: C_5  and  C_7
REMARK    3  A    between atoms: C_8  and  C_9
REMARK                            x       y       z     vdW  Elec       q    Type
REMARK                         _______ _______ _______ _____ _____    ______ ____
ROOT
ATOM      1  C   UNL     1      -0.343   1.372   0.438  0.00  0.00    +0.000 C 
ATOM      2  C   UNL     1      -1.417   0.523  -0.216  0.00  0.00    +0.000 C 
ATOM      3  C   UNL     1      -1.194  -0.953   0.101  0.00  0.00    +0.000 C 
ATOM      4  C   UNL     1       0.247  -1.398  -0.024  0.00  0.00    +0.000 C 
ATOM      5  C   UNL     1       1.288  -0.536  -0.116  0.00  0.00    +0.000 C 
ATOM      6  C   UNL     1       1.042   0.967  -0.068  0.00  0.00    +0.000 C 
ENDROOT
BRANCH   5   7
ATOM      7  C   UNL     1       2.690  -0.952  -0.213  0.00  0.00    +0.000 C 
ATOM      8  C   UNL     1       3.714  -0.182  -0.621  0.00  0.00    +0.000 C 
BRANCH   8   9
ATOM      9  C   UNL     1       5.104  -0.654  -0.679  0.00  0.00    +0.000 A 
ATOM     10  C   UNL     1       5.445  -1.891  -1.242  0.00  0.00    +0.000 A 
ATOM     11  C   UNL     1       6.781  -2.297  -1.306  0.00  0.00    +0.000 A 
ATOM     12  C   UNL     1       7.787  -1.465  -0.819  0.00  0.00    +0.000 A 
ATOM     13  C   UNL     1       7.460  -0.226  -0.271  0.00  0.00    +0.000 A 
ATOM     14  C   UNL     1       6.125   0.180  -0.207  0.00  0.00    +0.000 A 
ENDBRANCH   8   9
ENDBRANCH   5   7
BRANCH   4  15
ATOM     15  C   UNL     1       0.398  -2.885  -0.076  0.00  0.00    +0.000 C 
ATOM     16  O   UNL     1      -0.538  -3.653   0.122  0.00  0.00    +0.000 OA
ENDBRANCH   4  15
TORSDOF 3
