REMARK  Name = *****
REMARK  4 active torsions:
REMARK  status: ('A' for Active; 'I' for Inactive)
REMARK    1  A    between atoms: C_1  and  C_2
REMARK    2  A    between atoms: C_5  and  N_8
REMARK    3  A    between atoms: N_8  and  S_9
REMARK    4  A    between atoms: S_9  and  N_12
REMARK                            x       y       z     vdW  Elec       q    Type
REMARK                         _______ _______ _______ _____ _____    ______ ____
ROOT
ATOM      1  N   UNL     1      -2.683  -2.326  -0.011  0.00  0.00    +0.000 N 
ATOM      2  H   UNL     1      -2.016  -2.444   0.704  0.00  0.00    +0.000 HD
ENDROOT
BRANCH   1   7
ATOM      3  C   UNL     1      -1.303  -1.333  -5.500  0.00  0.00    +0.000 C 
ATOM      4  C   UNL     1      -1.650  -1.617  -4.066  0.00  0.00    +0.000 A 
ATOM      5  C   UNL     1      -1.879  -2.921  -3.601  0.00  0.00    +0.000 A 
ATOM      6  C   UNL     1      -2.206  -3.156  -2.263  0.00  0.00    +0.000 A 
ATOM      7  C   UNL     1      -2.302  -2.091  -1.373  0.00  0.00    +0.000 A 
ATOM      8  C   UNL     1      -2.094  -0.787  -1.821  0.00  0.00    +0.000 A 
ATOM      9  C   UNL     1      -1.766  -0.552  -3.159  0.00  0.00    +0.000 A 
ATOM     10 CL   UNL     1      -1.772  -4.287  -4.656  0.00  0.00    +0.000 Cl
ENDBRANCH   1   7
BRANCH   1  11
ATOM     11  S   UNL     1      -4.346  -2.388   0.294  0.00  0.00    +0.000 S 
ATOM     12  O   UNL     1      -4.503  -2.489   1.726  0.00  0.00    +0.000 OA
ATOM     13  O   UNL     1      -4.985  -1.328  -0.448  0.00  0.00    +0.000 OA
BRANCH  11  14
ATOM     14  N   UNL     1      -4.757  -3.884  -0.390  0.00  0.00    +0.000 NA
ATOM     15  C   UNL     1      -4.204  -5.061   0.336  0.00  0.00    +0.000 C 
ATOM     16  C   UNL     1      -4.402  -6.319  -0.507  0.00  0.00    +0.000 C 
ATOM     17  C   UNL     1      -5.874  -6.527  -0.848  0.00  0.00    +0.000 C 
ATOM     18  C   UNL     1      -6.458  -5.277  -1.498  0.00  0.00    +0.000 C 
ATOM     19  C   UNL     1      -6.216  -4.037  -0.640  0.00  0.00    +0.000 C 
ENDBRANCH  11  14
ENDBRANCH   1  11
TORSDOF 3
