REMARK  Name = *****
REMARK  4 active torsions:
REMARK  status: ('A' for Active; 'I' for Inactive)
REMARK    1  A    between atoms: C_1  and  O_2
REMARK    2  A    between atoms: O_2  and  C_3
REMARK    3  A    between atoms: C_6  and  C_9
REMARK    4  A    between atoms: C_10  and  C_11
REMARK                            x       y       z     vdW  Elec       q    Type
REMARK                         _______ _______ _______ _____ _____    ______ ____
ROOT
ATOM      1  C   UNL     1       3.072   0.887   0.900  0.00  0.00    +0.000 A 
ATOM      2  C   UNL     1       2.761   0.879   2.260  0.00  0.00    +0.000 A 
ATOM      3  C   UNL     1       3.509   1.653   3.156  0.00  0.00    +0.000 A 
ATOM      4  C   UNL     1       4.571   2.434   2.696  0.00  0.00    +0.000 A 
ATOM      5  C   UNL     1       4.891   2.433   1.339  0.00  0.00    +0.000 A 
ATOM      6  C   UNL     1       4.146   1.658   0.447  0.00  0.00    +0.000 A 
ENDROOT
BRANCH   1   8
ATOM      7  C   UNL     1       1.188  -0.424   0.290  0.00  0.00    +0.000 C 
ATOM      8  O   UNL     1       2.420   0.185  -0.077  0.00  0.00    +0.000 OA
ENDBRANCH   1   8
BRANCH   4   9
ATOM      9  C   UNL     1       5.326   3.236   3.608  0.00  0.00    +0.000 C 
ATOM     10  C   UNL     1       5.966   3.920   4.360  0.00  0.00    +0.000 C 
BRANCH  10  11
ATOM     11  C   UNL     1       6.737   4.743   5.240  0.00  0.00    +0.000 A 
ATOM     12  C   UNL     1       7.696   5.614   4.718  0.00  0.00    +0.000 A 
ATOM     13  C   UNL     1       8.452   6.417   5.574  0.00  0.00    +0.000 A 
ATOM     14  C   UNL     1       8.249   6.350   6.952  0.00  0.00    +0.000 A 
ATOM     15  C   UNL     1       7.291   5.482   7.476  0.00  0.00    +0.000 A 
ATOM     16  C   UNL     1       6.534   4.678   6.620  0.00  0.00    +0.000 A 
ENDBRANCH  10  11
ENDBRANCH   4   9
TORSDOF 3
