REMARK  Name = *****
REMARK  2 active torsions:
REMARK  status: ('A' for Active; 'I' for Inactive)
REMARK    1  A    between atoms: C_5  and  C_7
REMARK    2  A    between atoms: N_8  and  C_9
REMARK                            x       y       z     vdW  Elec       q    Type
REMARK                         _______ _______ _______ _____ _____    ______ ____
ROOT
ATOM      1  C   UNL     1      -0.565  -2.408  -0.320  0.00  0.00    +0.000 C 
ATOM      2  N   UNL     1      -1.651  -2.695   0.332  0.00  0.00    +0.000 NA
ENDROOT
BRANCH   1   7
ATOM      3  C   UNL     1       0.127   1.119   0.823  0.00  0.00    +0.000 A 
ATOM      4  C   UNL     1       1.328   1.401   0.176  0.00  0.00    +0.000 A 
ATOM      5  C   UNL     1       1.923   0.436  -0.639  0.00  0.00    +0.000 A 
ATOM      6  C   UNL     1       1.319  -0.815  -0.812  0.00  0.00    +0.000 A 
ATOM      7  C   UNL     1       0.112  -1.102  -0.163  0.00  0.00    +0.000 A 
ATOM      8  C   UNL     1      -0.480  -0.127   0.655  0.00  0.00    +0.000 A 
ATOM      9 CL   UNL     1       2.133  -1.947  -1.834  0.00  0.00    +0.000 Cl
ENDBRANCH   1   7
BRANCH   2  10
ATOM     10  C   UNL     1      -2.205  -3.966   0.079  0.00  0.00    +0.000 A 
ATOM     11  C   UNL     1      -1.978  -4.985   1.012  0.00  0.00    +0.000 A 
ATOM     12  C   UNL     1      -2.516  -6.261   0.824  0.00  0.00    +0.000 A 
ATOM     13  C   UNL     1      -3.299  -6.529  -0.296  0.00  0.00    +0.000 A 
ATOM     14  C   UNL     1      -3.549  -5.521  -1.228  0.00  0.00    +0.000 A 
ATOM     15  C   UNL     1      -3.010  -4.244  -1.040  0.00  0.00    +0.000 A 
ATOM     16 CL   UNL     1      -3.359  -3.032  -2.223  0.00  0.00    +0.000 Cl
ENDBRANCH   2  10
TORSDOF 2
