REMARK  Name = *****
REMARK  1 active torsions:
REMARK  status: ('A' for Active; 'I' for Inactive)
REMARK    1  A    between atoms: C_9  and  C_12
REMARK                            x       y       z     vdW  Elec       q    Type
REMARK                         _______ _______ _______ _____ _____    ______ ____
ROOT
ATOM      1  C   UNL     1      -1.059   1.251   0.155  0.00  0.00    +0.000 C 
ATOM      2  C   UNL     1       0.305   0.619   0.060  0.00  0.00    +0.000 A 
ATOM      3  C   UNL     1       1.464   1.407   0.008  0.00  0.00    +0.000 A 
ATOM      4  C   UNL     1       2.722   0.808  -0.063  0.00  0.00    +0.000 A 
ATOM      5  C   UNL     1       2.832  -0.580  -0.077  0.00  0.00    +0.000 A 
ATOM      6  C   UNL     1       1.683  -1.372  -0.024  0.00  0.00    +0.000 A 
ATOM      7  C   UNL     1       0.414  -0.781   0.031  0.00  0.00    +0.000 A 
ATOM      8  C   UNL     1      -0.776  -1.634   0.135  0.00  0.00    +0.000 C 
ATOM      9  C   UNL     1      -1.996  -1.341  -0.361  0.00  0.00    +0.000 C 
ATOM     10  N   UNL     1      -2.333  -0.262  -1.149  0.00  0.00    +0.000 NA
ATOM     11  N   UNL     1      -1.920   0.908  -0.985  0.00  0.00    +0.000 NA
ENDROOT
BRANCH   9  12
ATOM     12  C   UNL     1      -3.067  -2.349  -0.157  0.00  0.00    +0.000 A 
ATOM     13  C   UNL     1      -3.437  -2.764   1.132  0.00  0.00    +0.000 A 
ATOM     14  C   UNL     1      -4.451  -3.709   1.310  0.00  0.00    +0.000 A 
ATOM     15  C   UNL     1      -5.109  -4.243   0.203  0.00  0.00    +0.000 A 
ATOM     16  C   UNL     1      -4.758  -3.832  -1.081  0.00  0.00    +0.000 A 
ATOM     17  C   UNL     1      -3.745  -2.887  -1.260  0.00  0.00    +0.000 A 
ENDBRANCH   9  12
TORSDOF 1
