REMARK  Name = *****
REMARK  4 active torsions:
REMARK  status: ('A' for Active; 'I' for Inactive)
REMARK    1  A    between atoms: C_1  and  C_2
REMARK    2  A    between atoms: C_3  and  C_9
REMARK    3  A    between atoms: C_4  and  C_8
REMARK    4  A    between atoms: C_10  and  C_11
REMARK                            x       y       z     vdW  Elec       q    Type
REMARK                         _______ _______ _______ _____ _____    ______ ____
ROOT
ATOM      1  C   UNL     1       1.000  -0.064   0.260  0.00  0.00    +0.000 C 
ATOM      2  C   UNL     1       2.505  -0.101   0.216  0.00  0.00    +0.000 A 
ATOM      3  C   UNL     1       3.218  -1.318   0.238  0.00  0.00    +0.000 A 
ATOM      4  C   UNL     1       4.627  -1.317   0.178  0.00  0.00    +0.000 A 
ATOM      5  C   UNL     1       5.308  -0.093   0.099  0.00  0.00    +0.000 A 
ATOM      6  C   UNL     1       4.606   1.109   0.071  0.00  0.00    +0.000 A 
ATOM      7  C   UNL     1       3.214   1.106   0.126  0.00  0.00    +0.000 A 
ATOM      8  C   UNL     1       5.420  -2.597   0.211  0.00  0.00    +0.000 C 
ENDROOT
BRANCH   3   9
ATOM      9  C   UNL     1       2.506  -2.564   0.323  0.00  0.00    +0.000 C 
ATOM     10  C   UNL     1       1.913  -3.606   0.399  0.00  0.00    +0.000 C 
BRANCH  10  11
ATOM     11  C   UNL     1       1.210  -4.848   0.493  0.00  0.00    +0.000 A 
ATOM     12  C   UNL     1       1.919  -6.050   0.551  0.00  0.00    +0.000 A 
ATOM     13  C   UNL     1       1.232  -7.262   0.645  0.00  0.00    +0.000 A 
ATOM     14  C   UNL     1      -0.163  -7.273   0.682  0.00  0.00    +0.000 A 
ATOM     15  C   UNL     1      -0.872  -6.073   0.624  0.00  0.00    +0.000 A 
ATOM     16  C   UNL     1      -0.186  -4.860   0.529  0.00  0.00    +0.000 A 
ENDBRANCH  10  11
ENDBRANCH   3   9
TORSDOF 2
