REMARK  Name = *****
REMARK  4 active torsions:
REMARK  status: ('A' for Active; 'I' for Inactive)
REMARK    1  A    between atoms: C_1  and  C_2
REMARK    2  A    between atoms: C_4  and  C_16
REMARK    3  A    between atoms: C_6  and  C_8
REMARK    4  A    between atoms: N_9  and  C_10
REMARK                            x       y       z     vdW  Elec       q    Type
REMARK                         _______ _______ _______ _____ _____    ______ ____
ROOT
ATOM      1  C   UNL     1       2.296   1.146   0.639  0.00  0.00    +0.000 C 
ATOM      2  C   UNL     1       1.074   0.328   0.343  0.00  0.00    +0.000 A 
ATOM      3  C   UNL     1       1.192  -1.035   0.035  0.00  0.00    +0.000 A 
ATOM      4  C   UNL     1       0.063  -1.804  -0.285  0.00  0.00    +0.000 A 
ATOM      5  C   UNL     1      -1.198  -1.198  -0.281  0.00  0.00    +0.000 A 
ATOM      6  C   UNL     1      -1.322   0.163   0.010  0.00  0.00    +0.000 A 
ATOM      7  C   UNL     1      -0.191   0.928   0.313  0.00  0.00    +0.000 A 
ATOM      8  C   UNL     1       0.198  -3.271  -0.569  0.00  0.00    +0.000 C 
ENDROOT
BRANCH   6   9
ATOM      9  C   UNL     1      -2.643   0.821   0.003  0.00  0.00    +0.000 C 
ATOM     10  N   UNL     1      -3.731   0.176  -0.280  0.00  0.00    +0.000 NA
BRANCH  10  11
ATOM     11  C   UNL     1      -4.912   0.931  -0.247  0.00  0.00    +0.000 A 
ATOM     12  C   UNL     1      -5.341   1.626  -1.380  0.00  0.00    +0.000 A 
ATOM     13  C   UNL     1      -6.524   2.368  -1.349  0.00  0.00    +0.000 A 
ATOM     14  C   UNL     1      -7.289   2.409  -0.184  0.00  0.00    +0.000 A 
ATOM     15  C   UNL     1      -6.876   1.703   0.945  0.00  0.00    +0.000 A 
ATOM     16  C   UNL     1      -5.693   0.963   0.911  0.00  0.00    +0.000 A 
ENDBRANCH  10  11
ENDBRANCH   6   9
TORSDOF 2
