REMARK  Name = *****
REMARK  3 active torsions:
REMARK  status: ('A' for Active; 'I' for Inactive)
REMARK    1  A    between atoms: C_5  and  C_7
REMARK    2  A    between atoms: C_7  and  O_9
REMARK    3  A    between atoms: O_9  and  C_10
REMARK                            x       y       z     vdW  Elec       q    Type
REMARK                         _______ _______ _______ _____ _____    ______ ____
ROOT
ATOM      1  C   UNL     1      -0.410  -2.521  -0.357  0.00  0.00    +0.000 C 
ATOM      2  O   UNL     1       0.155  -3.581  -0.140  0.00  0.00    +0.000 OA
ENDROOT
BRANCH   1   7
ATOM      3  C   UNL     1       2.178   0.175  -0.600  0.00  0.00    +0.000 A 
ATOM      4  C   UNL     1       1.591   1.216   0.117  0.00  0.00    +0.000 A 
ATOM      5  C   UNL     1       0.337   1.040   0.707  0.00  0.00    +0.000 A 
ATOM      6  C   UNL     1      -0.343  -0.176   0.575  0.00  0.00    +0.000 A 
ATOM      7  C   UNL     1       0.238  -1.212  -0.164  0.00  0.00    +0.000 A 
ATOM      8  C   UNL     1       1.507  -1.040  -0.737  0.00  0.00    +0.000 A 
ATOM      9 CL   UNL     1      -1.855  -0.338   1.393  0.00  0.00    +0.000 Cl
ENDBRANCH   1   7
BRANCH   1  10
ATOM     10  O   UNL     1      -1.650  -2.311  -0.927  0.00  0.00    +0.000 OA
BRANCH  10  11
ATOM     11  C   UNL     1      -2.353  -3.490  -1.187  0.00  0.00    +0.000 A 
ATOM     12  C   UNL     1      -2.003  -4.298  -2.265  0.00  0.00    +0.000 A 
ATOM     13  C   UNL     1      -2.763  -5.433  -2.516  0.00  0.00    +0.000 A 
ATOM     14  C   UNL     1      -3.864  -5.754  -1.724  0.00  0.00    +0.000 A 
ATOM     15  C   UNL     1      -4.217  -4.924  -0.659  0.00  0.00    +0.000 A 
ATOM     16  C   UNL     1      -3.463  -3.780  -0.392  0.00  0.00    +0.000 A 
ATOM     17  F   UNL     1      -2.440  -6.229  -3.544  0.00  0.00    +0.000 F 
ENDBRANCH  10  11
ENDBRANCH   1  10
TORSDOF 3
