REMARK  Name = *****
REMARK  4 active torsions:
REMARK  status: ('A' for Active; 'I' for Inactive)
REMARK    1  A    between atoms: C_2  and  C_3
REMARK    2  A    between atoms: C_6  and  C_9
REMARK    3  A    between atoms: C_10  and  C_11
REMARK    4  A    between atoms: C_14  and  C_17
REMARK                            x       y       z     vdW  Elec       q    Type
REMARK                         _______ _______ _______ _____ _____    ______ ____
ROOT
ATOM      1  C   UNL     1       5.294  -1.746   4.545  0.00  0.00    +0.000 C 
ATOM      2  C   UNL     1       4.963  -2.778   5.338  0.00  0.00    +0.000 C 
ENDROOT
BRANCH   1   6
ATOM      3  C   UNL     1       3.139  -0.526   1.032  0.00  0.00    +0.000 A 
ATOM      4  C   UNL     1       2.445  -0.988   2.156  0.00  0.00    +0.000 A 
ATOM      5  C   UNL     1       3.135  -1.392   3.306  0.00  0.00    +0.000 A 
ATOM      6  C   UNL     1       4.534  -1.362   3.347  0.00  0.00    +0.000 A 
ATOM      7  C   UNL     1       5.227  -0.898   2.224  0.00  0.00    +0.000 A 
ATOM      8  C   UNL     1       4.537  -0.496   1.074  0.00  0.00    +0.000 A 
BRANCH   3  10
ATOM      9  C   UNL     1       1.258   0.470  -0.258  0.00  0.00    +0.000 C 
ATOM     10  C   UNL     1       2.457  -0.123  -0.206  0.00  0.00    +0.000 C 
ENDBRANCH   3  10
ENDBRANCH   1   6
BRANCH   2  11
ATOM     11  C   UNL     1       5.734  -3.175   6.525  0.00  0.00    +0.000 A 
ATOM     12  C   UNL     1       6.300  -2.235   7.397  0.00  0.00    +0.000 A 
ATOM     13  C   UNL     1       7.000  -2.649   8.533  0.00  0.00    +0.000 A 
ATOM     14  C   UNL     1       7.129  -4.012   8.810  0.00  0.00    +0.000 A 
ATOM     15  C   UNL     1       6.558  -4.961   7.961  0.00  0.00    +0.000 A 
ATOM     16  C   UNL     1       5.857  -4.540   6.826  0.00  0.00    +0.000 A 
BRANCH  14  17
ATOM     17  C   UNL     1       7.867  -4.460  10.008  0.00  0.00    +0.000 C 
ATOM     18  O   UNL     1       8.387  -3.672  10.788  0.00  0.00    +0.000 OA
ENDBRANCH  14  17
ENDBRANCH   2  11
TORSDOF 4
