REMARK  Name = *****
REMARK  4 active torsions:
REMARK  status: ('A' for Active; 'I' for Inactive)
REMARK    1  A    between atoms: C_1  and  O_2
REMARK    2  A    between atoms: O_2  and  C_3
REMARK    3  A    between atoms: C_6  and  C_9
REMARK    4  A    between atoms: C_10  and  C_11
REMARK                            x       y       z     vdW  Elec       q    Type
REMARK                         _______ _______ _______ _____ _____    ______ ____
ROOT
ATOM      1  C   UNL     1       5.850  -0.562  -7.610  0.00  0.00    +0.000 A 
ATOM      2  C   UNL     1       5.987  -1.836  -8.164  0.00  0.00    +0.000 A 
ATOM      3  C   UNL     1       6.499  -1.999  -9.448  0.00  0.00    +0.000 A 
ATOM      4  C   UNL     1       6.879  -0.890 -10.191  0.00  0.00    +0.000 A 
ATOM      5  C   UNL     1       6.748   0.382  -9.651  0.00  0.00    +0.000 A 
ATOM      6  C   UNL     1       6.237   0.546  -8.366  0.00  0.00    +0.000 A 
ATOM      7  F   UNL     1       6.115   1.784  -7.864  0.00  0.00    +0.000 F 
ATOM      8  F   UNL     1       7.114   1.454 -10.367  0.00  0.00    +0.000 F 
ATOM      9  F   UNL     1       7.369  -1.047 -11.428  0.00  0.00    +0.000 F 
ATOM     10  F   UNL     1       6.622  -3.228  -9.968  0.00  0.00    +0.000 F 
ATOM     11  F   UNL     1       5.624  -2.921  -7.463  0.00  0.00    +0.000 F 
ENDROOT
BRANCH   1  13
ATOM     12  C   UNL     1       4.848  -0.276  -5.195  0.00  0.00    +0.000 C 
ATOM     13  C   UNL     1       5.314  -0.397  -6.295  0.00  0.00    +0.000 C 
BRANCH  12  17
ATOM     14  C   UNL     1       3.093   0.033  -1.353  0.00  0.00    +0.000 A 
ATOM     15  C   UNL     1       2.554   0.737  -2.430  0.00  0.00    +0.000 A 
ATOM     16  C   UNL     1       3.141   0.641  -3.698  0.00  0.00    +0.000 A 
ATOM     17  C   UNL     1       4.271  -0.156  -3.892  0.00  0.00    +0.000 A 
ATOM     18  C   UNL     1       4.822  -0.848  -2.814  0.00  0.00    +0.000 A 
ATOM     19  C   UNL     1       4.235  -0.749  -1.550  0.00  0.00    +0.000 A 
BRANCH  14  21
ATOM     20  C   UNL     1       1.343   0.640   0.133  0.00  0.00    +0.000 C 
ATOM     21  O   UNL     1       2.611   0.030  -0.074  0.00  0.00    +0.000 OA
ENDBRANCH  14  21
ENDBRANCH  12  17
ENDBRANCH   1  13
TORSDOF 3
