REMARK  Name = *****
REMARK  4 active torsions:
REMARK  status: ('A' for Active; 'I' for Inactive)
REMARK    1  A    between atoms: N_2  and  C_3
REMARK    2  A    between atoms: C_6  and  O_9
REMARK    3  A    between atoms: O_9  and  C_10
REMARK    4  A    between atoms: C_10  and  C_11
REMARK                            x       y       z     vdW  Elec       q    Type
REMARK                         _______ _______ _______ _____ _____    ______ ____
ROOT
ATOM      1  C   UNL     1      -0.313  -0.211   1.338  0.00  0.00    +0.000 A 
ATOM      2  C   UNL     1       0.446   0.914   1.645  0.00  0.00    +0.000 A 
ATOM      3  C   UNL     1       1.822   0.880   1.417  0.00  0.00    +0.000 A 
ATOM      4  C   UNL     1       2.433  -0.264   0.888  0.00  0.00    +0.000 A 
ATOM      5  C   UNL     1       1.653  -1.384   0.584  0.00  0.00    +0.000 A 
ATOM      6  C   UNL     1       0.273  -1.359   0.810  0.00  0.00    +0.000 A 
ENDROOT
BRANCH   1   8
ATOM      7  C   UNL     1      -2.839  -0.173   1.751  0.00  0.00    +0.000 C 
ATOM      8  N   UNL     1      -1.682  -0.189   1.562  0.00  0.00    +0.000 NA
ENDBRANCH   1   8
BRANCH   4   9
ATOM      9  O   UNL     1       3.785  -0.155   0.719  0.00  0.00    +0.000 OA
BRANCH   9  10
ATOM     10  C   UNL     1       4.472  -1.290   0.198  0.00  0.00    +0.000 C 
BRANCH  10  11
ATOM     11  C   UNL     1       5.939  -0.950   0.109  0.00  0.00    +0.000 A 
ATOM     12  C   UNL     1       6.819  -1.306   1.141  0.00  0.00    +0.000 A 
ATOM     13  C   UNL     1       8.174  -0.979   1.060  0.00  0.00    +0.000 A 
ATOM     14  C   UNL     1       8.660  -0.285  -0.047  0.00  0.00    +0.000 A 
ATOM     15  C   UNL     1       7.792   0.087  -1.071  0.00  0.00    +0.000 A 
ATOM     16  C   UNL     1       6.437  -0.239  -0.993  0.00  0.00    +0.000 A 
ENDBRANCH  10  11
ENDBRANCH   9  10
ENDBRANCH   4   9
TORSDOF 4
