REMARK  Name = *****
REMARK  3 active torsions:
REMARK  status: ('A' for Active; 'I' for Inactive)
REMARK    1  A    between atoms: C_3  and  O_8
REMARK    2  A    between atoms: O_8  and  C_9
REMARK    3  A    between atoms: C_9  and  C_10
REMARK                            x       y       z     vdW  Elec       q    Type
REMARK                         _______ _______ _______ _____ _____    ______ ____
ROOT
ATOM      1  O   UNL     1      -0.047   2.416   0.726  0.00  0.00    +0.000 OA
ENDROOT
BRANCH   1   4
ATOM      2  C   UNL     1      -1.241  -0.861  -0.465  0.00  0.00    +0.000 C 
ATOM      3  C   UNL     1      -1.278   0.670  -0.566  0.00  0.00    +0.000 C 
ATOM      4  C   UNL     1      -0.024   1.101   0.222  0.00  0.00    +0.000 C 
ATOM      5  C   UNL     1       1.244   0.717  -0.567  0.00  0.00    +0.000 C 
ATOM      6  C   UNL     1       1.263  -0.815  -0.467  0.00  0.00    +0.000 C 
ATOM      7  C   UNL     1       0.017  -1.123   0.381  0.00  0.00    +0.000 C 
ATOM      8  C   UNL     1      -0.004   0.059   1.346  0.00  0.00    +0.000 C 
ENDBRANCH   1   4
BRANCH   1   9
ATOM      9  C   UNL     1      -0.085   3.432  -0.275  0.00  0.00    +0.000 C 
BRANCH   9  10
ATOM     10  C   UNL     1      -0.121   4.806   0.353  0.00  0.00    +0.000 A 
ATOM     11  C   UNL     1       0.383   5.907  -0.357  0.00  0.00    +0.000 A 
ATOM     12  C   UNL     1       0.317   7.193   0.181  0.00  0.00    +0.000 A 
ATOM     13  C   UNL     1      -0.264   7.397   1.431  0.00  0.00    +0.000 A 
ATOM     14  C   UNL     1      -0.780   6.316   2.142  0.00  0.00    +0.000 A 
ATOM     15  C   UNL     1      -0.714   5.029   1.604  0.00  0.00    +0.000 A 
ENDBRANCH   9  10
ENDBRANCH   1   9
TORSDOF 3
