REMARK  Name = *****
REMARK  4 active torsions:
REMARK  status: ('A' for Active; 'I' for Inactive)
REMARK    1  A    between atoms: C_4  and  C_7
REMARK    2  A    between atoms: C_7  and  C_9
REMARK    3  A    between atoms: C_9  and  S_10
REMARK    4  A    between atoms: S_10  and  C_11
REMARK                            x       y       z     vdW  Elec       q    Type
REMARK                         _______ _______ _______ _____ _____    ______ ____
ROOT
ATOM      1  C   UNL     1      -2.860   0.557  -0.620  0.00  0.00    +0.000 C 
ATOM      2  O   UNL     1      -3.058   1.704  -1.016  0.00  0.00    +0.000 OA
ENDROOT
BRANCH   1   6
ATOM      3  C   UNL     1       1.050  -0.312   0.941  0.00  0.00    +0.000 A 
ATOM      4  C   UNL     1       0.004  -1.202   1.184  0.00  0.00    +0.000 A 
ATOM      5  C   UNL     1      -1.275  -0.937   0.687  0.00  0.00    +0.000 A 
ATOM      6  C   UNL     1      -1.513   0.223  -0.063  0.00  0.00    +0.000 A 
ATOM      7  C   UNL     1      -0.456   1.116  -0.295  0.00  0.00    +0.000 A 
ATOM      8  C   UNL     1       0.820   0.848   0.203  0.00  0.00    +0.000 A 
ENDBRANCH   1   6
BRANCH   1   9
ATOM      9  C   UNL     1      -3.912  -0.542  -0.634  0.00  0.00    +0.000 C 
BRANCH   9  10
ATOM     10  S   UNL     1      -5.310  -0.141  -1.732  0.00  0.00    +0.000 S 
BRANCH  10  11
ATOM     11  C   UNL     1      -6.375  -1.518  -1.353  0.00  0.00    +0.000 A 
ATOM     12  C   UNL     1      -6.021  -2.825  -1.703  0.00  0.00    +0.000 A 
ATOM     13  C   UNL     1      -6.872  -3.890  -1.399  0.00  0.00    +0.000 A 
ATOM     14  C   UNL     1      -8.083  -3.653  -0.751  0.00  0.00    +0.000 A 
ATOM     15  C   UNL     1      -8.448  -2.351  -0.412  0.00  0.00    +0.000 A 
ATOM     16  C   UNL     1      -7.597  -1.285  -0.716  0.00  0.00    +0.000 A 
ENDBRANCH  10  11
ENDBRANCH   9  10
ENDBRANCH   1   9
TORSDOF 4
