REMARK  Name = *****
REMARK  5 active torsions:
REMARK  status: ('A' for Active; 'I' for Inactive)
REMARK    1  A    between atoms: C_1  and  C_2
REMARK    2  A    between atoms: C_2  and  C_3
REMARK    3  A    between atoms: C_2  and  N_8
REMARK    4  A    between atoms: N_8  and  C_9
REMARK    5  A    between atoms: N_8  and  C_10
REMARK                            x       y       z     vdW  Elec       q    Type
REMARK                         _______ _______ _______ _____ _____    ______ ____
ROOT
ATOM      1  N   UNL     1       3.072  -1.212   0.639  0.00  0.00    +0.000 N 
ATOM      2  C   UNL     1       2.262  -2.055   1.515  0.00  0.00    +0.000 C 
ENDROOT
BRANCH   1   3
ATOM      3  C   UNL     1       4.231  -1.741   0.065  0.00  0.00    +0.000 A 
ATOM      4  C   UNL     1       4.487  -3.124   0.034  0.00  0.00    +0.000 A 
ATOM      5  C   UNL     1       5.657  -3.643  -0.533  0.00  0.00    +0.000 A 
ATOM      6  C   UNL     1       6.615  -2.800  -1.081  0.00  0.00    +0.000 A 
ATOM      7  C   UNL     1       6.398  -1.429  -1.057  0.00  0.00    +0.000 A 
ATOM      8  C   UNL     1       5.225  -0.914  -0.490  0.00  0.00    +0.000 A 
ATOM      9 CL   UNL     1       5.912  -5.346  -0.553  0.00  0.00    +0.000 Cl
ENDBRANCH   1   3
BRANCH   1  11
ATOM     10  C   UNL     1       0.994  -0.118  -0.242  0.00  0.00    +0.000 C 
ATOM     11  C   UNL     1       2.484   0.047   0.099  0.00  0.00    +0.000 C 
BRANCH  11  12
ATOM     12  C   UNL     1       2.801   1.260   1.027  0.00  0.00    +0.000 C 
ATOM     13  C   UNL     1       2.007   1.351   2.312  0.00  0.00    +0.000 C 
ATOM     14  C   UNL     1       1.340   2.515   2.363  0.00  0.00    +0.000 C 
ATOM     15  C   UNL     1       1.619   3.279   1.176  0.00  0.00    +0.000 C 
ATOM     16  C   UNL     1       2.462   2.593   0.391  0.00  0.00    +0.000 C 
ENDBRANCH  11  12
ENDBRANCH   1  11
TORSDOF 3
