REMARK  Name = *****
REMARK  5 active torsions:
REMARK  status: ('A' for Active; 'I' for Inactive)
REMARK    1  A    between atoms: C_1  and  O_2
REMARK    2  A    between atoms: O_2  and  C_3
REMARK    3  A    between atoms: C_3  and  C_12
REMARK    4  A    between atoms: C_5  and  C_6
REMARK    5  A    between atoms: C_12  and  C_13
REMARK                            x       y       z     vdW  Elec       q    Type
REMARK                         _______ _______ _______ _____ _____    ______ ____
ROOT
ATOM      1  C   UNL     1       2.766  -0.178   1.051  0.00  0.00    +0.000 C 
ATOM      2  C   UNL     1       4.200  -0.560   1.324  0.00  0.00    +0.000 C 
ATOM      3  C   UNL     1       3.146  -1.638   1.272  0.00  0.00    +0.000 C 
ENDROOT
BRANCH   3   4
ATOM      4  C   UNL     1       3.194  -2.656   0.154  0.00  0.00    +0.000 A 
ATOM      5  C   UNL     1       4.308  -3.500  -0.004  0.00  0.00    +0.000 A 
ATOM      6  C   UNL     1       4.358  -4.467  -1.012  0.00  0.00    +0.000 A 
ATOM      7  C   UNL     1       3.285  -4.616  -1.885  0.00  0.00    +0.000 A 
ATOM      8  C   UNL     1       2.166  -3.801  -1.748  0.00  0.00    +0.000 A 
ATOM      9  C   UNL     1       2.123  -2.837  -0.737  0.00  0.00    +0.000 A 
ENDBRANCH   3   4
BRANCH   1  11
ATOM     10  C   UNL     1       2.998   1.493  -0.685  0.00  0.00    +0.000 C 
ATOM     11  O   UNL     1       2.483   0.222  -0.311  0.00  0.00    +0.000 OA
ENDBRANCH   1  11
BRANCH   1  12
ATOM     12  C   UNL     1       1.999   0.562   2.124  0.00  0.00    +0.000 C 
BRANCH  12  13
ATOM     13  C   UNL     1       0.478   0.390   2.151  0.00  0.00    +0.000 C 
ATOM     14  C   UNL     1      -0.038  -1.031   2.361  0.00  0.00    +0.000 C 
ATOM     15  C   UNL     1      -1.527  -0.948   2.021  0.00  0.00    +0.000 C 
ATOM     16  C   UNL     1      -1.704   0.318   1.181  0.00  0.00    +0.000 C 
ATOM     17  C   UNL     1      -0.294   0.835   0.912  0.00  0.00    +0.000 C 
ENDBRANCH  12  13
ENDBRANCH   1  12
TORSDOF 4
