REMARK  Name = *****
REMARK  3 active torsions:
REMARK  status: ('A' for Active; 'I' for Inactive)
REMARK    1  A    between atoms: C_4  and  C_7
REMARK    2  A    between atoms: C_7  and  C_16
REMARK    3  A    between atoms: C_8  and  C_9
REMARK                            x       y       z     vdW  Elec       q    Type
REMARK                         _______ _______ _______ _____ _____    ______ ____
ROOT
ATOM      1  C   UNL     1      -2.871   0.393  -0.378  0.00  0.00    +0.000 C 
ATOM      2  C   UNL     1      -3.372   1.631  -0.195  0.00  0.00    +0.000 C 
ENDROOT
BRANCH   2   3
ATOM      3  C   UNL     1      -4.789   1.992  -0.354  0.00  0.00    +0.000 A 
ATOM      4  C   UNL     1      -5.634   1.863   0.758  0.00  0.00    +0.000 A 
ATOM      5  C   UNL     1      -6.990   2.182   0.659  0.00  0.00    +0.000 A 
ATOM      6  C   UNL     1      -7.515   2.632  -0.551  0.00  0.00    +0.000 A 
ATOM      7  C   UNL     1      -6.685   2.765  -1.664  0.00  0.00    +0.000 A 
ATOM      8  C   UNL     1      -5.327   2.448  -1.568  0.00  0.00    +0.000 A 
ATOM      9 BR   UNL     1      -4.257   2.662  -3.125  0.00  0.00    +0.000 Br
ENDBRANCH   2   3
BRANCH   1  13
ATOM     10  C   UNL     1       1.334  -0.262   0.149  0.00  0.00    +0.000 A 
ATOM     11  C   UNL     1       0.413  -1.036   0.851  0.00  0.00    +0.000 A 
ATOM     12  C   UNL     1      -0.957  -0.822   0.680  0.00  0.00    +0.000 A 
ATOM     13  C   UNL     1      -1.420   0.174  -0.194  0.00  0.00    +0.000 A 
ATOM     14  C   UNL     1      -0.480   0.941  -0.900  0.00  0.00    +0.000 A 
ATOM     15  C   UNL     1       0.889   0.725  -0.727  0.00  0.00    +0.000 A 
ENDBRANCH   1  13
BRANCH   1  16
ATOM     16  C   UNL     1      -3.703  -0.721  -0.722  0.00  0.00    +0.000 C 
ATOM     17  N   UNL     1      -4.372  -1.633  -0.983  0.00  0.00    +0.000 NA
ENDBRANCH   1  16
TORSDOF 3
