REMARK  Name = *****
REMARK  5 active torsions:
REMARK  status: ('A' for Active; 'I' for Inactive)
REMARK    1  A    between atoms: C_1  and  O_2
REMARK    2  A    between atoms: O_2  and  C_3
REMARK    3  A    between atoms: C_5  and  C_10
REMARK    4  A    between atoms: C_10  and  S_11
REMARK    5  A    between atoms: S_11  and  C_12
REMARK                            x       y       z     vdW  Elec       q    Type
REMARK                         _______ _______ _______ _____ _____    ______ ____
ROOT
ATOM      1  C   UNL     1       2.946  -0.991   0.946  0.00  0.00    +0.000 A 
ATOM      2  C   UNL     1       2.602  -2.345   1.003  0.00  0.00    +0.000 A 
ATOM      3  C   UNL     1       3.512  -3.295   1.503  0.00  0.00    +0.000 A 
ATOM      4  C   UNL     1       4.766  -2.858   1.937  0.00  0.00    +0.000 A 
ATOM      5  C   UNL     1       5.118  -1.514   1.890  0.00  0.00    +0.000 A 
ATOM      6  C   UNL     1       4.205  -0.583   1.396  0.00  0.00    +0.000 A 
ATOM      7  F   UNL     1       5.654  -3.740   2.418  0.00  0.00    +0.000 F 
ENDROOT
BRANCH   1   9
ATOM      8  C   UNL     1       0.894  -0.347  -0.068  0.00  0.00    +0.000 C 
ATOM      9  O   UNL     1       2.152   0.021   0.483  0.00  0.00    +0.000 OA
ENDBRANCH   1   9
BRANCH   3  10
ATOM     10  C   UNL     1       3.153  -4.755   1.559  0.00  0.00    +0.000 C 
BRANCH  10  11
ATOM     11  S   UNL     1       3.262  -5.534  -0.087  0.00  0.00    +0.000 S 
BRANCH  11  12
ATOM     12  C   UNL     1       2.744  -7.185   0.342  0.00  0.00    +0.000 A 
ATOM     13  C   UNL     1       1.548  -7.688  -0.178  0.00  0.00    +0.000 A 
ATOM     14  C   UNL     1       1.129  -8.981   0.143  0.00  0.00    +0.000 A 
ATOM     15  C   UNL     1       1.908  -9.780   0.978  0.00  0.00    +0.000 A 
ATOM     16  C   UNL     1       3.109  -9.289   1.488  0.00  0.00    +0.000 A 
ATOM     17  C   UNL     1       3.528  -7.996   1.168  0.00  0.00    +0.000 A 
ENDBRANCH  11  12
ENDBRANCH  10  11
ENDBRANCH   3  10
TORSDOF 4
