REMARK  Name = *****
REMARK  3 active torsions:
REMARK  status: ('A' for Active; 'I' for Inactive)
REMARK    1  A    between atoms: C_4  and  C_7
REMARK    2  A    between atoms: C_8  and  C_9
REMARK    3  A    between atoms: C_8  and  C_11
REMARK                            x       y       z     vdW  Elec       q    Type
REMARK                         _______ _______ _______ _____ _____    ______ ____
ROOT
ATOM      1  C   UNL     1      -2.785   0.370  -0.172  0.00  0.00    +0.000 C 
ATOM      2  C   UNL     1      -3.727  -0.588  -0.284  0.00  0.00    +0.000 C 
ENDROOT
BRANCH   2   3
ATOM      3  C   UNL     1      -5.138  -0.166  -0.381  0.00  0.00    +0.000 A 
ATOM      4  C   UNL     1      -5.875  -0.027   0.808  0.00  0.00    +0.000 A 
ATOM      5  C   UNL     1      -7.212   0.374   0.773  0.00  0.00    +0.000 A 
ATOM      6  C   UNL     1      -7.828   0.642  -0.448  0.00  0.00    +0.000 A 
ATOM      7  C   UNL     1      -7.109   0.510  -1.636  0.00  0.00    +0.000 A 
ATOM      8  C   UNL     1      -5.770   0.108  -1.605  0.00  0.00    +0.000 A 
ATOM      9 BR   UNL     1      -4.863  -0.047  -3.269  0.00  0.00    +0.000 Br
ENDBRANCH   2   3
BRANCH   1  13
ATOM     10  C   UNL     1       1.434  -0.190   0.169  0.00  0.00    +0.000 A 
ATOM     11  C   UNL     1       0.759  -0.699  -0.940  0.00  0.00    +0.000 A 
ATOM     12  C   UNL     1      -0.621  -0.525  -1.060  0.00  0.00    +0.000 A 
ATOM     13  C   UNL     1      -1.338   0.150  -0.064  0.00  0.00    +0.000 A 
ATOM     14  C   UNL     1      -0.650   0.669   1.039  0.00  0.00    +0.000 A 
ATOM     15  C   UNL     1       0.730   0.496   1.157  0.00  0.00    +0.000 A 
ENDBRANCH   1  13
BRANCH   2  16
ATOM     16  C   UNL     1      -3.436  -1.988  -0.288  0.00  0.00    +0.000 C 
ATOM     17  N   UNL     1      -3.218  -3.128  -0.292  0.00  0.00    +0.000 NA
ENDBRANCH   2  16
TORSDOF 3
