REMARK  Name = *****
REMARK  4 active torsions:
REMARK  status: ('A' for Active; 'I' for Inactive)
REMARK    1  A    between atoms: C_1  and  C_2
REMARK    2  A    between atoms: C_5  and  S_8
REMARK    3  A    between atoms: S_8  and  N_9
REMARK    4  A    between atoms: N_9  and  C_10
REMARK                            x       y       z     vdW  Elec       q    Type
REMARK                         _______ _______ _______ _____ _____    ______ ____
ROOT
ATOM      1  S   UNL     1      -3.542   0.032  -0.044  0.00  0.00    +0.000 S 
ATOM      2  O   UNL     1      -3.999  -0.408   1.258  0.00  0.00    +0.000 OA
ATOM      3 CL   UNL     1      -4.105   2.006  -0.135  0.00  0.00    +0.000 Cl
ENDROOT
BRANCH   1   8
ATOM      4  C   UNL     1       2.531   0.064   0.222  0.00  0.00    +0.000 C 
ATOM      5  C   UNL     1       1.032   0.076   0.138  0.00  0.00    +0.000 A 
ATOM      6  C   UNL     1       0.296   1.092   0.762  0.00  0.00    +0.000 A 
ATOM      7  C   UNL     1      -1.100   1.089   0.717  0.00  0.00    +0.000 A 
ATOM      8  C   UNL     1      -1.766   0.062   0.043  0.00  0.00    +0.000 A 
ATOM      9  C   UNL     1      -1.042  -0.978  -0.550  0.00  0.00    +0.000 A 
ATOM     10  C   UNL     1       0.353  -0.968  -0.502  0.00  0.00    +0.000 A 
ENDBRANCH   1   8
BRANCH   1  11
ATOM     11  N   UNL     1      -3.995  -0.517  -1.402  0.00  0.00    +0.000 NA
BRANCH  11  12
ATOM     12  C   UNL     1      -3.646  -0.103  -2.722  0.00  0.00    +0.000 A 
ATOM     13  C   UNL     1      -2.738   0.905  -3.051  0.00  0.00    +0.000 A 
ATOM     14  C   UNL     1      -2.471   1.211  -4.392  0.00  0.00    +0.000 A 
ATOM     15  C   UNL     1      -3.108   0.510  -5.413  0.00  0.00    +0.000 A 
ATOM     16  C   UNL     1      -4.014  -0.497  -5.096  0.00  0.00    +0.000 A 
ATOM     17  C   UNL     1      -4.277  -0.799  -3.757  0.00  0.00    +0.000 A 
ENDBRANCH  11  12
ENDBRANCH   1  11
TORSDOF 3
