REMARK  Name = *****
REMARK  4 active torsions:
REMARK  status: ('A' for Active; 'I' for Inactive)
REMARK    1  A    between atoms: C_1  and  O_2
REMARK    2  A    between atoms: O_2  and  C_3
REMARK    3  A    between atoms: C_8  and  C_9
REMARK    4  A    between atoms: C_11  and  C_12
REMARK                            x       y       z     vdW  Elec       q    Type
REMARK                         _______ _______ _______ _____ _____    ______ ____
ROOT
ATOM      1  C   UNL     1       4.174  -0.944  -1.215  0.00  0.00    +0.000 C 
ATOM      2  C   UNL     1       3.979  -2.213  -2.006  0.00  0.00    +0.000 C 
ATOM      3  C   UNL     1       4.906  -2.220  -0.819  0.00  0.00    +0.000 C 
ENDROOT
BRANCH   1   9
ATOM      4  C   UNL     1       5.904   0.948  -1.057  0.00  0.00    +0.000 A 
ATOM      5  C   UNL     1       6.597   2.019  -1.637  0.00  0.00    +0.000 A 
ATOM      6  C   UNL     1       6.346   2.392  -2.957  0.00  0.00    +0.000 A 
ATOM      7  C   UNL     1       5.398   1.704  -3.704  0.00  0.00    +0.000 A 
ATOM      8  C   UNL     1       4.707   0.636  -3.131  0.00  0.00    +0.000 A 
ATOM      9  C   UNL     1       4.951   0.221  -1.807  0.00  0.00    +0.000 A 
BRANCH   4  11
ATOM     10  C   UNL     1       6.998   1.245   1.048  0.00  0.00    +0.000 C 
ATOM     11  O   UNL     1       6.075   0.529   0.240  0.00  0.00    +0.000 OA
ENDBRANCH   4  11
ENDBRANCH   1   9
BRANCH   3  12
ATOM     12  C   UNL     1       4.513  -2.970   0.433  0.00  0.00    +0.000 A 
ATOM     13  C   UNL     1       4.184  -4.335   0.393  0.00  0.00    +0.000 A 
ATOM     14  C   UNL     1       3.837  -5.037   1.551  0.00  0.00    +0.000 A 
ATOM     15  C   UNL     1       3.821  -4.385   2.780  0.00  0.00    +0.000 A 
ATOM     16  C   UNL     1       4.152  -3.036   2.850  0.00  0.00    +0.000 A 
ATOM     17  C   UNL     1       4.496  -2.340   1.688  0.00  0.00    +0.000 A 
ENDBRANCH   3  12
TORSDOF 3
