REMARK  Name = *****
REMARK  1 active torsions:
REMARK  status: ('A' for Active; 'I' for Inactive)
REMARK    1  A    between atoms: C_1  and  N_2
REMARK                            x       y       z     vdW  Elec       q    Type
REMARK                         _______ _______ _______ _____ _____    ______ ____
ROOT
ATOM      1  C   UNL     1       1.416  -1.314  -1.092  0.00  0.00    +0.000 C 
ATOM      2  N   UNL     1       2.004  -2.543  -0.570  0.00  0.00    +0.000 N 
ATOM      3  C   UNL     1       1.340  -3.827  -0.883  0.00  0.00    +0.000 C 
ATOM      4  C   UNL     1      -0.192  -3.835  -0.931  0.00  0.00    +0.000 A 
ATOM      5  C   UNL     1      -0.851  -4.065  -2.149  0.00  0.00    +0.000 A 
ATOM      6  C   UNL     1      -2.246  -4.137  -2.200  0.00  0.00    +0.000 A 
ATOM      7  C   UNL     1      -3.004  -3.981  -1.039  0.00  0.00    +0.000 A 
ATOM      8  C   UNL     1      -2.372  -3.749   0.182  0.00  0.00    +0.000 A 
ATOM      9  C   UNL     1      -0.981  -3.682   0.233  0.00  0.00    +0.000 A 
ATOM     10  C   UNL     1      -0.298  -3.384   1.443  0.00  0.00    +0.000 C 
ATOM     11  C   UNL     1       0.706  -3.031   1.990  0.00  0.00    +0.000 C 
ATOM     12  C   UNL     1       2.065  -2.608   1.943  0.00  0.00    +0.000 A 
ATOM     13  C   UNL     1       2.779  -2.407   3.127  0.00  0.00    +0.000 A 
ATOM     14  C   UNL     1       4.099  -1.964   3.072  0.00  0.00    +0.000 A 
ATOM     15  C   UNL     1       4.699  -1.718   1.838  0.00  0.00    +0.000 A 
ATOM     16  C   UNL     1       3.982  -1.917   0.654  0.00  0.00    +0.000 A 
ATOM     17  C   UNL     1       2.656  -2.378   0.672  0.00  0.00    +0.000 A 
ENDROOT
TORSDOF 0
