REMARK  Name = *****
REMARK  3 active torsions:
REMARK  status: ('A' for Active; 'I' for Inactive)
REMARK    1  A    between atoms: C_1  and  C_2
REMARK    2  A    between atoms: C_1  and  C_8
REMARK    3  A    between atoms: C_8  and  C_9
REMARK                            x       y       z     vdW  Elec       q    Type
REMARK                         _______ _______ _______ _____ _____    ______ ____
ROOT
ATOM      1  C   UNL     1       3.064  -1.190  -0.201  0.00  0.00    +0.000 C 
ATOM      2  F   UNL     1       4.254  -0.684  -0.654  0.00  0.00    +0.000 F 
ENDROOT
BRANCH   1   3
ATOM      3  C   UNL     1       2.551  -2.297  -1.098  0.00  0.00    +0.000 A 
ATOM      4  C   UNL     1       2.973  -2.385  -2.432  0.00  0.00    +0.000 A 
ATOM      5  C   UNL     1       2.489  -3.396  -3.263  0.00  0.00    +0.000 A 
ATOM      6  C   UNL     1       1.577  -4.327  -2.771  0.00  0.00    +0.000 A 
ATOM      7  C   UNL     1       1.149  -4.250  -1.447  0.00  0.00    +0.000 A 
ATOM      8  C   UNL     1       1.632  -3.240  -0.613  0.00  0.00    +0.000 A 
ENDBRANCH   1   3
BRANCH   1   9
ATOM      9  C   UNL     1       2.056  -0.035  -0.116  0.00  0.00    +0.000 C 
BRANCH   9  10
ATOM     10  C   UNL     1       2.360   0.913   1.022  0.00  0.00    +0.000 A 
ATOM     11  C   UNL     1       3.421   1.824   0.923  0.00  0.00    +0.000 A 
ATOM     12  C   UNL     1       3.710   2.691   1.977  0.00  0.00    +0.000 A 
ATOM     13  C   UNL     1       2.943   2.657   3.140  0.00  0.00    +0.000 A 
ATOM     14  C   UNL     1       1.887   1.754   3.250  0.00  0.00    +0.000 A 
ATOM     15  C   UNL     1       1.596   0.885   2.197  0.00  0.00    +0.000 A 
ENDBRANCH   9  10
ENDBRANCH   1   9
TORSDOF 3
