REMARK  Name = *****
REMARK  1 active torsions:
REMARK  status: ('A' for Active; 'I' for Inactive)
REMARK    1  A    between atoms: N_12  and  C_13
REMARK                            x       y       z     vdW  Elec       q    Type
REMARK                         _______ _______ _______ _____ _____    ______ ____
ROOT
ATOM      1  C   UNL     1       1.182   0.812   0.137  0.00  0.00    +0.000 C 
ATOM      2  C   UNL     1       2.506   0.637   0.096  0.00  0.00    +0.000 C 
ATOM      3  C   UNL     1       3.322  -0.083   1.168  0.00  0.00    +0.000 C 
ATOM      4  C   UNL     1       3.204  -1.617   1.092  0.00  0.00    +0.000 C 
ATOM      5  C   UNL     1       1.988  -2.176   1.822  0.00  0.00    +0.000 C 
ATOM      6  C   UNL     1       1.941  -1.701   3.269  0.00  0.00    +0.000 C 
ATOM      7  C   UNL     1       1.967  -0.180   3.374  0.00  0.00    +0.000 C 
ATOM      8  C   UNL     1       3.139   0.432   2.610  0.00  0.00    +0.000 C 
ATOM      9  O   UNL     1       4.685   0.237   0.811  0.00  0.00    +0.000 OA
ATOM     10  C   UNL     1       4.706   0.904  -0.374  0.00  0.00    +0.000 C 
ATOM     11  O   UNL     1       5.746   1.260  -0.908  0.00  0.00    +0.000 OA
ATOM     12  N   UNL     1       3.407   1.109  -0.836  0.00  0.00    +0.000 N 
ENDROOT
BRANCH  12  13
ATOM     13  C   UNL     1       3.254   1.755  -2.146  0.00  0.00    +0.000 C 
ATOM     14  C   UNL     1       1.903   2.360  -2.572  0.00  0.00    +0.000 C 
ATOM     15  C   UNL     1       0.922   1.386  -3.234  0.00  0.00    +0.000 C 
ATOM     16  C   UNL     1       1.569   0.561  -4.337  0.00  0.00    +0.000 C 
ATOM     17  C   UNL     1       2.813  -0.143  -3.819  0.00  0.00    +0.000 C 
ATOM     18  C   UNL     1       3.819   0.872  -3.289  0.00  0.00    +0.000 C 
ENDBRANCH  12  13
TORSDOF 1
