REMARK  Name = *****
REMARK  3 active torsions:
REMARK  status: ('A' for Active; 'I' for Inactive)
REMARK    1  A    between atoms: C_4  and  C_7
REMARK    2  A    between atoms: C_7  and  C_8
REMARK    3  A    between atoms: C_8  and  C_11
REMARK                            x       y       z     vdW  Elec       q    Type
REMARK                         _______ _______ _______ _____ _____    ______ ____
ROOT
ATOM      1  C   UNL     1      -3.631  -1.247  -0.345  0.00  0.00    +0.000 C 
ATOM      2  C   UNL     1      -3.513  -2.570  -0.519  0.00  0.00    +0.000 C 
ATOM      3  F   UNL     1      -4.571  -3.397  -0.609  0.00  0.00    +0.000 F 
ENDROOT
BRANCH   1   4
ATOM      4  C   UNL     1      -4.966  -0.623  -0.258  0.00  0.00    +0.000 A 
ATOM      5  C   UNL     1      -5.859  -0.998   0.755  0.00  0.00    +0.000 A 
ATOM      6  C   UNL     1      -7.115  -0.395   0.856  0.00  0.00    +0.000 A 
ATOM      7  C   UNL     1      -7.491   0.589  -0.056  0.00  0.00    +0.000 A 
ATOM      8  C   UNL     1      -6.614   0.969  -1.070  0.00  0.00    +0.000 A 
ATOM      9  C   UNL     1      -5.357   0.366  -1.170  0.00  0.00    +0.000 A 
ENDBRANCH   1   4
BRANCH   1  10
ATOM     10  C   UNL     1      -2.419  -0.346  -0.287  0.00  0.00    +0.000 C 
BRANCH  10  14
ATOM     11  C   UNL     1      -1.640   1.131   3.696  0.00  0.00    +0.000 A 
ATOM     12  C   UNL     1      -1.116  -0.096   3.292  0.00  0.00    +0.000 A 
ATOM     13  C   UNL     1      -1.364  -0.572   2.003  0.00  0.00    +0.000 A 
ATOM     14  C   UNL     1      -2.134   0.179   1.103  0.00  0.00    +0.000 A 
ATOM     15  C   UNL     1      -2.663   1.408   1.524  0.00  0.00    +0.000 A 
ATOM     16  C   UNL     1      -2.414   1.881   2.813  0.00  0.00    +0.000 A 
ENDBRANCH  10  14
ENDBRANCH   1  10
TORSDOF 3
