REMARK  Name = *****
REMARK  5 active torsions:
REMARK  status: ('A' for Active; 'I' for Inactive)
REMARK    1  A    between atoms: C_1  and  C_2
REMARK    2  A    between atoms: N_4  and  C_5
REMARK    3  A    between atoms: N_4  and  O_20
REMARK    4  A    between atoms: C_8  and  C_11
REMARK    5  A    between atoms: C_12  and  C_13
REMARK                            x       y       z     vdW  Elec       q    Type
REMARK                         _______ _______ _______ _____ _____    ______ ____
ROOT
ATOM      1  C   UNL     1       2.580   1.803  -1.677  0.00  0.00    +0.000 A 
ATOM      2  C   UNL     1       1.432   2.479  -1.251  0.00  0.00    +0.000 A 
ATOM      3  C   UNL     1       0.746   3.357  -2.104  0.00  0.00    +0.000 A 
ATOM      4  C   UNL     1       1.197   3.593  -3.405  0.00  0.00    +0.000 A 
ATOM      5  C   UNL     1       2.331   2.908  -3.846  0.00  0.00    +0.000 A 
ATOM      6  C   UNL     1       3.015   2.031  -2.993  0.00  0.00    +0.000 A 
ENDROOT
BRANCH   1  10
ATOM      7  C   UNL     1       3.893  -0.578   1.010  0.00  0.00    +0.000 C 
ATOM      8  C   UNL     1       2.956   0.460   0.433  0.00  0.00    +0.000 C 
ATOM      9  O   UNL     1       1.989   0.831   1.098  0.00  0.00    +0.000 OA
ATOM     10  N   UNL     1       3.304   0.916  -0.833  0.00  0.00    +0.000 N 
BRANCH  10  11
ATOM     11  O   UNL     1       4.454   0.329  -1.417  0.00  0.00    +0.000 OA
ATOM     12  H   UNL     1       4.881  -0.256  -0.773  0.00  0.00    +0.000 HD
ENDBRANCH  10  11
ENDBRANCH   1  10
BRANCH   4  13
ATOM     13  C   UNL     1       0.488   4.479  -4.339  0.00  0.00    +0.000 C 
ATOM     14  C   UNL     1      -0.110   5.625  -3.975  0.00  0.00    +0.000 C 
BRANCH  14  15
ATOM     15  C   UNL     1      -0.803   6.519  -4.914  0.00  0.00    +0.000 A 
ATOM     16  C   UNL     1      -1.593   6.030  -5.966  0.00  0.00    +0.000 A 
ATOM     17  C   UNL     1      -2.262   6.912  -6.819  0.00  0.00    +0.000 A 
ATOM     18  C   UNL     1      -2.150   8.281  -6.614  0.00  0.00    +0.000 A 
ATOM     19  C   UNL     1      -1.386   8.786  -5.569  0.00  0.00    +0.000 A 
ATOM     20  C   UNL     1      -0.718   7.905  -4.716  0.00  0.00    +0.000 A 
ATOM     21  F   UNL     1      -2.792   9.126  -7.431  0.00  0.00    +0.000 F 
ENDBRANCH  14  15
ENDBRANCH   4  13
TORSDOF 4
