REMARK  Name = *****
REMARK  4 active torsions:
REMARK  status: ('A' for Active; 'I' for Inactive)
REMARK    1  A    between atoms: C_4  and  C_5
REMARK    2  A    between atoms: C_4  and  C_13
REMARK    3  A    between atoms: C_5  and  O_6
REMARK    4  A    between atoms: O_6  and  C_7
REMARK                            x       y       z     vdW  Elec       q    Type
REMARK                         _______ _______ _______ _____ _____    ______ ____
ROOT
ATOM      1  C   UNL     1      -0.127   0.902   0.052  0.00  0.00    +0.000 C 
ATOM      2  C   UNL     1       0.723  -0.407   0.064  0.00  0.00    +0.000 C 
ATOM      3  C   UNL     1      -0.688  -0.392   0.027  0.00  0.00    +0.000 C 
ATOM      4  C   UNL     1      -1.784  -1.131   0.012  0.00  0.00    +0.000 C 
ENDROOT
BRANCH   4   5
ATOM      5  C   UNL     1      -3.122  -0.498  -0.018  0.00  0.00    +0.000 A 
ATOM      6  C   UNL     1      -3.398   0.567  -0.891  0.00  0.00    +0.000 A 
ATOM      7  C   UNL     1      -4.667   1.151  -0.936  0.00  0.00    +0.000 A 
ATOM      8  C   UNL     1      -5.683   0.675  -0.112  0.00  0.00    +0.000 A 
ATOM      9  C   UNL     1      -5.431  -0.384   0.755  0.00  0.00    +0.000 A 
ATOM     10  C   UNL     1      -4.161  -0.968   0.799  0.00  0.00    +0.000 A 
ENDBRANCH   4   5
BRANCH   4  11
ATOM     11  C   UNL     1      -1.706  -2.639   0.010  0.00  0.00    +0.000 C 
BRANCH  11  12
ATOM     12  O   UNL     1      -1.817  -3.113   1.353  0.00  0.00    +0.000 OA
BRANCH  12  13
ATOM     13  C   UNL     1      -1.751  -4.464   1.547  0.00  0.00    +0.000 A 
ATOM     14  C   UNL     1      -1.633  -5.435   0.551  0.00  0.00    +0.000 A 
ATOM     15  C   UNL     1      -1.578  -6.790   0.895  0.00  0.00    +0.000 A 
ATOM     16  C   UNL     1      -1.641  -7.179   2.232  0.00  0.00    +0.000 A 
ATOM     17  C   UNL     1      -1.760  -6.215   3.229  0.00  0.00    +0.000 A 
ATOM     18  C   UNL     1      -1.815  -4.863   2.885  0.00  0.00    +0.000 A 
ENDBRANCH  12  13
ENDBRANCH  11  12
ENDBRANCH   4  11
TORSDOF 4
