REMARK  Name = *****
REMARK  4 active torsions:
REMARK  status: ('A' for Active; 'I' for Inactive)
REMARK    1  A    between atoms: C_1  and  C_2
REMARK    2  A    between atoms: C_4  and  C_8
REMARK    3  A    between atoms: C_8  and  O_10
REMARK    4  A    between atoms: O_10  and  C_11
REMARK                            x       y       z     vdW  Elec       q    Type
REMARK                         _______ _______ _______ _____ _____    ______ ____
ROOT
ATOM      1  C   UNL     1      -2.055   2.590  -0.659  0.00  0.00    +0.000 C 
ATOM      2  O   UNL     1      -3.260   2.501  -0.487  0.00  0.00    +0.000 OA
ENDROOT
BRANCH   1   6
ATOM      3  C   UNL     1       2.391   0.644  -2.073  0.00  0.00    +0.000 C 
ATOM      4  C   UNL     1       0.942   0.478  -1.719  0.00  0.00    +0.000 A 
ATOM      5  C   UNL     1       0.169   1.588  -1.350  0.00  0.00    +0.000 A 
ATOM      6  C   UNL     1      -1.195   1.441  -1.055  0.00  0.00    +0.000 A 
ATOM      7  C   UNL     1      -1.786   0.174  -1.143  0.00  0.00    +0.000 A 
ATOM      8  C   UNL     1      -1.024  -0.931  -1.522  0.00  0.00    +0.000 A 
ATOM      9  C   UNL     1       0.332  -0.779  -1.814  0.00  0.00    +0.000 A 
ENDBRANCH   1   6
BRANCH   1  10
ATOM     10  O   UNL     1      -1.310   3.715  -0.520  0.00  0.00    +0.000 OA
BRANCH  10  11
ATOM     11  C   UNL     1      -2.028   4.908  -0.156  0.00  0.00    +0.000 C 
ATOM     12  C   UNL     1      -2.596   5.571  -1.414  0.00  0.00    +0.000 C 
ATOM     13  C   UNL     1      -3.223   6.926  -1.106  0.00  0.00    +0.000 C 
ATOM     14  C   UNL     1      -2.242   7.849  -0.388  0.00  0.00    +0.000 C 
ATOM     15  C   UNL     1      -1.665   7.195   0.864  0.00  0.00    +0.000 C 
ATOM     16  C   UNL     1      -1.039   5.841   0.549  0.00  0.00    +0.000 C 
ENDBRANCH  10  11
ENDBRANCH   1  10
TORSDOF 3
