REMARK  Name = *****
REMARK  3 active torsions:
REMARK  status: ('A' for Active; 'I' for Inactive)
REMARK    1  A    between atoms: C_4  and  C_7
REMARK    2  A    between atoms: C_7  and  S_8
REMARK    3  A    between atoms: S_8  and  C_9
REMARK                            x       y       z     vdW  Elec       q    Type
REMARK                         _______ _______ _______ _____ _____    ______ ____
ROOT
ATOM      1  C   UNL     1       2.870  -0.746  -0.081  0.00  0.00    +0.000 C 
ENDROOT
BRANCH   1   5
ATOM      2  C   UNL     1      -1.382   0.289  -0.387  0.00  0.00    +0.000 C 
ATOM      3  C   UNL     1      -1.023  -1.070   0.204  0.00  0.00    +0.000 C 
ATOM      4  C   UNL     1       0.414  -1.469  -0.124  0.00  0.00    +0.000 C 
ATOM      5  C   UNL     1       1.425  -0.394   0.319  0.00  0.00    +0.000 C 
ATOM      6  C   UNL     1       1.044   0.970  -0.286  0.00  0.00    +0.000 C 
ATOM      7  C   UNL     1      -0.392   1.363   0.047  0.00  0.00    +0.000 C 
ENDBRANCH   1   5
BRANCH   1   8
ATOM      8  S   UNL     1       3.513  -2.184   0.848  0.00  0.00    +0.000 S 
BRANCH   8   9
ATOM      9  C   UNL     1       5.022  -2.496  -0.051  0.00  0.00    +0.000 A 
ATOM     10  C   UNL     1       5.981  -1.499  -0.257  0.00  0.00    +0.000 A 
ATOM     11  C   UNL     1       7.156  -1.784  -0.957  0.00  0.00    +0.000 A 
ATOM     12  C   UNL     1       7.384  -3.069  -1.446  0.00  0.00    +0.000 A 
ATOM     13  C   UNL     1       6.441  -4.072  -1.230  0.00  0.00    +0.000 A 
ATOM     14  C   UNL     1       5.266  -3.787  -0.531  0.00  0.00    +0.000 A 
ENDBRANCH   8   9
ENDBRANCH   1   8
TORSDOF 3
