REMARK  Name = *****
REMARK  1 active torsions:
REMARK  status: ('A' for Active; 'I' for Inactive)
REMARK    1  A    between atoms: C_5  and  C_7
REMARK                            x       y       z     vdW  Elec       q    Type
REMARK                         _______ _______ _______ _____ _____    ______ ____
ROOT
ATOM      1  C   UNL     1      -1.198  -2.249  -0.372  0.00  0.00    +0.000 A 
ATOM      2  N   UNL     1      -2.154  -2.640  -1.194  0.00  0.00    +0.000 NA
ATOM      3  C   UNL     1      -2.559  -3.847  -0.690  0.00  0.00    +0.000 A 
ATOM      4  C   UNL     1      -1.829  -4.148   0.447  0.00  0.00    +0.000 A 
ATOM      5  O   UNL     1      -0.955  -3.124   0.663  0.00  0.00    +0.000 OA
ATOM      6  C   UNL     1      -1.983  -5.298   1.211  0.00  0.00    +0.000 A 
ATOM      7  C   UNL     1      -2.962  -6.187   0.756  0.00  0.00    +0.000 A 
ATOM      8  C   UNL     1      -3.727  -5.926  -0.389  0.00  0.00    +0.000 A 
ATOM      9  C   UNL     1      -3.536  -4.749  -1.130  0.00  0.00    +0.000 A 
ATOM     10 CL   UNL     1      -3.235  -7.646   1.632  0.00  0.00    +0.000 Cl
ENDROOT
BRANCH   1  15
ATOM     11  C   UNL     1       0.866   0.649   0.884  0.00  0.00    +0.000 A 
ATOM     12  C   UNL     1       1.174   1.322  -0.292  0.00  0.00    +0.000 A 
ATOM     13  C   UNL     1       0.715   0.827  -1.511  0.00  0.00    +0.000 A 
ATOM     14  C   UNL     1      -0.057  -0.343  -1.561  0.00  0.00    +0.000 A 
ATOM     15  C   UNL     1      -0.382  -1.035  -0.382  0.00  0.00    +0.000 A 
ATOM     16  C   UNL     1       0.097  -0.518   0.839  0.00  0.00    +0.000 A 
ATOM     17 CL   UNL     1      -0.530  -0.882  -3.137  0.00  0.00    +0.000 Cl
ENDBRANCH   1  15
TORSDOF 1
