REMARK  Name = *****
REMARK  4 active torsions:
REMARK  status: ('A' for Active; 'I' for Inactive)
REMARK    1  A    between atoms: C_2  and  C_3
REMARK    2  A    between atoms: C_3  and  O_10
REMARK    3  A    between atoms: O_10  and  S_11
REMARK    4  A    between atoms: S_11  and  C_12
REMARK                            x       y       z     vdW  Elec       q    Type
REMARK                         _______ _______ _______ _____ _____    ______ ____
ROOT
ATOM      1  C   UNL     1       3.430   0.067  -1.895  0.00  0.00    +0.000 C 
ATOM      2  C   UNL     1       2.215   1.031  -2.193  0.00  0.00    +0.000 C 
ATOM      3  C   UNL     1       1.077   0.067  -2.606  0.00  0.00    +0.000 C 
ATOM      4  C   UNL     1       1.353  -1.148  -1.719  0.00  0.00    +0.000 C 
ATOM      5  C   UNL     1       2.781  -1.324  -2.249  0.00  0.00    +0.000 C 
ATOM      6  C   UNL     1       2.460  -1.370  -3.734  0.00  0.00    +0.000 C 
ATOM      7  C   UNL     1       1.439  -0.527  -3.945  0.00  0.00    +0.000 C 
ENDROOT
BRANCH   1   9
ATOM      8  C   UNL     1       3.996  -0.762   0.487  0.00  0.00    +0.000 C 
ATOM      9  C   UNL     1       3.893   0.196  -0.445  0.00  0.00    +0.000 C 
ENDBRANCH   1   9
BRANCH   1  10
ATOM     10  O   UNL     1       4.558   0.241  -2.774  0.00  0.00    +0.000 OA
BRANCH  10  11
ATOM     11  S   UNL     1       5.261   1.749  -2.887  0.00  0.00    +0.000 S 
BRANCH  11  12
ATOM     12  C   UNL     1       6.790   1.456  -2.007  0.00  0.00    +0.000 A 
ATOM     13  C   UNL     1       7.510   2.562  -1.538  0.00  0.00    +0.000 A 
ATOM     14  C   UNL     1       8.718   2.389  -0.858  0.00  0.00    +0.000 A 
ATOM     15  C   UNL     1       9.218   1.107  -0.640  0.00  0.00    +0.000 A 
ATOM     16  C   UNL     1       8.513  -0.001  -1.107  0.00  0.00    +0.000 A 
ATOM     17  C   UNL     1       7.307   0.173  -1.791  0.00  0.00    +0.000 A 
ENDBRANCH  11  12
ENDBRANCH  10  11
ENDBRANCH   1  10
TORSDOF 4
