REMARK  Name = *****
REMARK  3 active torsions:
REMARK  status: ('A' for Active; 'I' for Inactive)
REMARK    1  A    between atoms: C_3  and  C_9
REMARK    2  A    between atoms: C_5  and  C_7
REMARK    3  A    between atoms: C_10  and  C_11
REMARK                            x       y       z     vdW  Elec       q    Type
REMARK                         _______ _______ _______ _____ _____    ______ ____
ROOT
ATOM      1  C   UNL     1      -1.726  -2.253   0.015  0.00  0.00    +0.000 C 
ATOM      2  C   UNL     1      -1.323  -3.531   0.111  0.00  0.00    +0.000 C 
ENDROOT
BRANCH   2   3
ATOM      3  C   UNL     1      -2.238  -4.682   0.103  0.00  0.00    +0.000 A 
ATOM      4  C   UNL     1      -3.388  -4.722  -0.697  0.00  0.00    +0.000 A 
ATOM      5  C   UNL     1      -4.205  -5.851  -0.691  0.00  0.00    +0.000 A 
ATOM      6  C   UNL     1      -3.901  -6.956   0.089  0.00  0.00    +0.000 A 
ATOM      7  C   UNL     1      -2.755  -6.922   0.867  0.00  0.00    +0.000 A 
ATOM      8  C   UNL     1      -1.921  -5.805   0.878  0.00  0.00    +0.000 A 
ATOM      9  F   UNL     1      -2.439  -7.983   1.621  0.00  0.00    +0.000 F 
ATOM     10  F   UNL     1      -5.302  -5.870  -1.460  0.00  0.00    +0.000 F 
ENDBRANCH   2   3
BRANCH   1  13
ATOM     11  C   UNL     1       1.274  -0.003  -0.569  0.00  0.00    +0.000 A 
ATOM     12  C   UNL     1       0.442  -1.126  -0.588  0.00  0.00    +0.000 A 
ATOM     13  C   UNL     1      -0.811  -1.103   0.042  0.00  0.00    +0.000 A 
ATOM     14  C   UNL     1      -1.229   0.078   0.667  0.00  0.00    +0.000 A 
ATOM     15  C   UNL     1      -0.394   1.201   0.684  0.00  0.00    +0.000 A 
ATOM     16  C   UNL     1       0.859   1.164   0.070  0.00  0.00    +0.000 A 
BRANCH  15  17
ATOM     17  C   UNL     1      -0.836   2.442   1.351  0.00  0.00    +0.000 C 
ATOM     18  O   UNL     1      -1.928   2.536   1.897  0.00  0.00    +0.000 OA
ENDBRANCH  15  17
ENDBRANCH   1  13
TORSDOF 3
