REMARK  Name = *****
REMARK  3 active torsions:
REMARK  status: ('A' for Active; 'I' for Inactive)
REMARK    1  A    between atoms: C_1  and  N_2
REMARK    2  A    between atoms: N_2  and  C_3
REMARK    3  A    between atoms: C_9  and  C_11
REMARK                            x       y       z     vdW  Elec       q    Type
REMARK                         _______ _______ _______ _____ _____    ______ ____
ROOT
ATOM      1  C   UNL     1       1.178  -0.537   0.463  0.00  0.00    +0.000 C 
ATOM      2  N   UNL     1       2.540  -0.185   0.052  0.00  0.00    +0.000 N 
ATOM      3  C   UNL     1       3.256  -1.035  -0.812  0.00  0.00    +0.000 C 
ATOM      4  O   UNL     1       4.477  -1.173  -0.851  0.00  0.00    +0.000 OA
ENDROOT
BRANCH   3   5
ATOM      5  C   UNL     1       2.489  -1.853  -1.786  0.00  0.00    +0.000 A 
ATOM      6  C   UNL     1       1.542  -1.256  -2.628  0.00  0.00    +0.000 A 
ATOM      7  C   UNL     1       0.851  -2.038  -3.557  0.00  0.00    +0.000 A 
ATOM      8  C   UNL     1       1.119  -3.404  -3.650  0.00  0.00    +0.000 A 
ATOM      9  C   UNL     1       2.080  -3.997  -2.829  0.00  0.00    +0.000 A 
ATOM     10  C   UNL     1       2.773  -3.219  -1.900  0.00  0.00    +0.000 A 
ATOM     11 CL   UNL     1       0.265  -4.364  -4.793  0.00  0.00    +0.000 Cl
ENDBRANCH   3   5
BRANCH   2  12
ATOM     12  C   UNL     1       3.157   0.964   0.682  0.00  0.00    +0.000 A 
ATOM     13  C   UNL     1       4.412   1.447   0.280  0.00  0.00    +0.000 A 
ATOM     14  C   UNL     1       4.994   2.572   0.877  0.00  0.00    +0.000 A 
ATOM     15  C   UNL     1       4.328   3.253   1.887  0.00  0.00    +0.000 A 
ATOM     16  C   UNL     1       3.076   2.812   2.293  0.00  0.00    +0.000 A 
ATOM     17  C   UNL     1       2.496   1.686   1.694  0.00  0.00    +0.000 A 
ENDBRANCH   2  12
TORSDOF 2
