REMARK  Name = *****
REMARK  3 active torsions:
REMARK  status: ('A' for Active; 'I' for Inactive)
REMARK    1  A    between atoms: C_2  and  C_3
REMARK    2  A    between atoms: C_6  and  C_8
REMARK    3  A    between atoms: C_9  and  C_10
REMARK                            x       y       z     vdW  Elec       q    Type
REMARK                         _______ _______ _______ _____ _____    ______ ____
ROOT
ATOM      1  C   UNL     1       5.916  -1.932   3.601  0.00  0.00    +0.000 C 
ATOM      2  C   UNL     1       6.096  -3.010   4.381  0.00  0.00    +0.000 C 
ENDROOT
BRANCH   2   3
ATOM      3  C   UNL     1       7.247  -3.171   5.282  0.00  0.00    +0.000 A 
ATOM      4  C   UNL     1       7.730  -2.119   6.072  0.00  0.00    +0.000 A 
ATOM      5  C   UNL     1       8.806  -2.318   6.940  0.00  0.00    +0.000 A 
ATOM      6  C   UNL     1       9.404  -3.573   7.034  0.00  0.00    +0.000 A 
ATOM      7  C   UNL     1       8.923  -4.631   6.266  0.00  0.00    +0.000 A 
ATOM      8  C   UNL     1       7.846  -4.432   5.398  0.00  0.00    +0.000 A 
ENDBRANCH   2   3
BRANCH   1  12
ATOM      9  C   UNL     1       3.194  -0.861   1.024  0.00  0.00    +0.000 A 
ATOM     10  C   UNL     1       2.803  -2.089   1.525  0.00  0.00    +0.000 A 
ATOM     11  C   UNL     1       3.710  -2.618   2.492  0.00  0.00    +0.000 A 
ATOM     12  C   UNL     1       4.794  -1.794   2.729  0.00  0.00    +0.000 A 
ATOM     13  S   UNL     1       4.677  -0.378   1.755  0.00  0.00    +0.000 S 
BRANCH   9  15
ATOM     14  C   UNL     1       1.435  -0.300  -0.554  0.00  0.00    +0.000 C 
ATOM     15  C   UNL     1       2.587  -0.004   0.061  0.00  0.00    +0.000 C 
ENDBRANCH   9  15
ENDBRANCH   1  12
TORSDOF 3
