REMARK  Name = *****
REMARK  4 active torsions:
REMARK  status: ('A' for Active; 'I' for Inactive)
REMARK    1  A    between atoms: C_1  and  C_2
REMARK    2  A    between atoms: C_5  and  C_8
REMARK    3  A    between atoms: N_9  and  C_10
REMARK    4  A    between atoms: C_14  and  C_16
REMARK                            x       y       z     vdW  Elec       q    Type
REMARK                         _______ _______ _______ _____ _____    ______ ____
ROOT
ATOM      1  C   UNL     1      -5.389   1.199   0.358  0.00  0.00    +0.000 A 
ATOM      2  C   UNL     1      -6.160   0.386   1.192  0.00  0.00    +0.000 A 
ATOM      3  C   UNL     1      -7.551   0.378   1.083  0.00  0.00    +0.000 A 
ATOM      4  C   UNL     1      -8.180   1.192   0.141  0.00  0.00    +0.000 A 
ATOM      5  C   UNL     1      -7.423   2.022  -0.701  0.00  0.00    +0.000 A 
ATOM      6  C   UNL     1      -6.025   2.024  -0.572  0.00  0.00    +0.000 A 
ENDROOT
BRANCH   5   7
ATOM      7  C   UNL     1      -8.094   2.933  -1.696  0.00  0.00    +0.000 C 
ATOM      8  F   UNL     1      -9.325   2.493  -2.081  0.00  0.00    +0.000 F 
ATOM      9  F   UNL     1      -8.283   4.189  -1.207  0.00  0.00    +0.000 F 
ATOM     10  F   UNL     1      -7.380   3.082  -2.847  0.00  0.00    +0.000 F 
ENDBRANCH   5   7
BRANCH   1  12
ATOM     11  C   UNL     1      -3.349   0.306  -0.161  0.00  0.00    +0.000 C 
ATOM     12  N   UNL     1      -3.995   1.228   0.480  0.00  0.00    +0.000 NA
BRANCH  11  17
ATOM     13  C   UNL     1       2.410  -0.135  -0.037  0.00  0.00    +0.000 C 
ATOM     14  C   UNL     1       0.916   0.000  -0.089  0.00  0.00    +0.000 A 
ATOM     15  C   UNL     1       0.274   1.020   0.625  0.00  0.00    +0.000 A 
ATOM     16  C   UNL     1      -1.118   1.130   0.604  0.00  0.00    +0.000 A 
ATOM     17  C   UNL     1      -1.877   0.211  -0.124  0.00  0.00    +0.000 A 
ATOM     18  C   UNL     1      -1.249  -0.819  -0.828  0.00  0.00    +0.000 A 
ATOM     19  C   UNL     1       0.144  -0.925  -0.804  0.00  0.00    +0.000 A 
ENDBRANCH  11  17
ENDBRANCH   1  12
TORSDOF 3
