REMARK  Name = *****
REMARK  4 active torsions:
REMARK  status: ('A' for Active; 'I' for Inactive)
REMARK    1  A    between atoms: C_1  and  C_2
REMARK    2  A    between atoms: C_3  and  C_16
REMARK    3  A    between atoms: C_5  and  C_8
REMARK    4  A    between atoms: C_9  and  C_10
REMARK                            x       y       z     vdW  Elec       q    Type
REMARK                         _______ _______ _______ _____ _____    ______ ____
ROOT
ATOM      1  C   UNL     1       1.924   1.475  -0.008  0.00  0.00    +0.000 C 
ATOM      2  C   UNL     1       0.621   0.724  -0.014  0.00  0.00    +0.000 A 
ATOM      3  C   UNL     1       0.582  -0.683  -0.057  0.00  0.00    +0.000 A 
ATOM      4  C   UNL     1      -0.663  -1.338  -0.059  0.00  0.00    +0.000 A 
ATOM      5  C   UNL     1      -1.866  -0.621  -0.023  0.00  0.00    +0.000 A 
ATOM      6  C   UNL     1      -1.813   0.773   0.045  0.00  0.00    +0.000 A 
ATOM      7  C   UNL     1      -0.584   1.438   0.044  0.00  0.00    +0.000 A 
ATOM      8  C   UNL     1       1.843  -1.501  -0.111  0.00  0.00    +0.000 C 
ENDROOT
BRANCH   5   9
ATOM      9  C   UNL     1      -3.135  -1.361   0.007  0.00  0.00    +0.000 C 
ATOM     10  C   UNL     1      -4.249  -0.959  -0.628  0.00  0.00    +0.000 C 
BRANCH  10  11
ATOM     11  C   UNL     1      -5.514  -1.708  -0.613  0.00  0.00    +0.000 A 
ATOM     12  C   UNL     1      -5.985  -2.358   0.535  0.00  0.00    +0.000 A 
ATOM     13  C   UNL     1      -7.209  -3.033   0.519  0.00  0.00    +0.000 A 
ATOM     14  C   UNL     1      -7.979  -3.055  -0.643  0.00  0.00    +0.000 A 
ATOM     15  C   UNL     1      -7.529  -2.398  -1.786  0.00  0.00    +0.000 A 
ATOM     16  C   UNL     1      -6.305  -1.723  -1.769  0.00  0.00    +0.000 A 
ENDBRANCH  10  11
ENDBRANCH   5   9
TORSDOF 2
