REMARK  Name = *****
REMARK  4 active torsions:
REMARK  status: ('A' for Active; 'I' for Inactive)
REMARK    1  A    between atoms: C_4  and  C_7
REMARK    2  A    between atoms: C_7  and  O_9
REMARK    3  A    between atoms: O_9  and  C_10
REMARK    4  A    between atoms: C_13  and  C_16
REMARK                            x       y       z     vdW  Elec       q    Type
REMARK                         _______ _______ _______ _____ _____    ______ ____
ROOT
ATOM      1  O   UNL     1      -3.703  -0.405  -1.031  0.00  0.00    +0.000 OA
ENDROOT
BRANCH   1   2
ATOM      2  C   UNL     1      -5.091  -0.252  -0.945  0.00  0.00    +0.000 A 
ATOM      3  C   UNL     1      -5.771   0.630  -1.782  0.00  0.00    +0.000 A 
ATOM      4  C   UNL     1      -7.164   0.719  -1.703  0.00  0.00    +0.000 A 
ATOM      5  C   UNL     1      -7.876  -0.088  -0.802  0.00  0.00    +0.000 A 
ATOM      6  C   UNL     1      -7.170  -0.990   0.015  0.00  0.00    +0.000 A 
ATOM      7  C   UNL     1      -5.778  -1.077  -0.060  0.00  0.00    +0.000 A 
BRANCH   5   8
ATOM      8  C   UNL     1      -9.370  -0.025  -0.686  0.00  0.00    +0.000 C 
ATOM      9  O   UNL     1      -9.908  -0.804   0.101  0.00  0.00    +0.000 OA
ATOM     10 CL   UNL     1     -10.275   1.121  -1.653  0.00  0.00    +0.000 Cl
ENDBRANCH   5   8
ENDBRANCH   1   2
BRANCH   1  11
ATOM     11  C   UNL     1      -2.964   0.712  -0.686  0.00  0.00    +0.000 C 
ATOM     12  O   UNL     1      -3.395   1.793  -0.314  0.00  0.00    +0.000 OA
BRANCH  11  16
ATOM     13  C   UNL     1       1.248  -0.015  -1.072  0.00  0.00    +0.000 A 
ATOM     14  C   UNL     1       0.351  -1.044  -1.359  0.00  0.00    +0.000 A 
ATOM     15  C   UNL     1      -1.024  -0.830  -1.240  0.00  0.00    +0.000 A 
ATOM     16  C   UNL     1      -1.510   0.421  -0.832  0.00  0.00    +0.000 A 
ATOM     17  C   UNL     1      -0.601   1.449  -0.545  0.00  0.00    +0.000 A 
ATOM     18  C   UNL     1       0.773   1.231  -0.666  0.00  0.00    +0.000 A 
ENDBRANCH  11  16
ENDBRANCH   1  11
TORSDOF 4
