REMARK  Name = *****
REMARK  2 active torsions:
REMARK  status: ('A' for Active; 'I' for Inactive)
REMARK    1  A    between atoms: C_4  and  C_8
REMARK    2  A    between atoms: N_9  and  C_10
REMARK                            x       y       z     vdW  Elec       q    Type
REMARK                         _______ _______ _______ _____ _____    ______ ____
ROOT
ATOM      1  C   UNL     1       1.424   2.557   0.069  0.00  0.00    +0.000 C 
ATOM      2  N   UNL     1       0.827   3.690  -0.130  0.00  0.00    +0.000 NA
ENDROOT
BRANCH   1   6
ATOM      3  C   UNL     1      -0.661  -1.162   0.001  0.00  0.00    +0.000 A 
ATOM      4  C   UNL     1       0.710  -1.129   0.256  0.00  0.00    +0.000 A 
ATOM      5  C   UNL     1       1.376   0.096   0.275  0.00  0.00    +0.000 A 
ATOM      6  C   UNL     1       0.684   1.285   0.041  0.00  0.00    +0.000 A 
ATOM      7  C   UNL     1      -0.689   1.254  -0.215  0.00  0.00    +0.000 A 
ATOM      8  C   UNL     1      -1.346   0.029  -0.232  0.00  0.00    +0.000 A 
ATOM      9  F   UNL     1      -2.662  -0.010  -0.476  0.00  0.00    +0.000 F 
ATOM     10  F   UNL     1       2.693   0.109   0.525  0.00  0.00    +0.000 F 
ENDBRANCH   1   6
BRANCH   2  11
ATOM     11  C   UNL     1       1.618   4.854  -0.102  0.00  0.00    +0.000 A 
ATOM     12  C   UNL     1       2.759   5.036  -0.902  0.00  0.00    +0.000 A 
ATOM     13  C   UNL     1       3.495   6.220  -0.866  0.00  0.00    +0.000 A 
ATOM     14  C   UNL     1       3.086   7.254  -0.026  0.00  0.00    +0.000 A 
ATOM     15  C   UNL     1       1.949   7.088   0.758  0.00  0.00    +0.000 A 
ATOM     16  C   UNL     1       1.213   5.906   0.723  0.00  0.00    +0.000 A 
ATOM     17  F   UNL     1       1.553   8.086   1.559  0.00  0.00    +0.000 F 
ATOM     18  F   UNL     1       3.169   4.056  -1.723  0.00  0.00    +0.000 F 
ENDBRANCH   2  11
TORSDOF 2
