REMARK  Name = *****
REMARK  6 active torsions:
REMARK  status: ('A' for Active; 'I' for Inactive)
REMARK    1  A    between atoms: C_1  and  N_2
REMARK    2  A    between atoms: N_2  and  C_3
REMARK    3  A    between atoms: N_2  and  C_4
REMARK    4  A    between atoms: C_4  and  C_5
REMARK    5  A    between atoms: C_8  and  C_11
REMARK    6  A    between atoms: C_12  and  C_13
REMARK                            x       y       z     vdW  Elec       q    Type
REMARK                         _______ _______ _______ _____ _____    ______ ____
ROOT
ATOM      1  C   UNL     1       4.517   0.047  -1.391  0.00  0.00    +0.000 A 
ATOM      2  C   UNL     1       5.186   0.184  -0.167  0.00  0.00    +0.000 A 
ATOM      3  C   UNL     1       6.583   0.156  -0.109  0.00  0.00    +0.000 A 
ATOM      4  C   UNL     1       7.341  -0.027  -1.272  0.00  0.00    +0.000 A 
ATOM      5  C   UNL     1       6.673  -0.153  -2.496  0.00  0.00    +0.000 A 
ATOM      6  C   UNL     1       5.275  -0.125  -2.556  0.00  0.00    +0.000 A 
ENDROOT
BRANCH   4   7
ATOM      7  C   UNL     1       8.811  -0.029  -1.261  0.00  0.00    +0.000 C 
ATOM      8  C   UNL     1       9.551  -0.579  -0.283  0.00  0.00    +0.000 C 
BRANCH   8   9
ATOM      9  C   UNL     1      11.021  -0.596  -0.280  0.00  0.00    +0.000 A 
ATOM     10  C   UNL     1      11.784   0.490  -0.729  0.00  0.00    +0.000 A 
ATOM     11  C   UNL     1      13.180   0.447  -0.679  0.00  0.00    +0.000 A 
ATOM     12  C   UNL     1      13.827  -0.677  -0.170  0.00  0.00    +0.000 A 
ATOM     13  C   UNL     1      13.079  -1.756   0.295  0.00  0.00    +0.000 A 
ATOM     14  C   UNL     1      11.683  -1.714   0.245  0.00  0.00    +0.000 A 
ENDBRANCH   8   9
ENDBRANCH   4   7
BRANCH   1  15
ATOM     15  C   UNL     1       3.003   0.056  -1.448  0.00  0.00    +0.000 C 
BRANCH  15  17
ATOM     16  C   UNL     1       2.676   2.457  -1.612  0.00  0.00    +0.000 C 
ATOM     17  N   UNL     1       2.395   1.249  -0.831  0.00  0.00    +0.000 N 
ATOM     18  C   UNL     1       0.949   1.064  -0.703  0.00  0.00    +0.000 C 
ATOM     19  H   UNL     1       2.807   1.369   0.094  0.00  0.00    +0.000 HD
ENDBRANCH  15  17
ENDBRANCH   1  15
TORSDOF 4
