REMARK  Name = *****
REMARK  2 active torsions:
REMARK  status: ('A' for Active; 'I' for Inactive)
REMARK    1  A    between atoms: C_5  and  C_7
REMARK    2  A    between atoms: C_8  and  C_9
REMARK                            x       y       z     vdW  Elec       q    Type
REMARK                         _______ _______ _______ _____ _____    ______ ____
ROOT
ATOM      1  C   UNL     1      -1.888  -1.784  -0.953  0.00  0.00    +0.000 C 
ATOM      2  C   UNL     1      -2.709  -2.777  -0.573  0.00  0.00    +0.000 C 
ENDROOT
BRANCH   2   3
ATOM      3  C   UNL     1      -3.558  -3.541  -1.498  0.00  0.00    +0.000 A 
ATOM      4  C   UNL     1      -3.741  -4.913  -1.272  0.00  0.00    +0.000 A 
ATOM      5  C   UNL     1      -4.563  -5.667  -2.114  0.00  0.00    +0.000 A 
ATOM      6  C   UNL     1      -5.213  -5.045  -3.172  0.00  0.00    +0.000 A 
ATOM      7  C   UNL     1      -5.059  -3.684  -3.404  0.00  0.00    +0.000 A 
ATOM      8  C   UNL     1      -4.236  -2.930  -2.564  0.00  0.00    +0.000 A 
ATOM      9  F   UNL     1      -6.003  -5.767  -3.977  0.00  0.00    +0.000 F 
ENDBRANCH   2   3
BRANCH   1  14
ATOM     10  C   UNL     1      -0.347   1.347   0.655  0.00  0.00    +0.000 C 
ATOM     11  C   UNL     1       1.012   1.200  -0.033  0.00  0.00    +0.000 C 
ATOM     12  C   UNL     1       1.349  -0.224  -0.364  0.00  0.00    +0.000 C 
ATOM     13  C   UNL     1       0.447  -1.218  -0.334  0.00  0.00    +0.000 C 
ATOM     14  C   UNL     1      -1.010  -1.010  -0.000  0.00  0.00    +0.000 C 
ATOM     15  C   UNL     1      -1.406   0.480  -0.023  0.00  0.00    +0.000 C 
ENDBRANCH   1  14
TORSDOF 2
