REMARK  Name = *****
REMARK  4 active torsions:
REMARK  status: ('A' for Active; 'I' for Inactive)
REMARK    1  A    between atoms: C_4  and  S_10
REMARK    2  A    between atoms: C_5  and  N_7
REMARK    3  A    between atoms: S_10  and  C_11
REMARK    4  A    between atoms: C_11  and  C_12
REMARK                            x       y       z     vdW  Elec       q    Type
REMARK                         _______ _______ _______ _____ _____    ______ ____
ROOT
ATOM      1  C   UNL     1       1.337  -0.210   0.330  0.00  0.00    +0.000 A 
ATOM      2  C   UNL     1       0.708  -1.305  -0.254  0.00  0.00    +0.000 A 
ATOM      3  C   UNL     1      -0.576  -1.172  -0.782  0.00  0.00    +0.000 A 
ATOM      4  C   UNL     1      -1.249   0.057  -0.719  0.00  0.00    +0.000 A 
ATOM      5  C   UNL     1      -0.621   1.172  -0.114  0.00  0.00    +0.000 A 
ATOM      6  C   UNL     1       0.681   1.020   0.391  0.00  0.00    +0.000 A 
ENDROOT
BRANCH   5   7
ATOM      7  N   UNL     1      -1.211   2.453  -0.047  0.00  0.00    +0.000 NA
ATOM      8  C   UNL     1      -2.004   2.528   0.816  0.00  0.00    +0.000 C 
ATOM      9  O   UNL     1      -2.798   2.591   1.682  0.00  0.00    +0.000 OA
ENDBRANCH   5   7
BRANCH   4  10
ATOM     10  S   UNL     1      -2.887   0.164  -1.441  0.00  0.00    +0.000 S 
BRANCH  10  11
ATOM     11  C   UNL     1      -3.826  -0.691  -0.132  0.00  0.00    +0.000 C 
BRANCH  11  12
ATOM     12  C   UNL     1      -5.297  -0.496  -0.330  0.00  0.00    +0.000 A 
ATOM     13  C   UNL     1      -6.109  -1.308  -1.102  0.00  0.00    +0.000 A 
ATOM     14  S   UNL     1      -7.744  -0.807  -1.102  0.00  0.00    +0.000 S 
ATOM     15  C   UNL     1      -7.398   0.507  -0.067  0.00  0.00    +0.000 A 
ATOM     16  C   UNL     1      -6.064   0.560   0.270  0.00  0.00    +0.000 A 
ENDBRANCH  11  12
ENDBRANCH  10  11
ENDBRANCH   4  10
TORSDOF 4
