REMARK  Name = *****
REMARK  7 active torsions:
REMARK  status: ('A' for Active; 'I' for Inactive)
REMARK    1  A    between atoms: C_1  and  C_2
REMARK    2  A    between atoms: C_3  and  N_9
REMARK    3  A    between atoms: C_4  and  C_8
REMARK    4  A    between atoms: C_10  and  O_11
REMARK    5  A    between atoms: C_10  and  S_18
REMARK    6  A    between atoms: O_11  and  C_12
REMARK    7  A    between atoms: S_18  and  O_19
REMARK                            x       y       z     vdW  Elec       q    Type
REMARK                         _______ _______ _______ _____ _____    ______ ____
ROOT
ATOM      1  N   UNL     1      -0.370   2.718   0.054  0.00  0.00    +0.000 NA
ATOM      2  C   UNL     1      -0.517   2.997  -1.211  0.00  0.00    +0.000 C 
ENDROOT
BRANCH   1   5
ATOM      3  C   UNL     1       2.220   1.451   0.195  0.00  0.00    +0.000 C 
ATOM      4  C   UNL     1       0.947   0.715   0.506  0.00  0.00    +0.000 A 
ATOM      5  C   UNL     1      -0.304   1.359   0.416  0.00  0.00    +0.000 A 
ATOM      6  C   UNL     1      -1.482   0.654   0.739  0.00  0.00    +0.000 A 
ATOM      7  C   UNL     1      -1.400  -0.701   1.091  0.00  0.00    +0.000 A 
ATOM      8  C   UNL     1      -0.166  -1.344   1.149  0.00  0.00    +0.000 A 
ATOM      9  C   UNL     1       1.001  -0.640   0.861  0.00  0.00    +0.000 A 
ATOM     10  C   UNL     1      -2.827   1.323   0.679  0.00  0.00    +0.000 C 
ENDBRANCH   1   5
BRANCH   2  11
ATOM     11  O   UNL     1      -0.622   1.996  -2.181  0.00  0.00    +0.000 OA
BRANCH  11  12
ATOM     12  C   UNL     1      -0.797   2.350  -3.526  0.00  0.00    +0.000 A 
ATOM     13  C   UNL     1       0.325   2.516  -4.335  0.00  0.00    +0.000 A 
ATOM     14  C   UNL     1       0.145   2.834  -5.680  0.00  0.00    +0.000 A 
ATOM     15  C   UNL     1      -1.146   2.964  -6.201  0.00  0.00    +0.000 A 
ATOM     16  C   UNL     1      -2.261   2.771  -5.381  0.00  0.00    +0.000 A 
ATOM     17  C   UNL     1      -2.089   2.453  -4.035  0.00  0.00    +0.000 A 
ENDBRANCH  11  12
ENDBRANCH   2  11
BRANCH   2  18
ATOM     18  S   UNL     1      -0.593   4.732  -1.606  0.00  0.00    +0.000 S 
BRANCH  18  19
ATOM     19  O   UNL     1      -0.010   5.272  -0.131  0.00  0.00    +0.000 OA
ATOM     20  H   UNL     1       0.031   6.241  -0.134  0.00  0.00    +0.000 HD
ENDBRANCH  18  19
ENDBRANCH   2  18
TORSDOF 5
