REMARK  Name = *****
REMARK  3 active torsions:
REMARK  status: ('A' for Active; 'I' for Inactive)
REMARK    1  A    between atoms: C_1  and  C_2
REMARK    2  A    between atoms: C_5  and  C_8
REMARK    3  A    between atoms: N_9  and  C_10
REMARK                            x       y       z     vdW  Elec       q    Type
REMARK                         _______ _______ _______ _____ _____    ______ ____
ROOT
ATOM      1  C   UNL     1      -3.315   0.247  -0.167  0.00  0.00    +0.000 C 
ATOM      2  N   UNL     1      -3.969   1.253   0.322  0.00  0.00    +0.000 NA
ENDROOT
BRANCH   1   7
ATOM      3  C   UNL     1       2.447  -0.119   0.008  0.00  0.00    +0.000 C 
ATOM      4  C   UNL     1       0.953  -0.006  -0.061  0.00  0.00    +0.000 A 
ATOM      5  C   UNL     1       0.302   1.109   0.484  0.00  0.00    +0.000 A 
ATOM      6  C   UNL     1      -1.091   1.202   0.450  0.00  0.00    +0.000 A 
ATOM      7  C   UNL     1      -1.842   0.172  -0.120  0.00  0.00    +0.000 A 
ATOM      8  C   UNL     1      -1.206  -0.951  -0.653  0.00  0.00    +0.000 A 
ATOM      9  C   UNL     1       0.188  -1.040  -0.618  0.00  0.00    +0.000 A 
ENDBRANCH   1   7
BRANCH   2  10
ATOM     10  C   UNL     1      -5.364   1.188   0.207  0.00  0.00    +0.000 A 
ATOM     11  C   UNL     1      -6.127   0.545   1.185  0.00  0.00    +0.000 A 
ATOM     12  C   UNL     1      -7.518   0.490   1.074  0.00  0.00    +0.000 A 
ATOM     13  C   UNL     1      -8.153   1.090  -0.013  0.00  0.00    +0.000 A 
ATOM     14  C   UNL     1      -7.400   1.748  -0.985  0.00  0.00    +0.000 A 
ATOM     15  C   UNL     1      -6.009   1.799  -0.871  0.00  0.00    +0.000 A 
ENDBRANCH   2  10
TORSDOF 2
