REMARK  Name = *****
REMARK  3 active torsions:
REMARK  status: ('A' for Active; 'I' for Inactive)
REMARK    1  A    between atoms: C_3  and  C_4
REMARK    2  A    between atoms: C_4  and  C_10
REMARK    3  A    between atoms: C_11  and  C_12
REMARK                            x       y       z     vdW  Elec       q    Type
REMARK                         _______ _______ _______ _____ _____    ______ ____
ROOT
ATOM      1  C   UNL     1      -1.605  -0.914  -0.827  0.00  0.00    +0.000 C 
ATOM      2  C   UNL     1      -1.684  -1.212  -2.326  0.00  0.00    +0.000 C 
ATOM      3  C   UNL     1      -2.452  -0.041  -1.742  0.00  0.00    +0.000 C 
ATOM      4  C   UNL     1      -1.896   1.140  -2.424  0.00  0.00    +0.000 C 
ATOM      5  C   UNL     1      -0.983   0.839  -3.360  0.00  0.00    +0.000 C 
ATOM      6  C   UNL     1      -0.789  -0.653  -3.408  0.00  0.00    +0.000 C 
ENDROOT
BRANCH   1   9
ATOM      7  C   UNL     1       0.981  -0.035  -0.546  0.00  0.00    +0.000 C 
ATOM      8  C   UNL     1       0.749  -1.161   0.410  0.00  0.00    +0.000 C 
ATOM      9  C   UNL     1      -0.416  -0.306  -0.047  0.00  0.00    +0.000 C 
ENDBRANCH   1   9
BRANCH   1  10
ATOM     10  C   UNL     1      -2.376  -1.834  -0.006  0.00  0.00    +0.000 C 
ATOM     11  C   UNL     1      -3.054  -2.595   0.630  0.00  0.00    +0.000 C 
BRANCH  11  12
ATOM     12  C   UNL     1      -3.901  -3.501   1.341  0.00  0.00    +0.000 A 
ATOM     13  C   UNL     1      -3.626  -4.870   1.332  0.00  0.00    +0.000 A 
ATOM     14  C   UNL     1      -4.473  -5.758   1.999  0.00  0.00    +0.000 A 
ATOM     15  C   UNL     1      -5.594  -5.278   2.675  0.00  0.00    +0.000 A 
ATOM     16  C   UNL     1      -5.869  -3.910   2.689  0.00  0.00    +0.000 A 
ATOM     17  C   UNL     1      -5.022  -3.022   2.022  0.00  0.00    +0.000 A 
ENDBRANCH  11  12
ENDBRANCH   1  10
TORSDOF 3
