REMARK  Name = *****
REMARK  3 active torsions:
REMARK  status: ('A' for Active; 'I' for Inactive)
REMARK    1  A    between atoms: C_3  and  C_4
REMARK    2  A    between atoms: C_9  and  N_10
REMARK    3  A    between atoms: C_11  and  C_12
REMARK                            x       y       z     vdW  Elec       q    Type
REMARK                         _______ _______ _______ _____ _____    ______ ____
ROOT
ATOM      1  C   UNL     1      -1.603  -1.122  -1.279  0.00  0.00    +0.000 A 
ATOM      2  C   UNL     1      -0.827  -1.394  -2.423  0.00  0.00    +0.000 A 
ATOM      3  C   UNL     1      -1.393  -1.457  -3.698  0.00  0.00    +0.000 A 
ATOM      4  C   UNL     1      -2.758  -1.250  -3.861  0.00  0.00    +0.000 A 
ATOM      5  C   UNL     1      -3.553  -0.994  -2.746  0.00  0.00    +0.000 A 
ATOM      6  C   UNL     1      -2.995  -0.946  -1.461  0.00  0.00    +0.000 A 
ENDROOT
BRANCH   1   9
ATOM      7  C   UNL     1      -1.035   0.199   0.916  0.00  0.00    +0.000 C 
ATOM      8  C   UNL     1       0.275  -0.208   0.317  0.00  0.00    +0.000 C 
ATOM      9  C   UNL     1      -0.951  -1.064   0.089  0.00  0.00    +0.000 C 
ENDBRANCH   1   9
BRANCH   6  10
ATOM     10  N   UNL     1      -3.852  -0.687  -0.375  0.00  0.00    +0.000 NA
ATOM     11  C   UNL     1      -4.250  -1.727   0.287  0.00  0.00    +0.000 C 
BRANCH  11  12
ATOM     12  C   UNL     1      -5.136  -1.613   1.461  0.00  0.00    +0.000 A 
ATOM     13  C   UNL     1      -5.553  -0.363   1.925  0.00  0.00    +0.000 A 
ATOM     14  C   UNL     1      -6.389  -0.280   3.039  0.00  0.00    +0.000 A 
ATOM     15  C   UNL     1      -6.806  -1.444   3.686  0.00  0.00    +0.000 A 
ATOM     16  C   UNL     1      -6.389  -2.692   3.222  0.00  0.00    +0.000 A 
ATOM     17  C   UNL     1      -5.552  -2.780   2.109  0.00  0.00    +0.000 A 
ENDBRANCH  11  12
ENDBRANCH   6  10
TORSDOF 3
