REMARK  Name = *****
REMARK  4 active torsions:
REMARK  status: ('A' for Active; 'I' for Inactive)
REMARK    1  A    between atoms: C_1  and  C_2
REMARK    2  A    between atoms: C_5  and  N_8
REMARK    3  A    between atoms: C_9  and  O_18
REMARK    4  A    between atoms: O_18  and  O_19
REMARK                            x       y       z     vdW  Elec       q    Type
REMARK                         _______ _______ _______ _____ _____    ______ ____
ROOT
ATOM      1  N   UNL     1      -3.234   0.290   0.156  0.00  0.00    +0.000 N 
ATOM      2  C   UNL     1      -4.131  -0.504   1.000  0.00  0.00    +0.000 C 
ATOM      3  C   UNL     1      -5.506  -0.297   0.447  0.00  0.00    +0.000 C 
ATOM      4  C   UNL     1      -5.580   0.520  -0.608  0.00  0.00    +0.000 C 
ATOM      5  S   UNL     1      -3.984   1.102  -1.116  0.00  0.00    +0.000 S 
ATOM      6  O   UNL     1      -3.990   2.574  -0.839  0.00  0.00    +0.000 OA
ATOM      7  C   UNL     1      -6.851   0.883  -1.304  0.00  0.00    +0.000 C 
ATOM      8  C   UNL     1      -8.006  -0.046  -0.911  0.00  0.00    +0.000 C 
ATOM      9  C   UNL     1      -8.021  -0.320   0.593  0.00  0.00    +0.000 C 
ATOM     10  C   UNL     1      -6.704  -0.943   1.073  0.00  0.00    +0.000 C 
ENDROOT
BRANCH   1  15
ATOM     11  C   UNL     1       2.489  -0.458   0.344  0.00  0.00    +0.000 C 
ATOM     12  C   UNL     1       1.001  -0.293   0.269  0.00  0.00    +0.000 A 
ATOM     13  C   UNL     1       0.161  -0.995   1.131  0.00  0.00    +0.000 A 
ATOM     14  C   UNL     1      -1.228  -0.802   1.090  0.00  0.00    +0.000 A 
ATOM     15  C   UNL     1      -1.836   0.095   0.191  0.00  0.00    +0.000 A 
ATOM     16  C   UNL     1      -0.959   0.813  -0.644  0.00  0.00    +0.000 A 
ATOM     17  C   UNL     1       0.431   0.626  -0.609  0.00  0.00    +0.000 A 
ENDBRANCH   1  15
BRANCH   2  18
ATOM     18  O   UNL     1      -4.189  -0.091   2.385  0.00  0.00    +0.000 OA
BRANCH  18  19
ATOM     19  O   UNL     1      -3.323   1.072   2.613  0.00  0.00    +0.000 OA
ATOM     20  H   UNL     1      -3.374   1.336   3.545  0.00  0.00    +0.000 HD
ENDBRANCH  18  19
ENDBRANCH   2  18
TORSDOF 3
