REMARK  Name = *****
REMARK  4 active torsions:
REMARK  status: ('A' for Active; 'I' for Inactive)
REMARK    1  A    between atoms: C_1  and  C_2
REMARK    2  A    between atoms: C_3  and  C_17
REMARK    3  A    between atoms: C_5  and  C_8
REMARK    4  A    between atoms: C_9  and  C_10
REMARK                            x       y       z     vdW  Elec       q    Type
REMARK                         _______ _______ _______ _____ _____    ______ ____
ROOT
ATOM      1  C   UNL     1       6.711  -0.149  -0.707  0.00  0.00    +0.000 C 
ATOM      2  C   UNL     1       7.890  -0.162  -0.935  0.00  0.00    +0.000 C 
ENDROOT
BRANCH   1   7
ATOM      3  C   UNL     1       1.063  -0.122   0.347  0.00  0.00    +0.000 C 
ATOM      4  C   UNL     1       2.544  -0.089   0.089  0.00  0.00    +0.000 A 
ATOM      5  C   UNL     1       3.226   1.114  -0.186  0.00  0.00    +0.000 A 
ATOM      6  C   UNL     1       4.609   1.079  -0.435  0.00  0.00    +0.000 A 
ATOM      7  C   UNL     1       5.305  -0.131  -0.441  0.00  0.00    +0.000 A 
ATOM      8  C   UNL     1       4.626  -1.322  -0.194  0.00  0.00    +0.000 A 
ATOM      9  C   UNL     1       3.255  -1.300   0.066  0.00  0.00    +0.000 A 
ATOM     10  C   UNL     1       2.516   2.440  -0.189  0.00  0.00    +0.000 C 
ENDBRANCH   1   7
BRANCH   2  11
ATOM     11  C   UNL     1       9.293  -0.177  -1.211  0.00  0.00    +0.000 A 
ATOM     12  C   UNL     1       9.992   1.028  -1.343  0.00  0.00    +0.000 A 
ATOM     13  C   UNL     1      11.362   1.013  -1.616  0.00  0.00    +0.000 A 
ATOM     14  C   UNL     1      12.020  -0.205  -1.753  0.00  0.00    +0.000 A 
ATOM     15  C   UNL     1      11.335  -1.409  -1.622  0.00  0.00    +0.000 A 
ATOM     16  C   UNL     1       9.966  -1.395  -1.350  0.00  0.00    +0.000 A 
ATOM     17  F   UNL     1      13.333  -0.219  -2.014  0.00  0.00    +0.000 F 
ENDBRANCH   2  11
TORSDOF 2
