REMARK  Name = *****
REMARK  2 active torsions:
REMARK  status: ('A' for Active; 'I' for Inactive)
REMARK    1  A    between atoms: C_2  and  C_13
REMARK    2  A    between atoms: N_3  and  C_4
REMARK                            x       y       z     vdW  Elec       q    Type
REMARK                         _______ _______ _______ _____ _____    ______ ____
ROOT
ATOM      1  C   UNL     1      -0.253   1.082   0.004  0.00  0.00    +0.000 C 
ATOM      2  C   UNL     1       0.813   0.040   0.282  0.00  0.00    +0.000 C 
ATOM      3  N   UNL     1      -0.603  -0.177   0.637  0.00  0.00    +0.000 N 
ENDROOT
BRANCH   3   4
ATOM      4  C   UNL     1      -1.361  -1.176  -0.023  0.00  0.00    +0.000 A 
ATOM      5  C   UNL     1      -2.227  -0.902  -1.090  0.00  0.00    +0.000 A 
ATOM      6  C   UNL     1      -2.964  -1.930  -1.678  0.00  0.00    +0.000 A 
ATOM      7  C   UNL     1      -2.865  -3.234  -1.207  0.00  0.00    +0.000 A 
ATOM      8  C   UNL     1      -2.040  -3.531  -0.135  0.00  0.00    +0.000 A 
ATOM      9  C   UNL     1      -1.307  -2.503   0.453  0.00  0.00    +0.000 A 
ATOM     10  F   UNL     1      -0.519  -2.807   1.497  0.00  0.00    +0.000 F 
ATOM     11  F   UNL     1      -3.579  -4.212  -1.780  0.00  0.00    +0.000 F 
ATOM     12  F   UNL     1      -3.782  -1.645  -2.700  0.00  0.00    +0.000 F 
ENDBRANCH   3   4
BRANCH   2  13
ATOM     13  C   UNL     1       1.481  -0.751  -0.819  0.00  0.00    +0.000 A 
ATOM     14  C   UNL     1       2.000  -2.032  -0.553  0.00  0.00    +0.000 A 
ATOM     15  C   UNL     1       2.637  -2.789  -1.539  0.00  0.00    +0.000 A 
ATOM     16  C   UNL     1       2.779  -2.276  -2.823  0.00  0.00    +0.000 A 
ATOM     17  C   UNL     1       2.292  -1.005  -3.115  0.00  0.00    +0.000 A 
ATOM     18  C   UNL     1       1.658  -0.252  -2.122  0.00  0.00    +0.000 A 
ENDBRANCH   2  13
TORSDOF 2
