REMARK  Name = *****
REMARK  2 active torsions:
REMARK  status: ('A' for Active; 'I' for Inactive)
REMARK    1  A    between atoms: C_1  and  C_2
REMARK    2  A    between atoms: C_5  and  C_7
REMARK                            x       y       z     vdW  Elec       q    Type
REMARK                         _______ _______ _______ _____ _____    ______ ____
ROOT
ATOM      1  C   UNL     1      -2.983   0.726   0.001  0.00  0.00    +0.000 A 
ATOM      2  N   UNL     1      -3.412   1.567  -0.931  0.00  0.00    +0.000 NA
ATOM      3  C   UNL     1      -4.688   1.885  -0.543  0.00  0.00    +0.000 A 
ATOM      4  C   UNL     1      -4.998   1.220   0.630  0.00  0.00    +0.000 A 
ATOM      5  O   UNL     1      -3.915   0.477   0.987  0.00  0.00    +0.000 OA
ATOM      6  C   UNL     1      -6.211   1.315   1.300  0.00  0.00    +0.000 A 
ATOM      7  C   UNL     1      -7.163   2.155   0.708  0.00  0.00    +0.000 A 
ATOM      8  C   UNL     1      -6.882   2.843  -0.481  0.00  0.00    +0.000 A 
ATOM      9  C   UNL     1      -5.645   2.723  -1.127  0.00  0.00    +0.000 A 
ATOM     10 CL   UNL     1      -8.091   3.862  -1.167  0.00  0.00    +0.000 Cl
ENDROOT
BRANCH   1  15
ATOM     11  C   UNL     1       1.373  -2.100   1.048  0.00  0.00    +0.000 C 
ATOM     12  C   UNL     1       0.375  -1.176   0.440  0.00  0.00    +0.000 A 
ATOM     13  C   UNL     1       0.498  -0.404  -0.696  0.00  0.00    +0.000 A 
ATOM     14  C   UNL     1      -0.682   0.349  -0.963  0.00  0.00    +0.000 A 
ATOM     15  C   UNL     1      -1.673   0.133  -0.025  0.00  0.00    +0.000 A 
ATOM     16  S   UNL     1      -1.160  -0.979   1.171  0.00  0.00    +0.000 S 
ENDBRANCH   1  15
TORSDOF 1
