REMARK  Name = *****
REMARK  5 active torsions:
REMARK  status: ('A' for Active; 'I' for Inactive)
REMARK    1  A    between atoms: C_1  and  C_2
REMARK    2  A    between atoms: C_3  and  C_16
REMARK    3  A    between atoms: C_4  and  O_8
REMARK    4  A    between atoms: O_8  and  C_9
REMARK    5  A    between atoms: C_9  and  C_10
REMARK                            x       y       z     vdW  Elec       q    Type
REMARK                         _______ _______ _______ _____ _____    ______ ____
ROOT
ATOM      1  C   UNL     1       1.875   1.484  -0.092  0.00  0.00    +0.000 C 
ATOM      2  C   UNL     1       0.586   0.707  -0.052  0.00  0.00    +0.000 A 
ATOM      3  C   UNL     1       0.566  -0.707  -0.078  0.00  0.00    +0.000 A 
ATOM      4  C   UNL     1      -0.674  -1.385  -0.071  0.00  0.00    +0.000 A 
ATOM      5  C   UNL     1      -1.865  -0.657   0.006  0.00  0.00    +0.000 A 
ATOM      6  C   UNL     1      -1.838   0.735   0.065  0.00  0.00    +0.000 A 
ATOM      7  C   UNL     1      -0.623   1.412   0.035  0.00  0.00    +0.000 A 
ATOM      8  C   UNL     1       1.849  -1.494  -0.184  0.00  0.00    +0.000 C 
ENDROOT
BRANCH   4   9
ATOM      9  O   UNL     1      -0.606  -2.752  -0.151  0.00  0.00    +0.000 OA
BRANCH   9  10
ATOM     10  C   UNL     1      -1.827  -3.487  -0.085  0.00  0.00    +0.000 C 
BRANCH  10  11
ATOM     11  C   UNL     1      -1.522  -4.968  -0.108  0.00  0.00    +0.000 A 
ATOM     12  C   UNL     1      -0.527  -5.507   0.721  0.00  0.00    +0.000 A 
ATOM     13  C   UNL     1      -0.271  -6.879   0.725  0.00  0.00    +0.000 A 
ATOM     14  C   UNL     1      -1.011  -7.729  -0.094  0.00  0.00    +0.000 A 
ATOM     15  C   UNL     1      -2.010  -7.208  -0.914  0.00  0.00    +0.000 A 
ATOM     16  C   UNL     1      -2.268  -5.835  -0.919  0.00  0.00    +0.000 A 
ENDBRANCH  10  11
ENDBRANCH   9  10
ENDBRANCH   4   9
TORSDOF 3
