REMARK  Name = *****
REMARK  4 active torsions:
REMARK  status: ('A' for Active; 'I' for Inactive)
REMARK    1  A    between atoms: C_5  and  O_7
REMARK    2  A    between atoms: O_7  and  C_8
REMARK    3  A    between atoms: C_8  and  C_10
REMARK    4  A    between atoms: C_10  and  C_11
REMARK                            x       y       z     vdW  Elec       q    Type
REMARK                         _______ _______ _______ _____ _____    ______ ____
ROOT
ATOM      1  C   UNL     1       1.894  -3.286   0.144  0.00  0.00    +0.000 C 
ATOM      2  O   UNL     1       2.008  -2.108  -0.171  0.00  0.00    +0.000 OA
ENDROOT
BRANCH   1   3
ATOM      3  O   UNL     1       0.749  -4.069   0.010  0.00  0.00    +0.000 OA
BRANCH   3   8
ATOM      4  C   UNL     1      -2.384  -2.193  -0.398  0.00  0.00    +0.000 A 
ATOM      5  C   UNL     1      -2.441  -2.076  -1.792  0.00  0.00    +0.000 A 
ATOM      6  C   UNL     1      -1.429  -2.621  -2.585  0.00  0.00    +0.000 A 
ATOM      7  C   UNL     1      -0.363  -3.276  -1.979  0.00  0.00    +0.000 A 
ATOM      8  C   UNL     1      -0.300  -3.376  -0.592  0.00  0.00    +0.000 A 
ATOM      9  C   UNL     1      -1.313  -2.852   0.208  0.00  0.00    +0.000 A 
ATOM     10  F   UNL     1       0.600  -3.817  -2.740  0.00  0.00    +0.000 F 
ENDBRANCH   3   8
ENDBRANCH   1   3
BRANCH   1  11
ATOM     11  C   UNL     1       2.999  -4.157   0.703  0.00  0.00    +0.000 C 
BRANCH  11  12
ATOM     12  C   UNL     1       4.085  -3.370   1.392  0.00  0.00    +0.000 A 
ATOM     13  C   UNL     1       3.856  -2.839   2.668  0.00  0.00    +0.000 A 
ATOM     14  C   UNL     1       4.824  -2.094   3.328  0.00  0.00    +0.000 A 
ATOM     15  C   UNL     1       6.040  -1.871   2.698  0.00  0.00    +0.000 A 
ATOM     16  C   UNL     1       6.295  -2.378   1.427  0.00  0.00    +0.000 A 
ATOM     17  C   UNL     1       5.317  -3.127   0.769  0.00  0.00    +0.000 A 
ATOM     18  F   UNL     1       6.984  -1.155   3.322  0.00  0.00    +0.000 F 
ATOM     19  F   UNL     1       2.679  -3.058   3.272  0.00  0.00    +0.000 F 
ENDBRANCH  11  12
ENDBRANCH   1  11
TORSDOF 4
