REMARK  Name = *****
REMARK  2 active torsions:
REMARK  status: ('A' for Active; 'I' for Inactive)
REMARK    1  A    between atoms: C_6  and  C_7
REMARK    2  A    between atoms: C_8  and  C_9
REMARK                            x       y       z     vdW  Elec       q    Type
REMARK                         _______ _______ _______ _____ _____    ______ ____
ROOT
ATOM      1  C   UNL     1      -0.724   1.233  -0.094  0.00  0.00    +0.000 A 
ATOM      2  C   UNL     1      -1.355  -0.010   0.007  0.00  0.00    +0.000 A 
ATOM      3  C   UNL     1      -0.589  -1.173   0.062  0.00  0.00    +0.000 A 
ATOM      4  C   UNL     1       0.803  -1.104   0.018  0.00  0.00    +0.000 A 
ATOM      5  C   UNL     1       1.434   0.139  -0.083  0.00  0.00    +0.000 A 
ATOM      6  C   UNL     1       0.671   1.308  -0.139  0.00  0.00    +0.000 A 
ATOM      7 CL   UNL     1      -1.365  -2.703   0.185  0.00  0.00    +0.000 Cl
ENDROOT
BRANCH   6   8
ATOM      8  C   UNL     1       1.316   2.580  -0.245  0.00  0.00    +0.000 C 
ATOM      9  C   UNL     1       1.857   3.648  -0.335  0.00  0.00    +0.000 C 
BRANCH   9  10
ATOM     10  C   UNL     1       2.502   4.919  -0.445  0.00  0.00    +0.000 A 
ATOM     11  C   UNL     1       1.839   6.114  -0.281  0.00  0.00    +0.000 A 
ATOM     12  S   UNL     1       2.880   7.460  -0.475  0.00  0.00    +0.000 S 
ATOM     13  C   UNL     1       4.224   6.444  -0.780  0.00  0.00    +0.000 A 
ATOM     14  C   UNL     1       3.884   5.109  -0.734  0.00  0.00    +0.000 A 
ENDBRANCH   9  10
ENDBRANCH   6   8
TORSDOF 2
