REMARK  Name = *****
REMARK  3 active torsions:
REMARK  status: ('A' for Active; 'I' for Inactive)
REMARK    1  A    between atoms: C_4  and  C_8
REMARK    2  A    between atoms: C_8  and  N_9
REMARK    3  A    between atoms: C_10  and  C_11
REMARK                            x       y       z     vdW  Elec       q    Type
REMARK                         _______ _______ _______ _____ _____    ______ ____
ROOT
ATOM      1  N   UNL     1      -1.421   2.983   0.213  0.00  0.00    +0.000 NA
ATOM      2  C   UNL     1      -1.734   3.848  -0.688  0.00  0.00    +0.000 C 
ENDROOT
BRANCH   2   3
ATOM      3  C   UNL     1      -3.006   4.602  -0.660  0.00  0.00    +0.000 A 
ATOM      4  C   UNL     1      -3.787   4.640   0.501  0.00  0.00    +0.000 A 
ATOM      5  C   UNL     1      -4.989   5.348   0.539  0.00  0.00    +0.000 A 
ATOM      6  C   UNL     1      -5.432   6.032  -0.588  0.00  0.00    +0.000 A 
ATOM      7  C   UNL     1      -4.665   6.006  -1.752  0.00  0.00    +0.000 A 
ATOM      8  C   UNL     1      -3.456   5.296  -1.792  0.00  0.00    +0.000 A 
ATOM      9 CL   UNL     1      -2.593   5.317  -3.291  0.00  0.00    +0.000 Cl
ATOM     10  F   UNL     1      -3.405   4.024   1.628  0.00  0.00    +0.000 F 
ENDBRANCH   2   3
BRANCH   1  11
ATOM     11  C   UNL     1      -0.133   2.308   0.024  0.00  0.00    +0.000 C 
BRANCH  11  15
ATOM     12  C   UNL     1      -0.618  -1.993   0.084  0.00  0.00    +0.000 A 
ATOM     13  C   UNL     1      -0.157  -1.311   1.206  0.00  0.00    +0.000 A 
ATOM     14  C   UNL     1      -0.003   0.074   1.159  0.00  0.00    +0.000 A 
ATOM     15  C   UNL     1      -0.295   0.812   0.006  0.00  0.00    +0.000 A 
ATOM     16  C   UNL     1      -0.761   0.111  -1.116  0.00  0.00    +0.000 A 
ATOM     17  C   UNL     1      -0.919  -1.281  -1.076  0.00  0.00    +0.000 A 
ATOM     18 CL   UNL     1      -1.149   0.910  -2.600  0.00  0.00    +0.000 Cl
ATOM     19  F   UNL     1       0.454   0.695   2.257  0.00  0.00    +0.000 F 
ENDBRANCH  11  15
ENDBRANCH   1  11
TORSDOF 3
