REMARK  Name = *****
REMARK  5 active torsions:
REMARK  status: ('A' for Active; 'I' for Inactive)
REMARK    1  A    between atoms: C_1  and  C_2
REMARK    2  A    between atoms: C_5  and  S_8
REMARK    3  A    between atoms: S_8  and  S_10
REMARK    4  A    between atoms: S_10  and  C_12
REMARK    5  A    between atoms: C_15  and  C_18
REMARK                            x       y       z     vdW  Elec       q    Type
REMARK                         _______ _______ _______ _____ _____    ______ ____
ROOT
ATOM      1  S   UNL     1      -3.573   0.310  -0.829  0.00  0.00    +0.000 S 
ATOM      2  O   UNL     1      -4.274  -0.475   0.245  0.00  0.00    +0.000 OA
ENDROOT
BRANCH   1   7
ATOM      3  C   UNL     1       2.360   0.410   0.684  0.00  0.00    +0.000 C 
ATOM      4  C   UNL     1       0.908   0.363   0.312  0.00  0.00    +0.000 A 
ATOM      5  C   UNL     1      -0.016  -0.314   1.116  0.00  0.00    +0.000 A 
ATOM      6  C   UNL     1      -1.372  -0.331   0.777  0.00  0.00    +0.000 A 
ATOM      7  C   UNL     1      -1.825   0.342  -0.363  0.00  0.00    +0.000 A 
ATOM      8  C   UNL     1      -0.903   1.023  -1.166  0.00  0.00    +0.000 A 
ATOM      9  C   UNL     1       0.453   1.039  -0.826  0.00  0.00    +0.000 A 
ENDBRANCH   1   7
BRANCH   1  10
ATOM     10  S   UNL     1      -4.126   2.178  -0.347  0.00  0.00    +0.000 S 
ATOM     11  O   UNL     1      -3.539   2.942  -1.502  0.00  0.00    +0.000 OA
BRANCH  10  12
ATOM     12  C   UNL     1      -5.911   2.119  -0.636  0.00  0.00    +0.000 A 
ATOM     13  C   UNL     1      -6.751   1.473   0.277  0.00  0.00    +0.000 A 
ATOM     14  C   UNL     1      -8.133   1.441   0.069  0.00  0.00    +0.000 A 
ATOM     15  C   UNL     1      -8.695   2.054  -1.057  0.00  0.00    +0.000 A 
ATOM     16  C   UNL     1      -7.857   2.724  -1.955  0.00  0.00    +0.000 A 
ATOM     17  C   UNL     1      -6.476   2.754  -1.748  0.00  0.00    +0.000 A 
ATOM     18  C   UNL     1     -10.181   2.049  -1.264  0.00  0.00    +0.000 C 
ENDBRANCH  10  12
ENDBRANCH   1  10
TORSDOF 3
