REMARK  Name = *****
REMARK  2 active torsions:
REMARK  status: ('A' for Active; 'I' for Inactive)
REMARK    1  A    between atoms: C_4  and  N_7
REMARK    2  A    between atoms: C_8  and  C_9
REMARK                            x       y       z     vdW  Elec       q    Type
REMARK                         _______ _______ _______ _____ _____    ______ ____
ROOT
ATOM      1  C   UNL     1      -5.040  -0.201  -0.488  0.00  0.00    +0.000 A 
ATOM      2  C   UNL     1      -5.502   0.801  -1.349  0.00  0.00    +0.000 A 
ATOM      3  C   UNL     1      -6.869   0.909  -1.593  0.00  0.00    +0.000 A 
ATOM      4  C   UNL     1      -7.769   0.036  -0.993  0.00  0.00    +0.000 A 
ATOM      5  C   UNL     1      -7.304  -0.956  -0.139  0.00  0.00    +0.000 A 
ATOM      6  C   UNL     1      -5.942  -1.076   0.115  0.00  0.00    +0.000 A 
ATOM      7  F   UNL     1      -5.507  -2.039   0.941  0.00  0.00    +0.000 F 
ATOM      8  F   UNL     1      -8.169  -1.800   0.442  0.00  0.00    +0.000 F 
ATOM      9  F   UNL     1      -9.082   0.151  -1.237  0.00  0.00    +0.000 F 
ATOM     10  F   UNL     1      -7.312   1.867  -2.417  0.00  0.00    +0.000 F 
ENDROOT
BRANCH   1  12
ATOM     11  N   UNL     1      -2.729   0.432  -0.751  0.00  0.00    +0.000 NA
ATOM     12  C   UNL     1      -3.604  -0.349  -0.203  0.00  0.00    +0.000 C 
BRANCH  11  16
ATOM     13  C   UNL     1       1.285  -0.258   0.284  0.00  0.00    +0.000 A 
ATOM     14  C   UNL     1       0.700  -0.982  -0.753  0.00  0.00    +0.000 A 
ATOM     15  C   UNL     1      -0.634  -0.753  -1.097  0.00  0.00    +0.000 A 
ATOM     16  C   UNL     1      -1.392   0.192  -0.401  0.00  0.00    +0.000 A 
ATOM     17  C   UNL     1      -0.794   0.925   0.627  0.00  0.00    +0.000 A 
ATOM     18  C   UNL     1       0.540   0.699   0.973  0.00  0.00    +0.000 A 
ENDBRANCH  11  16
ENDBRANCH   1  12
TORSDOF 2
