REMARK  Name = *****
REMARK  5 active torsions:
REMARK  status: ('A' for Active; 'I' for Inactive)
REMARK    1  A    between atoms: C_1  and  C_2
REMARK    2  A    between atoms: C_2  and  C_3
REMARK    3  A    between atoms: C_2  and  O_8
REMARK    4  A    between atoms: O_8  and  C_9
REMARK    5  A    between atoms: C_9  and  C_11
REMARK                            x       y       z     vdW  Elec       q    Type
REMARK                         _______ _______ _______ _____ _____    ______ ____
ROOT
ATOM      1  C   UNL     1       2.729   0.198  -2.239  0.00  0.00    +0.000 C 
ATOM      2  O   UNL     1       2.871   1.411  -2.203  0.00  0.00    +0.000 OA
ENDROOT
BRANCH   1   3
ATOM      3  C   UNL     1       2.785  -0.580  -3.495  0.00  0.00    +0.000 A 
ATOM      4  C   UNL     1       3.473  -0.026  -4.585  0.00  0.00    +0.000 A 
ATOM      5  C   UNL     1       3.553  -0.722  -5.794  0.00  0.00    +0.000 A 
ATOM      6  C   UNL     1       2.941  -1.969  -5.924  0.00  0.00    +0.000 A 
ATOM      7  C   UNL     1       2.245  -2.517  -4.847  0.00  0.00    +0.000 A 
ATOM      8  C   UNL     1       2.166  -1.822  -3.640  0.00  0.00    +0.000 A 
ATOM      9  F   UNL     1       1.457  -2.375  -2.646  0.00  0.00    +0.000 F 
ENDBRANCH   1   3
BRANCH   1  10
ATOM     10  O   UNL     1       2.577  -0.622  -1.175  0.00  0.00    +0.000 OA
BRANCH  10  12
ATOM     11  C   UNL     1       1.100   0.452   0.404  0.00  0.00    +0.000 C 
ATOM     12  C   UNL     1       2.532   0.002   0.123  0.00  0.00    +0.000 C 
BRANCH  12  13
ATOM     13  C   UNL     1       3.028  -0.998   1.180  0.00  0.00    +0.000 C 
ATOM     14  C   UNL     1       4.468  -1.460   0.945  0.00  0.00    +0.000 C 
ATOM     15  C   UNL     1       4.613  -2.668   1.863  0.00  0.00    +0.000 C 
ATOM     16  C   UNL     1       3.216  -3.278   1.970  0.00  0.00    +0.000 C 
ATOM     17  C   UNL     1       2.276  -2.330   1.228  0.00  0.00    +0.000 C 
ENDBRANCH  12  13
ENDBRANCH  10  12
ENDBRANCH   1  10
TORSDOF 4
