REMARK  Name = *****
REMARK  4 active torsions:
REMARK  status: ('A' for Active; 'I' for Inactive)
REMARK    1  A    between atoms: C_1  and  C_2
REMARK    2  A    between atoms: C_5  and  S_8
REMARK    3  A    between atoms: S_8  and  C_10
REMARK    4  A    between atoms: C_10  and  C_11
REMARK                            x       y       z     vdW  Elec       q    Type
REMARK                         _______ _______ _______ _____ _____    ______ ____
ROOT
ATOM      1  S   UNL     1      -3.475  -0.007  -0.381  0.00  0.00    +0.000 S 
ATOM      2  O   UNL     1      -4.113  -0.967   0.583  0.00  0.00    +0.000 OA
ENDROOT
BRANCH   1   7
ATOM      3  C   UNL     1       2.409   0.384   1.248  0.00  0.00    +0.000 C 
ATOM      4  C   UNL     1       0.960   0.312   0.865  0.00  0.00    +0.000 A 
ATOM      5  C   UNL     1       0.028  -0.276   1.728  0.00  0.00    +0.000 A 
ATOM      6  C   UNL     1      -1.315  -0.377   1.358  0.00  0.00    +0.000 A 
ATOM      7  C   UNL     1      -1.741   0.104   0.117  0.00  0.00    +0.000 A 
ATOM      8  C   UNL     1      -0.809   0.670  -0.758  0.00  0.00    +0.000 A 
ATOM      9  C   UNL     1       0.534   0.771  -0.387  0.00  0.00    +0.000 A 
ENDBRANCH   1   7
BRANCH   1  10
ATOM     10  C   UNL     1      -3.950   1.682   0.131  0.00  0.00    +0.000 C 
BRANCH  10  11
ATOM     11  C   UNL     1      -5.346   2.036  -0.318  0.00  0.00    +0.000 A 
ATOM     12  C   UNL     1      -6.463   1.471   0.318  0.00  0.00    +0.000 A 
ATOM     13  C   UNL     1      -7.757   1.792  -0.100  0.00  0.00    +0.000 A 
ATOM     14  C   UNL     1      -7.942   2.681  -1.155  0.00  0.00    +0.000 A 
ATOM     15  C   UNL     1      -6.844   3.250  -1.798  0.00  0.00    +0.000 A 
ATOM     16  C   UNL     1      -5.550   2.927  -1.383  0.00  0.00    +0.000 A 
ATOM     17 CL   UNL     1      -9.534   3.080  -1.670  0.00  0.00    +0.000 Cl
ENDBRANCH  10  11
ENDBRANCH   1  10
TORSDOF 3
