REMARK  Name = *****
REMARK  6 active torsions:
REMARK  status: ('A' for Active; 'I' for Inactive)
REMARK    1  A    between atoms: C_1  and  C_2
REMARK    2  A    between atoms: C_5  and  C_8
REMARK    3  A    between atoms: C_8  and  N_9
REMARK    4  A    between atoms: N_9  and  C_10
REMARK    5  A    between atoms: C_10  and  C_11
REMARK    6  A    between atoms: C_14  and  C_17
REMARK                            x       y       z     vdW  Elec       q    Type
REMARK                         _______ _______ _______ _____ _____    ______ ____
ROOT
ATOM      1  N   UNL     1      -4.038   1.315  -0.475  0.00  0.00    +0.000 NA
ENDROOT
BRANCH   1   2
ATOM      2  C   UNL     1      -3.429  -0.014  -0.310  0.00  0.00    +0.000 C 
BRANCH   2   7
ATOM      3  C   UNL     1       2.352   0.083   0.446  0.00  0.00    +0.000 C 
ATOM      4  C   UNL     1       0.861   0.077   0.278  0.00  0.00    +0.000 A 
ATOM      5  C   UNL     1       0.054  -0.744   1.072  0.00  0.00    +0.000 A 
ATOM      6  C   UNL     1      -1.332  -0.766   0.889  0.00  0.00    +0.000 A 
ATOM      7  C   UNL     1      -1.935   0.031  -0.092  0.00  0.00    +0.000 A 
ATOM      8  C   UNL     1      -1.120   0.836  -0.899  0.00  0.00    +0.000 A 
ATOM      9  C   UNL     1       0.264   0.859  -0.717  0.00  0.00    +0.000 A 
ENDBRANCH   2   7
ENDBRANCH   1   2
BRANCH   1  10
ATOM     10  C   UNL     1      -4.249   1.933   0.637  0.00  0.00    +0.000 C 
BRANCH  10  11
ATOM     11  C   UNL     1      -4.850   3.280   0.681  0.00  0.00    +0.000 A 
ATOM     12  C   UNL     1      -5.183   3.955  -0.496  0.00  0.00    +0.000 A 
ATOM     13  C   UNL     1      -5.751   5.229  -0.430  0.00  0.00    +0.000 A 
ATOM     14  C   UNL     1      -5.982   5.840   0.809  0.00  0.00    +0.000 A 
ATOM     15  C   UNL     1      -5.659   5.148   1.984  0.00  0.00    +0.000 A 
ATOM     16  C   UNL     1      -5.088   3.874   1.922  0.00  0.00    +0.000 A 
ATOM     17  C   UNL     1      -6.626   7.194   0.875  0.00  0.00    +0.000 C 
ENDBRANCH  10  11
ENDBRANCH   1  10
TORSDOF 4
