REMARK  Name = *****
REMARK  4 active torsions:
REMARK  status: ('A' for Active; 'I' for Inactive)
REMARK    1  A    between atoms: C_1  and  C_2
REMARK    2  A    between atoms: C_4  and  N_8
REMARK    3  A    between atoms: C_9  and  C_10
REMARK    4  A    between atoms: C_9  and  C_11
REMARK                            x       y       z     vdW  Elec       q    Type
REMARK                         _______ _______ _______ _____ _____    ______ ____
ROOT
ATOM      1  N   UNL     1      -1.543   2.568  -0.227  0.00  0.00    +0.000 NA
ATOM      2  C   UNL     1      -1.126   3.663   0.342  0.00  0.00    +0.000 C 
ATOM      3  C   UNL     1       0.092   3.738   1.246  0.00  0.00    +0.000 C 
ENDROOT
BRANCH   1   7
ATOM      4  C   UNL     1       2.099  -0.504  -1.556  0.00  0.00    +0.000 C 
ATOM      5  C   UNL     1       0.941  -0.160  -0.668  0.00  0.00    +0.000 A 
ATOM      6  C   UNL     1       0.249   1.047  -0.843  0.00  0.00    +0.000 A 
ATOM      7  C   UNL     1      -0.849   1.367  -0.039  0.00  0.00    +0.000 A 
ATOM      8  C   UNL     1      -1.287   0.449   0.917  0.00  0.00    +0.000 A 
ATOM      9  C   UNL     1      -0.617  -0.762   1.091  0.00  0.00    +0.000 A 
ATOM     10  C   UNL     1       0.492  -1.066   0.300  0.00  0.00    +0.000 A 
ENDBRANCH   1   7
BRANCH   2  11
ATOM     11  C   UNL     1      -1.884   4.927   0.082  0.00  0.00    +0.000 A 
ATOM     12  C   UNL     1      -3.245   4.849  -0.242  0.00  0.00    +0.000 A 
ATOM     13  C   UNL     1      -3.977   6.010  -0.494  0.00  0.00    +0.000 A 
ATOM     14  C   UNL     1      -3.353   7.255  -0.431  0.00  0.00    +0.000 A 
ATOM     15  C   UNL     1      -1.996   7.340  -0.123  0.00  0.00    +0.000 A 
ATOM     16  C   UNL     1      -1.259   6.179   0.130  0.00  0.00    +0.000 A 
ENDBRANCH   2  11
TORSDOF 2
