REMARK  Name = *****
REMARK  3 active torsions:
REMARK  status: ('A' for Active; 'I' for Inactive)
REMARK    1  A    between atoms: C_1  and  C_2
REMARK    2  A    between atoms: C_5  and  C_8
REMARK    3  A    between atoms: C_12  and  C_13
REMARK                            x       y       z     vdW  Elec       q    Type
REMARK                         _______ _______ _______ _____ _____    ______ ____
ROOT
ATOM      1  C   UNL     1      -3.571   0.014   0.306  0.00  0.00    +0.000 C 
ATOM      2  O   UNL     1      -4.041  -1.072   0.635  0.00  0.00    +0.000 OA
ATOM      3  N   UNL     1      -4.268   0.991  -0.397  0.00  0.00    +0.000 N 
ATOM      4  C   UNL     1      -5.231   0.630  -1.391  0.00  0.00    +0.000 C 
ATOM      5  C   UNL     1      -5.656   1.237  -0.096  0.00  0.00    +0.000 C 
ENDROOT
BRANCH   1  10
ATOM      6  C   UNL     1       1.874   1.338   1.834  0.00  0.00    +0.000 C 
ATOM      7  C   UNL     1       0.478   0.992   1.404  0.00  0.00    +0.000 A 
ATOM      8  C   UNL     1      -0.105  -0.217   1.799  0.00  0.00    +0.000 A 
ATOM      9  C   UNL     1      -1.417  -0.524   1.429  0.00  0.00    +0.000 A 
ATOM     10  C   UNL     1      -2.169   0.380   0.668  0.00  0.00    +0.000 A 
ATOM     11  C   UNL     1      -1.591   1.596   0.282  0.00  0.00    +0.000 A 
ATOM     12  C   UNL     1      -0.278   1.901   0.654  0.00  0.00    +0.000 A 
ENDBRANCH   1  10
BRANCH   5  13
ATOM     13  C   UNL     1      -6.097   2.675  -0.027  0.00  0.00    +0.000 A 
ATOM     14  C   UNL     1      -7.246   3.114  -0.709  0.00  0.00    +0.000 A 
ATOM     15  C   UNL     1      -7.672   4.444  -0.640  0.00  0.00    +0.000 A 
ATOM     16  C   UNL     1      -6.953   5.361   0.120  0.00  0.00    +0.000 A 
ATOM     17  C   UNL     1      -5.817   4.957   0.814  0.00  0.00    +0.000 A 
ATOM     18  C   UNL     1      -5.399   3.624   0.741  0.00  0.00    +0.000 A 
ATOM     19 CL   UNL     1      -7.473   6.998   0.206  0.00  0.00    +0.000 Cl
ENDBRANCH   5  13
TORSDOF 2
