REMARK  Name = *****
REMARK  3 active torsions:
REMARK  status: ('A' for Active; 'I' for Inactive)
REMARK    1  A    between atoms: C_4  and  C_8
REMARK    2  A    between atoms: C_8  and  C_9
REMARK    3  A    between atoms: C_9  and  C_10
REMARK                            x       y       z     vdW  Elec       q    Type
REMARK                         _______ _______ _______ _____ _____    ______ ____
ROOT
ATOM      1  C   UNL     1       1.666  -2.439   0.397  0.00  0.00    +0.000 C 
ENDROOT
BRANCH   1   5
ATOM      2  C   UNL     1       3.494  -1.703  -2.131  0.00  0.00    +0.000 C 
ATOM      3  C   UNL     1       3.323  -0.204  -1.878  0.00  0.00    +0.000 C 
ATOM      4  C   UNL     1       2.326  -0.217  -0.699  0.00  0.00    +0.000 C 
ATOM      5  C   UNL     1       2.804  -1.438   0.156  0.00  0.00    +0.000 C 
ATOM      6  C   UNL     1       3.975  -1.991  -0.704  0.00  0.00    +0.000 C 
ATOM      7  C   UNL     1       5.094  -0.973  -0.634  0.00  0.00    +0.000 C 
ATOM      8  C   UNL     1       4.697   0.102  -1.331  0.00  0.00    +0.000 C 
ENDBRANCH   1   5
BRANCH   1   9
ATOM      9  C   UNL     1       2.082  -3.585   1.326  0.00  0.00    +0.000 C 
BRANCH   9  10
ATOM     10  C   UNL     1       0.934  -4.526   1.592  0.00  0.00    +0.000 A 
ATOM     11  C   UNL     1       0.717  -5.635   0.764  0.00  0.00    +0.000 A 
ATOM     12  C   UNL     1      -0.356  -6.496   1.000  0.00  0.00    +0.000 A 
ATOM     13  C   UNL     1      -1.225  -6.253   2.063  0.00  0.00    +0.000 A 
ATOM     14  C   UNL     1      -1.023  -5.148   2.888  0.00  0.00    +0.000 A 
ATOM     15  C   UNL     1       0.050  -4.287   2.653  0.00  0.00    +0.000 A 
ENDBRANCH   9  10
ENDBRANCH   1   9
TORSDOF 3
