REMARK  Name = *****
REMARK  4 active torsions:
REMARK  status: ('A' for Active; 'I' for Inactive)
REMARK    1  A    between atoms: C_1  and  C_2
REMARK    2  A    between atoms: C_5  and  N_8
REMARK    3  A    between atoms: N_8  and  C_9
REMARK    4  A    between atoms: N_11  and  C_12
REMARK                            x       y       z     vdW  Elec       q    Type
REMARK                         _______ _______ _______ _____ _____    ______ ____
ROOT
ATOM      1  N   UNL     1      -3.367  -0.058  -0.187  0.00  0.00    +0.000 N 
ATOM      2  C   UNL     1      -3.979  -1.328  -0.570  0.00  0.00    +0.000 C 
ATOM      3  C   UNL     1      -4.148   1.081  -0.161  0.00  0.00    +0.000 C 
ATOM      4  N   UNL     1      -5.435   1.135  -0.310  0.00  0.00    +0.000 NA
ENDROOT
BRANCH   1   9
ATOM      5  C   UNL     1       2.366   0.120   0.357  0.00  0.00    +0.000 C 
ATOM      6  C   UNL     1       0.874   0.050   0.237  0.00  0.00    +0.000 A 
ATOM      7  C   UNL     1       0.271  -0.869  -0.624  0.00  0.00    +0.000 A 
ATOM      8  C   UNL     1      -1.122  -0.910  -0.759  0.00  0.00    +0.000 A 
ATOM      9  C   UNL     1      -1.960  -0.030  -0.054  0.00  0.00    +0.000 A 
ATOM     10  C   UNL     1      -1.332   0.896   0.797  0.00  0.00    +0.000 A 
ATOM     11  C   UNL     1       0.061   0.941   0.938  0.00  0.00    +0.000 A 
ENDBRANCH   1   9
BRANCH   4  12
ATOM     12  C   UNL     1      -6.000   2.417  -0.261  0.00  0.00    +0.000 A 
ATOM     13  C   UNL     1      -6.038   3.223  -1.402  0.00  0.00    +0.000 A 
ATOM     14  C   UNL     1      -6.614   4.494  -1.351  0.00  0.00    +0.000 A 
ATOM     15  C   UNL     1      -7.166   4.961  -0.158  0.00  0.00    +0.000 A 
ATOM     16  C   UNL     1      -7.147   4.155   0.980  0.00  0.00    +0.000 A 
ATOM     17  C   UNL     1      -6.569   2.885   0.925  0.00  0.00    +0.000 A 
ENDBRANCH   4  12
TORSDOF 2
