REMARK  Name = *****
REMARK  4 active torsions:
REMARK  status: ('A' for Active; 'I' for Inactive)
REMARK    1  A    between atoms: C_1  and  C_2
REMARK    2  A    between atoms: C_7  and  S_8
REMARK    3  A    between atoms: S_8  and  C_9
REMARK    4  A    between atoms: C_10  and  C_11
REMARK                            x       y       z     vdW  Elec       q    Type
REMARK                         _______ _______ _______ _____ _____    ______ ____
ROOT
ATOM      1  S   UNL     1       0.635  -2.603  -0.401  0.00  0.00    +0.000 S 
ENDROOT
BRANCH   1   8
ATOM      2  C   UNL     1       0.584  -0.314  -2.608  0.00  0.00    +0.000 C 
ATOM      3  C   UNL     1       0.316   0.079  -1.181  0.00  0.00    +0.000 A 
ATOM      4  C   UNL     1       0.060   1.429  -0.883  0.00  0.00    +0.000 A 
ATOM      5  C   UNL     1      -0.200   1.837   0.425  0.00  0.00    +0.000 A 
ATOM      6  C   UNL     1      -0.212   0.903   1.456  0.00  0.00    +0.000 A 
ATOM      7  C   UNL     1       0.043  -0.440   1.179  0.00  0.00    +0.000 A 
ATOM      8  C   UNL     1       0.316  -0.861  -0.131  0.00  0.00    +0.000 A 
ENDBRANCH   1   8
BRANCH   1   9
ATOM      9  C   UNL     1       2.364  -2.580  -0.275  0.00  0.00    +0.000 C 
ATOM     10  C   UNL     1       3.180  -3.485  -0.836  0.00  0.00    +0.000 C 
BRANCH  10  11
ATOM     11  C   UNL     1       2.770  -4.620  -1.666  0.00  0.00    +0.000 A 
ATOM     12  C   UNL     1       2.590  -4.455  -3.044  0.00  0.00    +0.000 A 
ATOM     13  C   UNL     1       2.200  -5.537  -3.836  0.00  0.00    +0.000 A 
ATOM     14  C   UNL     1       1.987  -6.786  -3.254  0.00  0.00    +0.000 A 
ATOM     15  C   UNL     1       2.162  -6.955  -1.881  0.00  0.00    +0.000 A 
ATOM     16  C   UNL     1       2.553  -5.875  -1.087  0.00  0.00    +0.000 A 
ENDBRANCH  10  11
ENDBRANCH   1   9
TORSDOF 3
