REMARK  Name = *****
REMARK  3 active torsions:
REMARK  status: ('A' for Active; 'I' for Inactive)
REMARK    1  A    between atoms: C_4  and  C_7
REMARK    2  A    between atoms: C_7  and  S_9
REMARK    3  A    between atoms: S_9  and  C_10
REMARK                            x       y       z     vdW  Elec       q    Type
REMARK                         _______ _______ _______ _____ _____    ______ ____
ROOT
ATOM      1  C   UNL     1      -2.770  -0.239   0.197  0.00  0.00    +0.000 C 
ATOM      2  O   UNL     1      -3.418   0.799   0.256  0.00  0.00    +0.000 OA
ENDROOT
BRANCH   1   6
ATOM      3  C   UNL     1       1.491   0.059  -0.349  0.00  0.00    +0.000 A 
ATOM      4  C   UNL     1       0.917  -1.202  -0.198  0.00  0.00    +0.000 A 
ATOM      5  C   UNL     1      -0.465  -1.331  -0.022  0.00  0.00    +0.000 A 
ATOM      6  C   UNL     1      -1.287  -0.194   0.004  0.00  0.00    +0.000 A 
ATOM      7  C   UNL     1      -0.693   1.070  -0.149  0.00  0.00    +0.000 A 
ATOM      8  C   UNL     1       0.687   1.195  -0.325  0.00  0.00    +0.000 A 
ENDBRANCH   1   6
BRANCH   1   9
ATOM      9  S   UNL     1      -3.551  -1.816   0.316  0.00  0.00    +0.000 S 
BRANCH   9  10
ATOM     10  C   UNL     1      -5.029  -1.417   1.226  0.00  0.00    +0.000 A 
ATOM     11  C   UNL     1      -6.278  -1.525   0.601  0.00  0.00    +0.000 A 
ATOM     12  C   UNL     1      -7.446  -1.240   1.312  0.00  0.00    +0.000 A 
ATOM     13  C   UNL     1      -7.361  -0.855   2.645  0.00  0.00    +0.000 A 
ATOM     14  C   UNL     1      -6.130  -0.752   3.282  0.00  0.00    +0.000 A 
ATOM     15  C   UNL     1      -4.961  -1.037   2.573  0.00  0.00    +0.000 A 
ATOM     16  F   UNL     1      -8.481  -0.584   3.327  0.00  0.00    +0.000 F 
ENDBRANCH   9  10
ENDBRANCH   1   9
TORSDOF 3
