REMARK  Name = *****
REMARK  3 active torsions:
REMARK  status: ('A' for Active; 'I' for Inactive)
REMARK    1  A    between atoms: C_1  and  C_2
REMARK    2  A    between atoms: C_4  and  N_8
REMARK    3  A    between atoms: C_9  and  C_10
REMARK                            x       y       z     vdW  Elec       q    Type
REMARK                         _______ _______ _______ _____ _____    ______ ____
ROOT
ATOM      1  N   UNL     1      -1.660   2.559  -0.190  0.00  0.00    +0.000 NA
ATOM      2  C   UNL     1      -1.547   3.421   0.770  0.00  0.00    +0.000 C 
ENDROOT
BRANCH   1   6
ATOM      3  C   UNL     1       2.471  -0.127  -0.644  0.00  0.00    +0.000 C 
ATOM      4  C   UNL     1       1.044   0.009  -0.202  0.00  0.00    +0.000 A 
ATOM      5  C   UNL     1       0.358   1.218  -0.384  0.00  0.00    +0.000 A 
ATOM      6  C   UNL     1      -0.981   1.347  -0.003  0.00  0.00    +0.000 A 
ATOM      7  C   UNL     1      -1.649   0.245   0.532  0.00  0.00    +0.000 A 
ATOM      8  C   UNL     1      -0.983  -0.969   0.704  0.00  0.00    +0.000 A 
ATOM      9  C   UNL     1       0.359  -1.086   0.337  0.00  0.00    +0.000 A 
ENDBRANCH   1   6
BRANCH   2  10
ATOM     10  C   UNL     1      -2.206   4.741   0.713  0.00  0.00    +0.000 A 
ATOM     11  C   UNL     1      -2.988   5.104  -0.388  0.00  0.00    +0.000 A 
ATOM     12  C   UNL     1      -3.603   6.358  -0.421  0.00  0.00    +0.000 A 
ATOM     13  C   UNL     1      -3.430   7.241   0.644  0.00  0.00    +0.000 A 
ATOM     14  C   UNL     1      -2.650   6.882   1.744  0.00  0.00    +0.000 A 
ATOM     15  C   UNL     1      -2.034   5.628   1.781  0.00  0.00    +0.000 A 
ATOM     16 CL   UNL     1      -4.186   8.786   0.604  0.00  0.00    +0.000 Cl
ENDBRANCH   2  10
TORSDOF 2
