REMARK  Name = *****
REMARK  5 active torsions:
REMARK  status: ('A' for Active; 'I' for Inactive)
REMARK    1  A    between atoms: C_1  and  C_2
REMARK    2  A    between atoms: C_6  and  N_8
REMARK    3  A    between atoms: N_8  and  N_9
REMARK    4  A    between atoms: N_9  and  C_11
REMARK    5  A    between atoms: C_15  and  C_17
REMARK                            x       y       z     vdW  Elec       q    Type
REMARK                         _______ _______ _______ _____ _____    ______ ____
ROOT
ATOM      1  N   UNL     1      -1.153  -2.885   0.449  0.00  0.00    +0.000 NA
ATOM      2  O   UNL     1      -2.484  -3.139   0.808  0.00  0.00    +0.000 OA
ENDROOT
BRANCH   1   8
ATOM      3  C   UNL     1       2.372   0.526   1.460  0.00  0.00    +0.000 C 
ATOM      4  C   UNL     1       0.895   0.299   1.141  0.00  0.00    +0.000 C 
ATOM      5  C   UNL     1       0.479   1.103  -0.097  0.00  0.00    +0.000 C 
ATOM      6  C   UNL     1      -0.984   0.865  -0.458  0.00  0.00    +0.000 C 
ATOM      7  C   UNL     1      -1.286  -0.620  -0.656  0.00  0.00    +0.000 C 
ATOM      8  C   UNL     1      -0.873  -1.447   0.579  0.00  0.00    +0.000 C 
ATOM      9  C   UNL     1       0.607  -1.199   0.943  0.00  0.00    +0.000 C 
ENDBRANCH   1   8
BRANCH   1  10
ATOM     10  N   UNL     1      -0.612  -3.680  -0.656  0.00  0.00    +0.000 NA
ATOM     11  O   UNL     1       0.324  -3.232  -1.307  0.00  0.00    +0.000 OA
BRANCH  10  12
ATOM     12  C   UNL     1      -1.117  -5.046  -0.978  0.00  0.00    +0.000 C 
ATOM     13  C   UNL     1       0.073  -6.005  -1.043  0.00  0.00    +0.000 C 
ATOM     14  C   UNL     1      -0.380  -7.393  -1.490  0.00  0.00    +0.000 C 
ATOM     15  C   UNL     1      -1.134  -7.336  -2.819  0.00  0.00    +0.000 C 
ATOM     16  C   UNL     1      -2.320  -6.360  -2.764  0.00  0.00    +0.000 C 
ATOM     17  C   UNL     1      -1.863  -4.966  -2.310  0.00  0.00    +0.000 C 
ATOM     18  C   UNL     1      -3.018  -6.284  -4.121  0.00  0.00    +0.000 C 
ENDBRANCH  10  12
ENDBRANCH   1  10
TORSDOF 3
