REMARK  Name = *****
REMARK  3 active torsions:
REMARK  status: ('A' for Active; 'I' for Inactive)
REMARK    1  A    between atoms: C_3  and  C_8
REMARK    2  A    between atoms: C_8  and  N_9
REMARK    3  A    between atoms: N_9  and  C_10
REMARK                            x       y       z     vdW  Elec       q    Type
REMARK                         _______ _______ _______ _____ _____    ______ ____
ROOT
ATOM      1  N   UNL     1       1.683   3.764  -0.243  0.00  0.00    +0.000 N 
ATOM      2  O   UNL     1       0.454   3.918  -0.540  0.00  0.00    +0.000 OA
ENDROOT
BRANCH   1   3
ATOM      3  C   UNL     1       2.542   4.939  -0.171  0.00  0.00    +0.000 A 
ATOM      4  C   UNL     1       3.781   4.964  -0.825  0.00  0.00    +0.000 A 
ATOM      5  C   UNL     1       4.575   6.110  -0.748  0.00  0.00    +0.000 A 
ATOM      6  C   UNL     1       4.126   7.222  -0.034  0.00  0.00    +0.000 A 
ATOM      7  C   UNL     1       2.884   7.204   0.601  0.00  0.00    +0.000 A 
ATOM      8  C   UNL     1       2.085   6.062   0.530  0.00  0.00    +0.000 A 
ATOM      9 CL   UNL     1       5.109   8.631   0.056  0.00  0.00    +0.000 Cl
ENDBRANCH   1   3
BRANCH   1  10
ATOM     10  C   UNL     1       2.217   2.603   0.063  0.00  0.00    +0.000 C 
BRANCH  10  13
ATOM     11  C   UNL     1       1.570  -1.000   0.827  0.00  0.00    +0.000 A 
ATOM     12  C   UNL     1       2.134   0.277   0.792  0.00  0.00    +0.000 A 
ATOM     13  C   UNL     1       1.526   1.302   0.053  0.00  0.00    +0.000 A 
ATOM     14  C   UNL     1       0.362   1.033  -0.670  0.00  0.00    +0.000 A 
ATOM     15  C   UNL     1      -0.196  -0.246  -0.630  0.00  0.00    +0.000 A 
ATOM     16  C   UNL     1       0.400  -1.261   0.116  0.00  0.00    +0.000 A 
ATOM     17 CL   UNL     1      -1.631  -0.581  -1.520  0.00  0.00    +0.000 Cl
ENDBRANCH  10  13
ENDBRANCH   1  10
TORSDOF 3
