REMARK  Name = *****
REMARK  2 active torsions:
REMARK  status: ('A' for Active; 'I' for Inactive)
REMARK    1  A    between atoms: C_1  and  C_2
REMARK    2  A    between atoms: C_9  and  C_11
REMARK                            x       y       z     vdW  Elec       q    Type
REMARK                         _______ _______ _______ _____ _____    ______ ____
ROOT
ATOM      1  C   UNL     1       0.890   0.292   0.083  0.00  0.00    +0.000 C 
ATOM      2  C   UNL     1       2.386   0.159  -0.036  0.00  0.00    +0.000 C 
ATOM      3  C   UNL     1       2.981  -1.107   0.097  0.00  0.00    +0.000 C 
ATOM      4  C   UNL     1       4.379  -1.216   0.014  0.00  0.00    +0.000 C 
ATOM      5  N   UNL     1       5.152  -0.152  -0.174  0.00  0.00    +0.000 N 
ATOM      6  C   UNL     1       4.552   1.214  -0.303  0.00  0.00    +0.000 C 
ATOM      7  C   UNL     1       3.169   1.303  -0.220  0.00  0.00    +0.000 C 
ATOM      8  C   UNL     1       6.508  -0.393  -0.236  0.00  0.00    +0.000 C 
ATOM      9  C   UNL     1       6.815  -1.730  -0.094  0.00  0.00    +0.000 C 
ATOM     10  S   UNL     1       5.364  -2.629   0.129  0.00  0.00    +0.000 S 
ENDROOT
BRANCH   9  11
ATOM     11  C   UNL     1       8.124  -2.386  -0.089  0.00  0.00    +0.000 A 
ATOM     12  C   UNL     1       9.185  -1.830   0.643  0.00  0.00    +0.000 A 
ATOM     13  C   UNL     1      10.445  -2.436   0.643  0.00  0.00    +0.000 A 
ATOM     14  C   UNL     1      10.660  -3.600  -0.090  0.00  0.00    +0.000 A 
ATOM     15  C   UNL     1       9.617  -4.161  -0.823  0.00  0.00    +0.000 A 
ATOM     16  C   UNL     1       8.357  -3.558  -0.824  0.00  0.00    +0.000 A 
ENDBRANCH   9  11
TORSDOF 1
