REMARK  Name = *****
REMARK  1 active torsions:
REMARK  status: ('A' for Active; 'I' for Inactive)
REMARK    1  A    between atoms: C_4  and  C_7
REMARK                            x       y       z     vdW  Elec       q    Type
REMARK                         _______ _______ _______ _____ _____    ______ ____
ROOT
ATOM      1  C   UNL     1      -3.227  -0.037  -0.611  0.00  0.00    +0.000 A 
ATOM      2  C   UNL     1      -4.199   0.677  -1.284  0.00  0.00    +0.000 A 
ATOM      3  C   UNL     1      -5.537   0.323  -0.905  0.00  0.00    +0.000 A 
ATOM      4  C   UNL     1      -6.786   0.805  -1.352  0.00  0.00    +0.000 A 
ATOM      5  C   UNL     1      -7.983   0.309  -0.837  0.00  0.00    +0.000 A 
ATOM      6  C   UNL     1      -7.959  -0.680   0.136  0.00  0.00    +0.000 A 
ATOM      7  C   UNL     1      -6.742  -1.182   0.604  0.00  0.00    +0.000 A 
ATOM      8  C   UNL     1      -5.539  -0.671   0.074  0.00  0.00    +0.000 A 
ATOM      9  S   UNL     1      -3.936  -1.133   0.497  0.00  0.00    +0.000 S 
ATOM     10  F   UNL     1      -6.836   1.762  -2.292  0.00  0.00    +0.000 F 
ENDROOT
BRANCH   1  14
ATOM     11  C   UNL     1       1.025   0.326  -0.978  0.00  0.00    +0.000 A 
ATOM     12  C   UNL     1       0.223   1.464  -0.923  0.00  0.00    +0.000 A 
ATOM     13  C   UNL     1      -1.163   1.338  -0.800  0.00  0.00    +0.000 A 
ATOM     14  C   UNL     1      -1.766   0.073  -0.727  0.00  0.00    +0.000 A 
ATOM     15  C   UNL     1      -0.945  -1.063  -0.790  0.00  0.00    +0.000 A 
ATOM     16  C   UNL     1       0.442  -0.937  -0.913  0.00  0.00    +0.000 A 
ENDBRANCH   1  14
TORSDOF 1
