REMARK  Name = *****
REMARK  4 active torsions:
REMARK  status: ('A' for Active; 'I' for Inactive)
REMARK    1  A    between atoms: C_4  and  N_7
REMARK    2  A    between atoms: N_7  and  C_8
REMARK    3  A    between atoms: C_8  and  C_9
REMARK    4  A    between atoms: C_14  and  C_15
REMARK                            x       y       z     vdW  Elec       q    Type
REMARK                         _______ _______ _______ _____ _____    ______ ____
ROOT
ATOM      1  C   UNL     1      -4.773   1.840  -0.372  0.00  0.00    +0.000 A 
ATOM      2  C   UNL     1      -5.743   0.975   0.149  0.00  0.00    +0.000 A 
ATOM      3  C   UNL     1      -7.098   1.289   0.041  0.00  0.00    +0.000 A 
ATOM      4  C   UNL     1      -7.493   2.472  -0.575  0.00  0.00    +0.000 A 
ATOM      5  C   UNL     1      -6.531   3.344  -1.085  0.00  0.00    +0.000 A 
ATOM      6  C   UNL     1      -5.158   3.043  -0.991  0.00  0.00    +0.000 A 
ENDROOT
BRANCH   6   7
ATOM      7  C   UNL     1      -4.148   4.009  -1.552  0.00  0.00    +0.000 C 
ATOM      8  F   UNL     1      -3.210   3.410  -2.340  0.00  0.00    +0.000 F 
ATOM      9  F   UNL     1      -4.699   4.989  -2.324  0.00  0.00    +0.000 F 
ATOM     10  F   UNL     1      -3.453   4.659  -0.577  0.00  0.00    +0.000 F 
ENDBRANCH   6   7
BRANCH   1  11
ATOM     11  C   UNL     1      -3.341   1.533  -0.205  0.00  0.00    +0.000 C 
BRANCH  11  12
ATOM     12  N   UNL     1      -2.814   0.337  -0.358  0.00  0.00    +0.000 N 
ATOM     13  O   UNL     1      -3.504  -0.693  -0.655  0.00  0.00    +0.000 OA
BRANCH  12  17
ATOM     14  C   UNL     1       1.361  -0.119   0.215  0.00  0.00    +0.000 A 
ATOM     15  C   UNL     1       0.465  -0.983   0.848  0.00  0.00    +0.000 A 
ATOM     16  C   UNL     1      -0.908  -0.828   0.656  0.00  0.00    +0.000 A 
ATOM     17  C   UNL     1      -1.378   0.203  -0.165  0.00  0.00    +0.000 A 
ATOM     18  C   UNL     1      -0.482   1.059  -0.817  0.00  0.00    +0.000 A 
ATOM     19  C   UNL     1       0.889   0.897  -0.618  0.00  0.00    +0.000 A 
ENDBRANCH  12  17
ENDBRANCH  11  12
ENDBRANCH   1  11
TORSDOF 4
