REMARK  Name = *****
REMARK  3 active torsions:
REMARK  status: ('A' for Active; 'I' for Inactive)
REMARK    1  A    between atoms: C_3  and  C_4
REMARK    2  A    between atoms: C_7  and  C_9
REMARK    3  A    between atoms: C_10  and  C_11
REMARK                            x       y       z     vdW  Elec       q    Type
REMARK                         _______ _______ _______ _____ _____    ______ ____
ROOT
ATOM      1  C   UNL     1      -1.970  -1.814  -4.645  0.00  0.00    +0.000 C 
ATOM      2  C   UNL     1      -0.789  -1.909  -5.276  0.00  0.00    +0.000 C 
ENDROOT
BRANCH   2   3
ATOM      3  C   UNL     1      -0.666  -2.312  -6.687  0.00  0.00    +0.000 A 
ATOM      4  C   UNL     1      -1.422  -1.646  -7.666  0.00  0.00    +0.000 A 
ATOM      5  C   UNL     1      -1.308  -1.988  -9.016  0.00  0.00    +0.000 A 
ATOM      6  C   UNL     1      -0.430  -2.995  -9.409  0.00  0.00    +0.000 A 
ATOM      7  C   UNL     1       0.338  -3.659  -8.453  0.00  0.00    +0.000 A 
ATOM      8  C   UNL     1       0.227  -3.318  -7.100  0.00  0.00    +0.000 A 
ATOM      9 CL   UNL     1       1.209  -4.192  -5.974  0.00  0.00    +0.000 Cl
ENDBRANCH   2   3
BRANCH   1  13
ATOM     10  C   UNL     1      -1.533  -0.824  -1.281  0.00  0.00    +0.000 A 
ATOM     11  N   UNL     1      -2.842  -0.927  -1.303  0.00  0.00    +0.000 NA
ATOM     12  N   UNL     1      -3.179  -1.317  -2.580  0.00  0.00    +0.000 NA
ATOM     13  C   UNL     1      -2.059  -1.434  -3.279  0.00  0.00    +0.000 A 
ATOM     14  O   UNL     1      -0.967  -1.124  -2.487  0.00  0.00    +0.000 OA
BRANCH  10  17
ATOM     15  C   UNL     1       0.506   0.412  -0.226  0.00  0.00    +0.000 C 
ATOM     16  C   UNL     1       0.619  -1.017   0.179  0.00  0.00    +0.000 C 
ATOM     17  C   UNL     1      -0.753  -0.413  -0.045  0.00  0.00    +0.000 C 
ENDBRANCH  10  17
ENDBRANCH   1  13
TORSDOF 3
