REMARK  Name = *****
REMARK  1 active torsions:
REMARK  status: ('A' for Active; 'I' for Inactive)
REMARK    1  A    between atoms: C_4  and  C_7
REMARK                            x       y       z     vdW  Elec       q    Type
REMARK                         _______ _______ _______ _____ _____    ______ ____
ROOT
ATOM      1  C   UNL     1      -3.067   0.133  -0.543  0.00  0.00    +0.000 A 
ATOM      2  N   UNL     1      -3.863   0.917  -1.251  0.00  0.00    +0.000 NA
ATOM      3  C   UNL     1      -5.123   0.466  -0.950  0.00  0.00    +0.000 A 
ATOM      4  C   UNL     1      -5.041  -0.589  -0.056  0.00  0.00    +0.000 A 
ATOM      5  O   UNL     1      -3.723  -0.810   0.211  0.00  0.00    +0.000 OA
ATOM      6  C   UNL     1      -6.132  -1.281   0.459  0.00  0.00    +0.000 A 
ATOM      7  C   UNL     1      -7.385  -0.844   0.013  0.00  0.00    +0.000 A 
ATOM      8  C   UNL     1      -7.497   0.217  -0.889  0.00  0.00    +0.000 A 
ATOM      9  C   UNL     1      -6.381   0.893  -1.389  0.00  0.00    +0.000 A 
ATOM     10  F   UNL     1      -8.718   0.600  -1.289  0.00  0.00    +0.000 F 
ENDROOT
BRANCH   1  14
ATOM     11  C   UNL     1       1.203   0.199  -0.347  0.00  0.00    +0.000 A 
ATOM     12  C   UNL     1       0.519   1.112  -1.147  0.00  0.00    +0.000 A 
ATOM     13  C   UNL     1      -0.877   1.081  -1.203  0.00  0.00    +0.000 A 
ATOM     14  C   UNL     1      -1.608   0.140  -0.461  0.00  0.00    +0.000 A 
ATOM     15  C   UNL     1      -0.903  -0.772   0.340  0.00  0.00    +0.000 A 
ATOM     16  C   UNL     1       0.494  -0.742   0.396  0.00  0.00    +0.000 A 
ENDBRANCH   1  14
TORSDOF 1
