REMARK  Name = *****
REMARK  7 active torsions:
REMARK  status: ('A' for Active; 'I' for Inactive)
REMARK    1  A    between atoms: C_1  and  C_2
REMARK    2  A    between atoms: C_4  and  C_19
REMARK    3  A    between atoms: C_5  and  C_9
REMARK    4  A    between atoms: C_6  and  C_8
REMARK    5  A    between atoms: C_9  and  C_11
REMARK    6  A    between atoms: C_11  and  C_12
REMARK    7  A    between atoms: C_11  and  C_13
REMARK                            x       y       z     vdW  Elec       q    Type
REMARK                         _______ _______ _______ _____ _____    ______ ____
ROOT
ATOM      1  C   UNL     1      -1.924  -2.078   0.930  0.00  0.00    +0.000 C 
ATOM      2  O   UNL     1      -1.742  -2.602   2.026  0.00  0.00    +0.000 OA
ENDROOT
BRANCH   1   7
ATOM      3  C   UNL     1       1.475   2.270  -0.808  0.00  0.00    +0.000 C 
ATOM      4  C   UNL     1       0.587   1.144  -0.363  0.00  0.00    +0.000 A 
ATOM      5  C   UNL     1       0.840  -0.165  -0.787  0.00  0.00    +0.000 A 
ATOM      6  C   UNL     1       0.041  -1.233  -0.353  0.00  0.00    +0.000 A 
ATOM      7  C   UNL     1      -1.039  -0.963   0.512  0.00  0.00    +0.000 A 
ATOM      8  C   UNL     1      -1.277   0.338   0.994  0.00  0.00    +0.000 A 
ATOM      9  C   UNL     1      -0.459   1.383   0.535  0.00  0.00    +0.000 A 
ATOM     10  C   UNL     1      -2.400   0.662   1.940  0.00  0.00    +0.000 C 
ATOM     11  C   UNL     1       0.353  -2.623  -0.835  0.00  0.00    +0.000 C 
ENDBRANCH   1   7
BRANCH   1  12
ATOM     12  C   UNL     1      -3.016  -2.498  -0.053  0.00  0.00    +0.000 C 
ATOM     13  C   UNL     1      -3.151  -4.022  -0.073  0.00  0.00    +0.000 C 
BRANCH  12  14
ATOM     14  C   UNL     1      -4.344  -1.827   0.251  0.00  0.00    +0.000 A 
ATOM     15  C   UNL     1      -4.951  -1.004  -0.710  0.00  0.00    +0.000 A 
ATOM     16  C   UNL     1      -6.169  -0.377  -0.440  0.00  0.00    +0.000 A 
ATOM     17  C   UNL     1      -6.795  -0.563   0.790  0.00  0.00    +0.000 A 
ATOM     18  C   UNL     1      -6.204  -1.377   1.754  0.00  0.00    +0.000 A 
ATOM     19  C   UNL     1      -4.987  -2.006   1.486  0.00  0.00    +0.000 A 
ENDBRANCH  12  14
ENDBRANCH   1  12
TORSDOF 3
