REMARK  Name = *****
REMARK  4 active torsions:
REMARK  status: ('A' for Active; 'I' for Inactive)
REMARK    1  A    between atoms: C_4  and  C_7
REMARK    2  A    between atoms: C_7  and  C_8
REMARK    3  A    between atoms: C_8  and  C_9
REMARK    4  A    between atoms: C_9  and  C_11
REMARK                            x       y       z     vdW  Elec       q    Type
REMARK                         _______ _______ _______ _____ _____    ______ ____
ROOT
ATOM      1  C   UNL     1      -5.140  -0.437  -0.057  0.00  0.00    +0.000 C 
ATOM      2  O   UNL     1      -5.580   0.690  -0.272  0.00  0.00    +0.000 OA
ENDROOT
BRANCH   1   3
ATOM      3  C   UNL     1      -6.098  -1.578   0.083  0.00  0.00    +0.000 A 
ATOM      4  C   UNL     1      -7.474  -1.306   0.009  0.00  0.00    +0.000 A 
ATOM      5  C   UNL     1      -8.407  -2.337   0.136  0.00  0.00    +0.000 A 
ATOM      6  C   UNL     1      -7.965  -3.638   0.336  0.00  0.00    +0.000 A 
ATOM      7  C   UNL     1      -6.608  -3.927   0.412  0.00  0.00    +0.000 A 
ATOM      8  C   UNL     1      -5.669  -2.898   0.285  0.00  0.00    +0.000 A 
ATOM      9  F   UNL     1      -8.858  -4.628   0.459  0.00  0.00    +0.000 F 
ENDBRANCH   1   3
BRANCH   1  10
ATOM     10  C   UNL     1      -3.654  -0.716   0.072  0.00  0.00    +0.000 C 
BRANCH  10  11
ATOM     11  C   UNL     1      -2.825   0.562  -0.049  0.00  0.00    +0.000 C 
BRANCH  11  15
ATOM     12  C   UNL     1       1.376  -0.314   0.373  0.00  0.00    +0.000 A 
ATOM     13  C   UNL     1       0.784  -0.324  -0.889  0.00  0.00    +0.000 A 
ATOM     14  C   UNL     1      -0.574  -0.034  -1.028  0.00  0.00    +0.000 A 
ATOM     15  C   UNL     1      -1.351   0.274   0.096  0.00  0.00    +0.000 A 
ATOM     16  C   UNL     1      -0.749   0.277   1.361  0.00  0.00    +0.000 A 
ATOM     17  C   UNL     1       0.610  -0.014   1.497  0.00  0.00    +0.000 A 
ENDBRANCH  11  15
ENDBRANCH  10  11
ENDBRANCH   1  10
TORSDOF 4
