REMARK  Name = *****
REMARK  5 active torsions:
REMARK  status: ('A' for Active; 'I' for Inactive)
REMARK    1  A    between atoms: C_1  and  O_2
REMARK    2  A    between atoms: O_2  and  C_3
REMARK    3  A    between atoms: C_6  and  C_9
REMARK    4  A    between atoms: C_9  and  C_10
REMARK    5  A    between atoms: C_10  and  C_12
REMARK                            x       y       z     vdW  Elec       q    Type
REMARK                         _______ _______ _______ _____ _____    ______ ____
ROOT
ATOM      1  C   UNL     1       5.473  -0.035  -4.862  0.00  0.00    +0.000 C 
ATOM      2  F   UNL     1       5.515  -1.263  -5.477  0.00  0.00    +0.000 F 
ATOM      3  F   UNL     1       4.855   0.775  -5.785  0.00  0.00    +0.000 F 
ENDROOT
BRANCH   1   7
ATOM      4  C   UNL     1       3.147  -0.220  -1.202  0.00  0.00    +0.000 A 
ATOM      5  C   UNL     1       3.198   0.960  -1.943  0.00  0.00    +0.000 A 
ATOM      6  C   UNL     1       3.947   1.018  -3.125  0.00  0.00    +0.000 A 
ATOM      7  C   UNL     1       4.653  -0.104  -3.583  0.00  0.00    +0.000 A 
ATOM      8  C   UNL     1       4.598  -1.287  -2.832  0.00  0.00    +0.000 A 
ATOM      9  C   UNL     1       3.848  -1.340  -1.654  0.00  0.00    +0.000 A 
BRANCH   4  11
ATOM     10  C   UNL     1       1.760   0.714   0.488  0.00  0.00    +0.000 C 
ATOM     11  O   UNL     1       2.456  -0.410  -0.037  0.00  0.00    +0.000 OA
ENDBRANCH   4  11
ENDBRANCH   1   7
BRANCH   1  12
ATOM     12  C   UNL     1       6.908   0.469  -4.612  0.00  0.00    +0.000 C 
ATOM     13  O   UNL     1       7.338   0.801  -3.505  0.00  0.00    +0.000 OA
BRANCH  12  14
ATOM     14  C   UNL     1       7.840   0.574  -5.782  0.00  0.00    +0.000 A 
ATOM     15  C   UNL     1       7.462   0.250  -7.093  0.00  0.00    +0.000 A 
ATOM     16  C   UNL     1       8.379   0.372  -8.143  0.00  0.00    +0.000 A 
ATOM     17  C   UNL     1       9.670   0.817  -7.885  0.00  0.00    +0.000 A 
ATOM     18  C   UNL     1      10.065   1.144  -6.595  0.00  0.00    +0.000 A 
ATOM     19  C   UNL     1       9.153   1.023  -5.544  0.00  0.00    +0.000 A 
ATOM     20  F   UNL     1      10.542   0.933  -8.894  0.00  0.00    +0.000 F 
ENDBRANCH  12  14
ENDBRANCH   1  12
TORSDOF 4
