REMARK  Name = *****
REMARK  4 active torsions:
REMARK  status: ('A' for Active; 'I' for Inactive)
REMARK    1  A    between atoms: C_3  and  C_11
REMARK    2  A    between atoms: C_5  and  C_7
REMARK    3  A    between atoms: C_11  and  N_12
REMARK    4  A    between atoms: N_12  and  C_13
REMARK                            x       y       z     vdW  Elec       q    Type
REMARK                         _______ _______ _______ _____ _____    ______ ____
ROOT
ATOM      1  C   UNL     1       1.081   0.072  -1.338  0.00  0.00    +0.000 A 
ATOM      2  C   UNL     1       0.329  -1.088  -1.149  0.00  0.00    +0.000 A 
ATOM      3  C   UNL     1      -0.788  -1.057  -0.313  0.00  0.00    +0.000 A 
ATOM      4  C   UNL     1      -1.187   0.140   0.288  0.00  0.00    +0.000 A 
ATOM      5  C   UNL     1      -0.443   1.314   0.091  0.00  0.00    +0.000 A 
ATOM      6  C   UNL     1       0.704   1.263  -0.716  0.00  0.00    +0.000 A 
ENDROOT
BRANCH   5   7
ATOM      7  C   UNL     1      -0.849   2.602   0.766  0.00  0.00    +0.000 C 
ATOM      8  F   UNL     1      -2.191   2.691   0.981  0.00  0.00    +0.000 F 
ATOM      9  F   UNL     1      -0.263   2.749   1.986  0.00  0.00    +0.000 F 
ATOM     10  F   UNL     1      -0.512   3.710   0.051  0.00  0.00    +0.000 F 
ENDBRANCH   5   7
BRANCH   3  11
ATOM     11  C   UNL     1      -1.643  -2.226  -0.097  0.00  0.00    +0.000 C 
BRANCH  11  12
ATOM     12  N   UNL     1      -1.267  -3.455   0.174  0.00  0.00    +0.000 N 
ATOM     13  O   UNL     1      -2.152  -4.368   0.276  0.00  0.00    +0.000 OA
BRANCH  12  14
ATOM     14  C   UNL     1       0.123  -3.810   0.384  0.00  0.00    +0.000 A 
ATOM     15  C   UNL     1       0.844  -3.253   1.448  0.00  0.00    +0.000 A 
ATOM     16  C   UNL     1       2.173  -3.630   1.641  0.00  0.00    +0.000 A 
ATOM     17  C   UNL     1       2.755  -4.565   0.787  0.00  0.00    +0.000 A 
ATOM     18  C   UNL     1       2.032  -5.140  -0.254  0.00  0.00    +0.000 A 
ATOM     19  C   UNL     1       0.703  -4.769  -0.456  0.00  0.00    +0.000 A 
ATOM     20  F   UNL     1       4.031  -4.923   0.977  0.00  0.00    +0.000 F 
ENDBRANCH  12  14
ENDBRANCH  11  12
ENDBRANCH   3  11
TORSDOF 4
