REMARK  Name = *****
REMARK  5 active torsions:
REMARK  status: ('A' for Active; 'I' for Inactive)
REMARK    1  A    between atoms: C_1  and  C_2
REMARK    2  A    between atoms: C_5  and  N_8
REMARK    3  A    between atoms: N_8  and  C_9
REMARK    4  A    between atoms: N_8  and  O_17
REMARK    5  A    between atoms: C_9  and  C_11
REMARK                            x       y       z     vdW  Elec       q    Type
REMARK                         _______ _______ _______ _____ _____    ______ ____
ROOT
ATOM      1  N   UNL     1      -3.154  -0.262   0.228  0.00  0.00    +0.000 N 
ENDROOT
BRANCH   1   6
ATOM      2  C   UNL     1       2.530   0.364  -0.481  0.00  0.00    +0.000 C 
ATOM      3  C   UNL     1       1.051   0.182  -0.318  0.00  0.00    +0.000 A 
ATOM      4  C   UNL     1       0.147   0.996  -1.002  0.00  0.00    +0.000 A 
ATOM      5  C   UNL     1      -1.231   0.833  -0.821  0.00  0.00    +0.000 A 
ATOM      6  C   UNL     1      -1.746  -0.150   0.040  0.00  0.00    +0.000 A 
ATOM      7  C   UNL     1      -0.829  -0.934   0.748  0.00  0.00    +0.000 A 
ATOM      8  C   UNL     1       0.552  -0.774   0.570  0.00  0.00    +0.000 A 
ENDBRANCH   1   6
BRANCH   1   9
ATOM      9  C   UNL     1      -3.942  -1.364   0.583  0.00  0.00    +0.000 C 
ATOM     10  S   UNL     1      -3.472  -2.984   0.672  0.00  0.00    +0.000 S 
BRANCH   9  11
ATOM     11  C   UNL     1      -5.363  -1.036   0.896  0.00  0.00    +0.000 A 
ATOM     12  C   UNL     1      -6.371  -1.299  -0.038  0.00  0.00    +0.000 A 
ATOM     13  C   UNL     1      -7.692  -0.973   0.269  0.00  0.00    +0.000 A 
ATOM     14  C   UNL     1      -8.001  -0.389   1.499  0.00  0.00    +0.000 A 
ATOM     15  C   UNL     1      -6.993  -0.128   2.429  0.00  0.00    +0.000 A 
ATOM     16  C   UNL     1      -5.669  -0.450   2.131  0.00  0.00    +0.000 A 
ENDBRANCH   9  11
ENDBRANCH   1   9
BRANCH   1  17
ATOM     17  O   UNL     1      -3.894   0.833  -0.295  0.00  0.00    +0.000 OA
ATOM     18  H   UNL     1      -3.287   1.556  -0.518  0.00  0.00    +0.000 HD
ENDBRANCH   1  17
TORSDOF 4
