REMARK  Name = *****
REMARK  4 active torsions:
REMARK  status: ('A' for Active; 'I' for Inactive)
REMARK    1  A    between atoms: C_1  and  C_2
REMARK    2  A    between atoms: C_5  and  C_8
REMARK    3  A    between atoms: N_9  and  C_10
REMARK    4  A    between atoms: C_14  and  C_16
REMARK                            x       y       z     vdW  Elec       q    Type
REMARK                         _______ _______ _______ _____ _____    ______ ____
ROOT
ATOM      1  C   UNL     1      -3.352   0.324  -0.163  0.00  0.00    +0.000 C 
ATOM      2  N   UNL     1      -3.995   1.243   0.486  0.00  0.00    +0.000 NA
ENDROOT
BRANCH   1   7
ATOM      3  C   UNL     1       2.405  -0.140  -0.034  0.00  0.00    +0.000 C 
ATOM      4  C   UNL     1       0.912   0.002  -0.089  0.00  0.00    +0.000 A 
ATOM      5  C   UNL     1       0.273   1.021   0.630  0.00  0.00    +0.000 A 
ATOM      6  C   UNL     1      -1.119   1.136   0.609  0.00  0.00    +0.000 A 
ATOM      7  C   UNL     1      -1.880   0.224  -0.125  0.00  0.00    +0.000 A 
ATOM      8  C   UNL     1      -1.255  -0.805  -0.834  0.00  0.00    +0.000 A 
ATOM      9  C   UNL     1       0.137  -0.917  -0.809  0.00  0.00    +0.000 A 
ENDBRANCH   1   7
BRANCH   2  10
ATOM     10  C   UNL     1      -5.391   1.215   0.357  0.00  0.00    +0.000 A 
ATOM     11  C   UNL     1      -6.165   0.424   1.207  0.00  0.00    +0.000 A 
ATOM     12  C   UNL     1      -7.555   0.413   1.089  0.00  0.00    +0.000 A 
ATOM     13  C   UNL     1      -8.180   1.200   0.121  0.00  0.00    +0.000 A 
ATOM     14  C   UNL     1      -7.419   2.002  -0.739  0.00  0.00    +0.000 A 
ATOM     15  C   UNL     1      -6.024   2.014  -0.600  0.00  0.00    +0.000 A 
ATOM     16  C   UNL     1      -8.088   2.889  -1.745  0.00  0.00    +0.000 C 
ENDBRANCH   2  10
TORSDOF 2
