REMARK  Name = *****
REMARK  3 active torsions:
REMARK  status: ('A' for Active; 'I' for Inactive)
REMARK    1  A    between atoms: C_4  and  C_7
REMARK    2  A    between atoms: C_7  and  S_8
REMARK    3  A    between atoms: S_8  and  C_9
REMARK                            x       y       z     vdW  Elec       q    Type
REMARK                         _______ _______ _______ _____ _____    ______ ____
ROOT
ATOM      1  C   UNL     1      -5.425  -0.779  -0.564  0.00  0.00    +0.000 A 
ATOM      2  C   UNL     1      -6.068  -1.424  -1.628  0.00  0.00    +0.000 A 
ATOM      3  C   UNL     1      -7.363  -1.067  -2.005  0.00  0.00    +0.000 A 
ATOM      4  C   UNL     1      -8.052  -0.067  -1.333  0.00  0.00    +0.000 A 
ATOM      5  C   UNL     1      -7.426   0.570  -0.271  0.00  0.00    +0.000 A 
ATOM      6  C   UNL     1      -6.131   0.220   0.115  0.00  0.00    +0.000 A 
ATOM      7  F   UNL     1      -5.581   0.856   1.160  0.00  0.00    +0.000 F 
ATOM      8  F   UNL     1      -8.082   1.533   0.390  0.00  0.00    +0.000 F 
ATOM      9  F   UNL     1      -7.958  -1.691  -3.031  0.00  0.00    +0.000 F 
ATOM     10  F   UNL     1      -5.444  -2.395  -2.313  0.00  0.00    +0.000 F 
ENDROOT
BRANCH   1  11
ATOM     11  S   UNL     1      -3.775  -1.289  -0.097  0.00  0.00    +0.000 S 
BRANCH  11  12
ATOM     12  C   UNL     1      -2.926   0.324  -0.001  0.00  0.00    +0.000 C 
BRANCH  12  16
ATOM     13  C   UNL     1       1.356  -0.195   0.103  0.00  0.00    +0.000 A 
ATOM     14  C   UNL     1       0.699  -0.065  -1.119  0.00  0.00    +0.000 A 
ATOM     15  C   UNL     1      -0.686   0.104  -1.154  0.00  0.00    +0.000 A 
ATOM     16  C   UNL     1      -1.428   0.151   0.036  0.00  0.00    +0.000 A 
ATOM     17  C   UNL     1      -0.756   0.010   1.259  0.00  0.00    +0.000 A 
ATOM     18  C   UNL     1       0.629  -0.160   1.291  0.00  0.00    +0.000 A 
ENDBRANCH  12  16
ENDBRANCH  11  12
ENDBRANCH   1  11
TORSDOF 3
