REMARK  Name = *****
REMARK  2 active torsions:
REMARK  status: ('A' for Active; 'I' for Inactive)
REMARK    1  A    between atoms: C_6  and  S_7
REMARK    2  A    between atoms: S_7  and  C_8
REMARK                            x       y       z     vdW  Elec       q    Type
REMARK                         _______ _______ _______ _____ _____    ______ ____
ROOT
ATOM      1  C   UNL     1       0.360   1.570  -0.088  0.00  0.00    +0.000 C 
ATOM      2  C   UNL     1       1.382   0.446   0.081  0.00  0.00    +0.000 C 
ATOM      3  C   UNL     1       0.860  -0.883  -0.467  0.00  0.00    +0.000 C 
ATOM      4  C   UNL     1      -0.490  -1.220   0.116  0.00  0.00    +0.000 C 
ATOM      5  C   UNL     1      -0.763  -2.392   0.623  0.00  0.00    +0.000 C 
ATOM      6  C   UNL     1      -1.026  -3.561   1.124  0.00  0.00    +0.000 C 
ATOM      7  C   UNL     1      -1.520  -0.125  -0.004  0.00  0.00    +0.000 C 
ATOM      8  C   UNL     1      -0.984   1.200   0.539  0.00  0.00    +0.000 C 
ENDROOT
BRANCH   6   9
ATOM      9  S   UNL     1      -1.918  -4.694   0.175  0.00  0.00    +0.000 S 
BRANCH   9  10
ATOM     10  C   UNL     1      -1.661  -6.152   1.168  0.00  0.00    +0.000 A 
ATOM     11  C   UNL     1      -2.658  -6.588   2.046  0.00  0.00    +0.000 A 
ATOM     12  C   UNL     1      -2.460  -7.733   2.822  0.00  0.00    +0.000 A 
ATOM     13  C   UNL     1      -1.268  -8.449   2.718  0.00  0.00    +0.000 A 
ATOM     14  C   UNL     1      -0.273  -8.023   1.839  0.00  0.00    +0.000 A 
ATOM     15  C   UNL     1      -0.470  -6.879   1.063  0.00  0.00    +0.000 A 
ENDBRANCH   9  10
ENDBRANCH   6   9
TORSDOF 2
