REMARK  Name = *****
REMARK  3 active torsions:
REMARK  status: ('A' for Active; 'I' for Inactive)
REMARK    1  A    between atoms: C_1  and  C_2
REMARK    2  A    between atoms: C_5  and  N_8
REMARK    3  A    between atoms: C_9  and  C_10
REMARK                            x       y       z     vdW  Elec       q    Type
REMARK                         _______ _______ _______ _____ _____    ______ ____
ROOT
ATOM      1  N   UNL     1      -3.209   0.162   0.156  0.00  0.00    +0.000 NA
ATOM      2  C   UNL     1      -3.909   0.995  -0.561  0.00  0.00    +0.000 C 
ATOM      3 CL   UNL     1      -3.141   2.109  -1.658  0.00  0.00    +0.000 Cl
ENDROOT
BRANCH   1   8
ATOM      4  C   UNL     1       2.494  -0.065  -0.084  0.00  0.00    +0.000 C 
ATOM      5  C   UNL     1       0.997   0.018  -0.045  0.00  0.00    +0.000 A 
ATOM      6  C   UNL     1       0.358   0.872   0.862  0.00  0.00    +0.000 A 
ATOM      7  C   UNL     1      -1.037   0.924   0.922  0.00  0.00    +0.000 A 
ATOM      8  C   UNL     1      -1.812   0.130   0.075  0.00  0.00    +0.000 A 
ATOM      9  C   UNL     1      -1.177  -0.748  -0.805  0.00  0.00    +0.000 A 
ATOM     10  C   UNL     1       0.218  -0.804  -0.868  0.00  0.00    +0.000 A 
ENDBRANCH   1   8
BRANCH   2  11
ATOM     11  C   UNL     1      -5.405   0.970  -0.420  0.00  0.00    +0.000 A 
ATOM     12  C   UNL     1      -6.224   1.871  -1.118  0.00  0.00    +0.000 A 
ATOM     13  C   UNL     1      -7.613   1.823  -0.965  0.00  0.00    +0.000 A 
ATOM     14  C   UNL     1      -8.183   0.879  -0.120  0.00  0.00    +0.000 A 
ATOM     15  C   UNL     1      -7.390  -0.022   0.580  0.00  0.00    +0.000 A 
ATOM     16  C   UNL     1      -6.002   0.023   0.431  0.00  0.00    +0.000 A 
ATOM     17  F   UNL     1      -9.514   0.837   0.022  0.00  0.00    +0.000 F 
ENDBRANCH   2  11
TORSDOF 2
