REMARK  Name = *****
REMARK  4 active torsions:
REMARK  status: ('A' for Active; 'I' for Inactive)
REMARK    1  A    between atoms: C_3  and  O_8
REMARK    2  A    between atoms: O_8  and  C_9
REMARK    3  A    between atoms: C_9  and  C_11
REMARK    4  A    between atoms: C_13  and  C_18
REMARK                            x       y       z     vdW  Elec       q    Type
REMARK                         _______ _______ _______ _____ _____    ______ ____
ROOT
ATOM      1  C   UNL     1      -2.063   4.919   0.456  0.00  0.00    +0.000 A 
ATOM      2  C   UNL     1      -3.276   5.267   1.075  0.00  0.00    +0.000 A 
ATOM      3  C   UNL     1      -3.912   6.488   0.779  0.00  0.00    +0.000 A 
ATOM      4  C   UNL     1      -3.323   7.347  -0.159  0.00  0.00    +0.000 A 
ATOM      5  C   UNL     1      -2.123   6.996  -0.766  0.00  0.00    +0.000 A 
ATOM      6  C   UNL     1      -1.488   5.797  -0.469  0.00  0.00    +0.000 A 
ATOM      7  F   UNL     1      -1.571   7.830  -1.656  0.00  0.00    +0.000 F 
ENDROOT
BRANCH   3   8
ATOM      8  C   UNL     1      -5.225   6.845   1.432  0.00  0.00    +0.000 C 
ATOM      9  F   UNL     1      -6.286   6.283   0.792  0.00  0.00    +0.000 F 
ATOM     10  F   UNL     1      -5.299   6.424   2.725  0.00  0.00    +0.000 F 
ATOM     11  F   UNL     1      -5.464   8.184   1.460  0.00  0.00    +0.000 F 
ENDBRANCH   3   8
BRANCH   1  12
ATOM     12  C   UNL     1      -1.348   3.643   0.740  0.00  0.00    +0.000 C 
ATOM     13  O   UNL     1      -0.270   3.361   0.241  0.00  0.00    +0.000 OA
BRANCH  12  14
ATOM     14  O   UNL     1      -2.089   2.880   1.622  0.00  0.00    +0.000 OA
BRANCH  14  17
ATOM     15  C   UNL     1      -0.557   0.213   3.631  0.00  0.00    +0.000 A 
ATOM     16  C   UNL     1      -1.086   1.450   3.259  0.00  0.00    +0.000 A 
ATOM     17  C   UNL     1      -1.513   1.647   1.945  0.00  0.00    +0.000 A 
ATOM     18  C   UNL     1      -1.456   0.621   1.005  0.00  0.00    +0.000 A 
ATOM     19  C   UNL     1      -0.926  -0.604   1.391  0.00  0.00    +0.000 A 
ATOM     20  C   UNL     1      -0.475  -0.817   2.692  0.00  0.00    +0.000 A 
ATOM     21  F   UNL     1      -0.855  -1.602   0.500  0.00  0.00    +0.000 F 
ENDBRANCH  14  17
ENDBRANCH  12  14
ENDBRANCH   1  12
TORSDOF 4
