REMARK  Name = *****
REMARK  6 active torsions:
REMARK  status: ('A' for Active; 'I' for Inactive)
REMARK    1  A    between atoms: C_1  and  O_2
REMARK    2  A    between atoms: O_2  and  C_3
REMARK    3  A    between atoms: C_3  and  C_4
REMARK    4  A    between atoms: C_9  and  C_10
REMARK    5  A    between atoms: C_10  and  C_11
REMARK    6  A    between atoms: C_11  and  C_12
REMARK                            x       y       z     vdW  Elec       q    Type
REMARK                         _______ _______ _______ _____ _____    ______ ____
ROOT
ATOM      1  C   UNL     1       4.270   0.677  -1.446  0.00  0.00    +0.000 A 
ATOM      2  C   UNL     1       4.980   0.724  -2.662  0.00  0.00    +0.000 A 
ATOM      3  C   UNL     1       6.347   0.454  -2.709  0.00  0.00    +0.000 A 
ATOM      4  C   UNL     1       7.029   0.130  -1.543  0.00  0.00    +0.000 A 
ATOM      5  C   UNL     1       6.344   0.078  -0.330  0.00  0.00    +0.000 A 
ATOM      6  C   UNL     1       4.966   0.353  -0.261  0.00  0.00    +0.000 A 
ENDROOT
BRANCH   1   7
ATOM      7  C   UNL     1       2.787   0.983  -1.469  0.00  0.00    +0.000 C 
BRANCH   7   9
ATOM      8  C   UNL     1       2.826   3.359  -1.495  0.00  0.00    +0.000 C 
ATOM      9  O   UNL     1       2.459   2.188  -0.778  0.00  0.00    +0.000 OA
ENDBRANCH   7   9
ENDBRANCH   1   7
BRANCH   6  10
ATOM     10  C   UNL     1       4.286   0.251   1.088  0.00  0.00    +0.000 C 
BRANCH  10  11
ATOM     11  C   UNL     1       3.749  -1.160   1.350  0.00  0.00    +0.000 C 
BRANCH  11  12
ATOM     12  C   UNL     1       3.082  -1.267   2.699  0.00  0.00    +0.000 A 
ATOM     13  C   UNL     1       1.797  -0.744   2.898  0.00  0.00    +0.000 A 
ATOM     14  C   UNL     1       1.184  -0.831   4.148  0.00  0.00    +0.000 A 
ATOM     15  C   UNL     1       1.848  -1.439   5.211  0.00  0.00    +0.000 A 
ATOM     16  C   UNL     1       3.128  -1.960   5.025  0.00  0.00    +0.000 A 
ATOM     17  C   UNL     1       3.744  -1.873   3.776  0.00  0.00    +0.000 A 
ENDBRANCH  11  12
ENDBRANCH  10  11
ENDBRANCH   6  10
TORSDOF 5
