REMARK  Name = *****
REMARK  4 active torsions:
REMARK  status: ('A' for Active; 'I' for Inactive)
REMARK    1  A    between atoms: C_1  and  C_2
REMARK    2  A    between atoms: C_2  and  C_4
REMARK    3  A    between atoms: C_4  and  C_9
REMARK    4  A    between atoms: C_10  and  C_11
REMARK                            x       y       z     vdW  Elec       q    Type
REMARK                         _______ _______ _______ _____ _____    ______ ____
ROOT
ATOM      1  C   UNL     1       3.374  -0.834  -0.979  0.00  0.00    +0.000 C 
ATOM      2  C   UNL     1       2.870  -0.549  -2.405  0.00  0.00    +0.000 C 
ATOM      3  C   UNL     1       3.077  -1.846  -3.183  0.00  0.00    +0.000 C 
ATOM      4  C   UNL     1       3.138  -2.959  -2.140  0.00  0.00    +0.000 C 
ATOM      5  C   UNL     1       2.881  -2.283  -0.797  0.00  0.00    +0.000 C 
ENDROOT
BRANCH   1   7
ATOM      6  C   UNL     1       2.692   1.582  -0.261  0.00  0.00    +0.000 C 
ATOM      7  C   UNL     1       2.718   0.104   0.050  0.00  0.00    +0.000 C 
ATOM      8  O   UNL     1       2.277  -0.312   1.124  0.00  0.00    +0.000 OA
ENDBRANCH   1   7
BRANCH   1   9
ATOM      9  C   UNL     1       4.874  -0.762  -0.738  0.00  0.00    +0.000 C 
ATOM     10  C   UNL     1       5.821  -0.345  -1.595  0.00  0.00    +0.000 C 
BRANCH  10  11
ATOM     11  C   UNL     1       7.255  -0.299  -1.270  0.00  0.00    +0.000 A 
ATOM     12  C   UNL     1       7.884  -1.301  -0.519  0.00  0.00    +0.000 A 
ATOM     13  C   UNL     1       9.255  -1.237  -0.257  0.00  0.00    +0.000 A 
ATOM     14  C   UNL     1      10.013  -0.178  -0.752  0.00  0.00    +0.000 A 
ATOM     15  C   UNL     1       9.402   0.815  -1.514  0.00  0.00    +0.000 A 
ATOM     16  C   UNL     1       8.031   0.752  -1.776  0.00  0.00    +0.000 A 
ENDBRANCH  10  11
ENDBRANCH   1   9
TORSDOF 3
