REMARK  Name = *****
REMARK  3 active torsions:
REMARK  status: ('A' for Active; 'I' for Inactive)
REMARK    1  A    between atoms: C_2  and  C_3
REMARK    2  A    between atoms: C_6  and  C_8
REMARK    3  A    between atoms: C_9  and  C_10
REMARK                            x       y       z     vdW  Elec       q    Type
REMARK                         _______ _______ _______ _____ _____    ______ ____
ROOT
ATOM      1  C   UNL     1       7.147  -1.656  -0.033  0.00  0.00    +0.000 C 
ATOM      2  C   UNL     1       8.119  -2.362  -0.050  0.00  0.00    +0.000 C 
ENDROOT
BRANCH   2   3
ATOM      3  C   UNL     1       9.270  -3.210  -0.070  0.00  0.00    +0.000 A 
ATOM      4  C   UNL     1      10.548  -2.655  -0.176  0.00  0.00    +0.000 A 
ATOM      5  C   UNL     1      11.670  -3.486  -0.197  0.00  0.00    +0.000 A 
ATOM      6  C   UNL     1      11.517  -4.869  -0.112  0.00  0.00    +0.000 A 
ATOM      7  C   UNL     1      10.242  -5.425  -0.006  0.00  0.00    +0.000 A 
ATOM      8  C   UNL     1       9.118  -4.596   0.015  0.00  0.00    +0.000 A 
ENDBRANCH   2   3
BRANCH   1  12
ATOM      9  C   UNL     1       3.717   0.134   0.012  0.00  0.00    +0.000 A 
ATOM     10  C   UNL     1       4.694   1.109   0.019  0.00  0.00    +0.000 A 
ATOM     11  C   UNL     1       6.010   0.554   0.004  0.00  0.00    +0.000 A 
ATOM     12  C   UNL     1       5.990  -0.824  -0.014  0.00  0.00    +0.000 A 
ATOM     13  S   UNL     1       4.396  -1.437  -0.013  0.00  0.00    +0.000 S 
BRANCH   9  15
ATOM     14  C   UNL     1       1.137   0.601   0.032  0.00  0.00    +0.000 C 
ATOM     15  C   UNL     1       2.309   0.380   0.023  0.00  0.00    +0.000 C 
ENDBRANCH   9  15
ENDBRANCH   1  12
TORSDOF 3
