REMARK  Name = *****
REMARK  1 active torsions:
REMARK  status: ('A' for Active; 'I' for Inactive)
REMARK    1  A    between atoms: C_3  and  C_11
REMARK                            x       y       z     vdW  Elec       q    Type
REMARK                         _______ _______ _______ _____ _____    ______ ____
ROOT
ATOM      1  C   UNL     1      -1.213   1.402  -0.060  0.00  0.00    +0.000 C 
ATOM      2  C   UNL     1      -2.474   0.604  -0.027  0.00  0.00    +0.000 C 
ATOM      3  C   UNL     1      -2.578  -0.731  -0.042  0.00  0.00    +0.000 C 
ATOM      4  S   UNL     1      -1.258  -1.830  -0.114  0.00  0.00    +0.000 S 
ATOM      5  C   UNL     1       0.160  -0.755  -0.054  0.00  0.00    +0.000 A 
ATOM      6  C   UNL     1       1.420  -1.376  -0.031  0.00  0.00    +0.000 A 
ATOM      7  C   UNL     1       2.594  -0.624   0.013  0.00  0.00    +0.000 A 
ATOM      8  C   UNL     1       2.524   0.763   0.032  0.00  0.00    +0.000 A 
ATOM      9  C   UNL     1       1.280   1.392   0.009  0.00  0.00    +0.000 A 
ATOM     10  C   UNL     1       0.086   0.643  -0.032  0.00  0.00    +0.000 A 
ENDROOT
BRANCH   3  11
ATOM     11  C   UNL     1      -3.911  -1.351  -0.006  0.00  0.00    +0.000 A 
ATOM     12  C   UNL     1      -4.606  -1.607  -1.197  0.00  0.00    +0.000 A 
ATOM     13  C   UNL     1      -5.880  -2.177  -1.161  0.00  0.00    +0.000 A 
ATOM     14  C   UNL     1      -6.471  -2.489   0.063  0.00  0.00    +0.000 A 
ATOM     15  C   UNL     1      -5.790  -2.233   1.252  0.00  0.00    +0.000 A 
ATOM     16  C   UNL     1      -4.515  -1.663   1.219  0.00  0.00    +0.000 A 
ENDBRANCH   3  11
TORSDOF 1
