REMARK  Name = *****
REMARK  3 active torsions:
REMARK  status: ('A' for Active; 'I' for Inactive)
REMARK    1  A    between atoms: C_1  and  C_2
REMARK    2  A    between atoms: C_2  and  C_12
REMARK    3  A    between atoms: C_4  and  C_5
REMARK                            x       y       z     vdW  Elec       q    Type
REMARK                         _______ _______ _______ _____ _____    ______ ____
ROOT
ATOM      1  C   UNL     1       0.866   0.200  -0.048  0.00  0.00    +0.000 C 
ATOM      2  C   UNL     1       2.373   0.075   0.010  0.00  0.00    +0.000 C 
ATOM      3  C   UNL     1       3.158   0.847  -1.030  0.00  0.00    +0.000 C 
ATOM      4  C   UNL     1       3.138  -0.658  -1.103  0.00  0.00    +0.000 C 
ENDROOT
BRANCH   4   5
ATOM      5  C   UNL     1       2.414  -1.379  -2.217  0.00  0.00    +0.000 A 
ATOM      6  C   UNL     1       2.524  -0.969  -3.558  0.00  0.00    +0.000 A 
ATOM      7  C   UNL     1       1.867  -1.654  -4.584  0.00  0.00    +0.000 A 
ATOM      8  C   UNL     1       1.098  -2.767  -4.279  0.00  0.00    +0.000 A 
ATOM      9  C   UNL     1       0.978  -3.211  -2.970  0.00  0.00    +0.000 A 
ATOM     10  C   UNL     1       1.637  -2.522  -1.949  0.00  0.00    +0.000 A 
ATOM     11  F   UNL     1       0.468  -3.426  -5.261  0.00  0.00    +0.000 F 
ENDBRANCH   4   5
BRANCH   2  12
ATOM     12  C   UNL     1       2.932  -0.026   1.425  0.00  0.00    +0.000 A 
ATOM     13  C   UNL     1       3.099  -1.272   2.055  0.00  0.00    +0.000 A 
ATOM     14  C   UNL     1       3.599  -1.370   3.357  0.00  0.00    +0.000 A 
ATOM     15  C   UNL     1       3.939  -0.218   4.060  0.00  0.00    +0.000 A 
ATOM     16  C   UNL     1       3.776   1.029   3.463  0.00  0.00    +0.000 A 
ATOM     17  C   UNL     1       3.276   1.120   2.162  0.00  0.00    +0.000 A 
ENDBRANCH   2  12
TORSDOF 2
