REMARK  Name = *****
REMARK  3 active torsions:
REMARK  status: ('A' for Active; 'I' for Inactive)
REMARK    1  A    between atoms: C_4  and  C_7
REMARK    2  A    between atoms: C_7  and  C_8
REMARK    3  A    between atoms: C_8  and  C_9
REMARK                            x       y       z     vdW  Elec       q    Type
REMARK                         _______ _______ _______ _____ _____    ______ ____
ROOT
ATOM      1  C   UNL     1      -4.661   1.734  -1.616  0.00  0.00    +0.000 C 
ATOM      2  F   UNL     1      -5.231   2.460  -0.605  0.00  0.00    +0.000 F 
ENDROOT
BRANCH   1   6
ATOM      3  C   UNL     1      -5.145   3.655  -5.454  0.00  0.00    +0.000 A 
ATOM      4  C   UNL     1      -5.041   4.423  -4.296  0.00  0.00    +0.000 A 
ATOM      5  C   UNL     1      -4.890   3.801  -3.057  0.00  0.00    +0.000 A 
ATOM      6  C   UNL     1      -4.844   2.403  -2.963  0.00  0.00    +0.000 A 
ATOM      7  C   UNL     1      -4.947   1.639  -4.136  0.00  0.00    +0.000 A 
ATOM      8  C   UNL     1      -5.098   2.265  -5.375  0.00  0.00    +0.000 A 
ENDBRANCH   1   6
BRANCH   1   9
ATOM      9  C   UNL     1      -3.171   1.498  -1.295  0.00  0.00    +0.000 C 
ATOM     10  F   UNL     1      -2.553   2.707  -1.109  0.00  0.00    +0.000 F 
BRANCH   9  11
ATOM     11  C   UNL     1      -2.994   0.585  -0.099  0.00  0.00    +0.000 A 
ATOM     12  C   UNL     1      -2.900   1.122   1.192  0.00  0.00    +0.000 A 
ATOM     13  C   UNL     1      -2.755   0.285   2.299  0.00  0.00    +0.000 A 
ATOM     14  C   UNL     1      -2.703  -1.096   2.127  0.00  0.00    +0.000 A 
ATOM     15  C   UNL     1      -2.797  -1.643   0.848  0.00  0.00    +0.000 A 
ATOM     16  C   UNL     1      -2.943  -0.808  -0.261  0.00  0.00    +0.000 A 
ENDBRANCH   9  11
ENDBRANCH   1   9
TORSDOF 3
