REMARK  Name = *****
REMARK  4 active torsions:
REMARK  status: ('A' for Active; 'I' for Inactive)
REMARK    1  A    between atoms: C_1  and  C_2
REMARK    2  A    between atoms: C_7  and  O_8
REMARK    3  A    between atoms: O_8  and  C_9
REMARK    4  A    between atoms: C_9  and  C_11
REMARK                            x       y       z     vdW  Elec       q    Type
REMARK                         _______ _______ _______ _____ _____    ______ ____
ROOT
ATOM      1  O   UNL     1       1.155  -2.319   0.400  0.00  0.00    +0.000 OA
ENDROOT
BRANCH   1   8
ATOM      2  C   UNL     1       2.528   0.215  -0.140  0.00  0.00    +0.000 C 
ATOM      3  C   UNL     1       1.079   0.094   0.339  0.00  0.00    +0.000 C 
ATOM      4  C   UNL     1       0.268   1.319  -0.104  0.00  0.00    +0.000 C 
ATOM      5  C   UNL     1      -1.193   1.218   0.326  0.00  0.00    +0.000 C 
ATOM      6  C   UNL     1      -1.835  -0.074  -0.167  0.00  0.00    +0.000 C 
ATOM      7  C   UNL     1      -1.037  -1.296   0.274  0.00  0.00    +0.000 C 
ATOM      8  C   UNL     1       0.429  -1.210  -0.166  0.00  0.00    +0.000 C 
ENDBRANCH   1   8
BRANCH   1   9
ATOM      9  C   UNL     1       1.100  -3.486  -0.290  0.00  0.00    +0.000 C 
ATOM     10  O   UNL     1       0.490  -3.677  -1.329  0.00  0.00    +0.000 OA
BRANCH   9  11
ATOM     11  C   UNL     1       1.897  -4.536   0.401  0.00  0.00    +0.000 A 
ATOM     12  C   UNL     1       1.909  -5.825  -0.149  0.00  0.00    +0.000 A 
ATOM     13  C   UNL     1       2.643  -6.845   0.461  0.00  0.00    +0.000 A 
ATOM     14  C   UNL     1       3.369  -6.582   1.622  0.00  0.00    +0.000 A 
ATOM     15  C   UNL     1       3.363  -5.302   2.175  0.00  0.00    +0.000 A 
ATOM     16  C   UNL     1       2.630  -4.279   1.568  0.00  0.00    +0.000 A 
ENDBRANCH   9  11
ENDBRANCH   1   9
TORSDOF 3
