REMARK  Name = *****
REMARK  5 active torsions:
REMARK  status: ('A' for Active; 'I' for Inactive)
REMARK    1  A    between atoms: C_1  and  C_2
REMARK    2  A    between atoms: C_2  and  C_3
REMARK    3  A    between atoms: C_2  and  C_4
REMARK    4  A    between atoms: C_2  and  P_9
REMARK    5  A    between atoms: P_9  and  C_10
REMARK                            x       y       z     vdW  Elec       q    Type
REMARK                         _______ _______ _______ _____ _____    ______ ____
ROOT
ATOM      1  C   UNL     1       1.163  -0.007  -0.005  0.00  0.00    +0.000 C 
ATOM      2  C   UNL     1       2.703   0.107   0.105  0.00  0.00    +0.000 C 
ATOM      3  C   UNL     1       3.297  -0.104  -1.305  0.00  0.00    +0.000 C 
ENDROOT
BRANCH   2   4
ATOM      4  C   UNL     1       3.158   1.483   0.699  0.00  0.00    +0.000 C 
ATOM      5  C   UNL     1       2.551   1.851   2.041  0.00  0.00    +0.000 C 
ATOM      6  C   UNL     1       1.914   3.029   1.958  0.00  0.00    +0.000 C 
ATOM      7  C   UNL     1       2.039   3.548   0.622  0.00  0.00    +0.000 C 
ATOM      8  C   UNL     1       2.750   2.692  -0.124  0.00  0.00    +0.000 C 
ENDBRANCH   2   4
BRANCH   2   9
ATOM      9  P   UNL     1       3.258  -1.344   1.244  0.00  0.00    +0.000 P 
ATOM     10  H   UNL     1       2.738  -2.544   0.804  0.00  0.00    +0.000 HD
BRANCH   9  11
ATOM     11  C   UNL     1       5.067  -1.327   1.096  0.00  0.00    +0.000 A 
ATOM     12  C   UNL     1       5.839  -0.539   1.960  0.00  0.00    +0.000 A 
ATOM     13  C   UNL     1       7.233  -0.529   1.864  0.00  0.00    +0.000 A 
ATOM     14  C   UNL     1       7.871  -1.318   0.910  0.00  0.00    +0.000 A 
ATOM     15  C   UNL     1       7.117  -2.120   0.057  0.00  0.00    +0.000 A 
ATOM     16  C   UNL     1       5.723  -2.129   0.154  0.00  0.00    +0.000 A 
ENDBRANCH   9  11
ENDBRANCH   2   9
TORSDOF 3
