REMARK  Name = *****
REMARK  2 active torsions:
REMARK  status: ('A' for Active; 'I' for Inactive)
REMARK    1  A    between atoms: C_5  and  C_7
REMARK    2  A    between atoms: C_8  and  C_9
REMARK                            x       y       z     vdW  Elec       q    Type
REMARK                         _______ _______ _______ _____ _____    ______ ____
ROOT
ATOM      1  C   UNL     1       0.909  -2.435   0.049  0.00  0.00    +0.000 C 
ATOM      2  C   UNL     1       2.241  -2.566  -0.057  0.00  0.00    +0.000 C 
ENDROOT
BRANCH   2   3
ATOM      3  C   UNL     1       2.951  -3.854  -0.022  0.00  0.00    +0.000 A 
ATOM      4  C   UNL     1       2.462  -5.026  -0.621  0.00  0.00    +0.000 A 
ATOM      5  C   UNL     1       3.185  -6.215  -0.588  0.00  0.00    +0.000 A 
ATOM      6  C   UNL     1       4.420  -6.235   0.042  0.00  0.00    +0.000 A 
ATOM      7  C   UNL     1       4.942  -5.090   0.633  0.00  0.00    +0.000 A 
ATOM      8  C   UNL     1       4.211  -3.899   0.596  0.00  0.00    +0.000 A 
ATOM      9  F   UNL     1       5.125  -7.374   0.077  0.00  0.00    +0.000 F 
ATOM     10  F   UNL     1       1.281  -5.028  -1.257  0.00  0.00    +0.000 F 
ENDBRANCH   2   3
BRANCH   1  15
ATOM     11  C   UNL     1      -1.770   0.107  -0.675  0.00  0.00    +0.000 A 
ATOM     12  C   UNL     1      -1.266   1.258  -0.070  0.00  0.00    +0.000 A 
ATOM     13  C   UNL     1      -0.037   1.212   0.584  0.00  0.00    +0.000 A 
ATOM     14  C   UNL     1       0.684   0.019   0.625  0.00  0.00    +0.000 A 
ATOM     15  C   UNL     1       0.204  -1.145   0.010  0.00  0.00    +0.000 A 
ATOM     16  C   UNL     1      -1.043  -1.087  -0.630  0.00  0.00    +0.000 A 
ATOM     17  F   UNL     1       1.854   0.014   1.284  0.00  0.00    +0.000 F 
ENDBRANCH   1  15
TORSDOF 2
