REMARK  Name = *****
REMARK  4 active torsions:
REMARK  status: ('A' for Active; 'I' for Inactive)
REMARK    1  A    between atoms: C_4  and  C_7
REMARK    2  A    between atoms: C_7  and  N_8
REMARK    3  A    between atoms: N_8  and  N_9
REMARK    4  A    between atoms: N_9  and  C_10
REMARK                            x       y       z     vdW  Elec       q    Type
REMARK                         _______ _______ _______ _____ _____    ______ ____
ROOT
ATOM      1  N   UNL     1       4.080   0.229  -0.323  0.00  0.00    +0.000 NA
ENDROOT
BRANCH   1   2
ATOM      2  C   UNL     1       2.971   0.163  -0.233  0.00  0.00    +0.000 C 
BRANCH   2   6
ATOM      3  C   UNL     1      -1.231  -0.069   0.120  0.00  0.00    +0.000 A 
ATOM      4  C   UNL     1      -0.603   1.176   0.068  0.00  0.00    +0.000 A 
ATOM      5  C   UNL     1       0.786   1.252  -0.048  0.00  0.00    +0.000 A 
ATOM      6  C   UNL     1       1.548   0.084  -0.113  0.00  0.00    +0.000 A 
ATOM      7  C   UNL     1       0.918  -1.161  -0.060  0.00  0.00    +0.000 A 
ATOM      8  C   UNL     1      -0.472  -1.238   0.056  0.00  0.00    +0.000 A 
ENDBRANCH   2   6
ENDBRANCH   1   2
BRANCH   1   9
ATOM      9  N   UNL     1       5.527   0.302  -0.486  0.00  0.00    +0.000 NA
BRANCH   9  10
ATOM     10  C   UNL     1       6.200   0.808   0.573  0.00  0.00    +0.000 A 
ATOM     11  C   UNL     1       5.616   1.195   1.792  0.00  0.00    +0.000 A 
ATOM     12  C   UNL     1       6.388   1.709   2.838  0.00  0.00    +0.000 A 
ATOM     13  C   UNL     1       7.765   1.851   2.700  0.00  0.00    +0.000 A 
ATOM     14  C   UNL     1       8.370   1.475   1.506  0.00  0.00    +0.000 A 
ATOM     15  C   UNL     1       7.593   0.961   0.462  0.00  0.00    +0.000 A 
ATOM     16 CL   UNL     1       5.635   2.174   4.320  0.00  0.00    +0.000 Cl
ENDBRANCH   9  10
ENDBRANCH   1   9
TORSDOF 4
