REMARK  Name = *****
REMARK  2 active torsions:
REMARK  status: ('A' for Active; 'I' for Inactive)
REMARK    1  A    between atoms: C_4  and  C_7
REMARK    2  A    between atoms: C_8  and  C_9
REMARK                            x       y       z     vdW  Elec       q    Type
REMARK                         _______ _______ _______ _____ _____    ______ ____
ROOT
ATOM      1  C   UNL     1       2.860   0.188  -0.201  0.00  0.00    +0.000 C 
ATOM      2  C   UNL     1       4.055   0.238  -0.312  0.00  0.00    +0.000 C 
ENDROOT
BRANCH   1   6
ATOM      3  C   UNL     1      -1.347  -0.056   0.065  0.00  0.00    +0.000 A 
ATOM      4  C   UNL     1      -0.723   1.191   0.026  0.00  0.00    +0.000 A 
ATOM      5  C   UNL     1       0.668   1.275  -0.055  0.00  0.00    +0.000 A 
ATOM      6  C   UNL     1       1.436   0.109  -0.097  0.00  0.00    +0.000 A 
ATOM      7  C   UNL     1       0.810  -1.139  -0.053  0.00  0.00    +0.000 A 
ATOM      8  C   UNL     1      -0.581  -1.221   0.028  0.00  0.00    +0.000 A 
ENDBRANCH   1   6
BRANCH   2   9
ATOM      9  C   UNL     1       5.472   0.281  -0.471  0.00  0.00    +0.000 A 
ATOM     10  C   UNL     1       6.254   1.408  -0.574  0.00  0.00    +0.000 A 
ATOM     11  C   UNL     1       7.635   1.122  -0.744  0.00  0.00    +0.000 A 
ATOM     12  C   UNL     1       7.869  -0.236  -0.763  0.00  0.00    +0.000 A 
ATOM     13  S   UNL     1       6.427  -1.139  -0.573  0.00  0.00    +0.000 S 
ATOM     14 BR   UNL     1       5.643   3.198  -0.515  0.00  0.00    +0.000 Br
ENDBRANCH   2   9
TORSDOF 2
