REMARK  Name = *****
REMARK  6 active torsions:
REMARK  status: ('A' for Active; 'I' for Inactive)
REMARK    1  A    between atoms: C_1  and  C_2
REMARK    2  A    between atoms: C_2  and  N_3
REMARK    3  A    between atoms: N_3  and  C_4
REMARK    4  A    between atoms: N_3  and  C_11
REMARK    5  A    between atoms: C_4  and  C_5
REMARK    6  A    between atoms: C_15  and  C_17
REMARK                            x       y       z     vdW  Elec       q    Type
REMARK                         _______ _______ _______ _____ _____    ______ ____
ROOT
ATOM      1  N   UNL     1       3.113  -0.314  -1.179  0.00  0.00    +0.000 N 
ENDROOT
BRANCH   1   2
ATOM      2  C   UNL     1       4.475  -0.578  -1.454  0.00  0.00    +0.000 A 
ATOM      3  C   UNL     1       5.318  -1.277  -0.578  0.00  0.00    +0.000 A 
ATOM      4  C   UNL     1       6.658  -1.524  -0.896  0.00  0.00    +0.000 A 
ATOM      5  C   UNL     1       7.188  -1.076  -2.103  0.00  0.00    +0.000 A 
ATOM      6  C   UNL     1       6.381  -0.378  -3.000  0.00  0.00    +0.000 A 
ATOM      7  C   UNL     1       5.039  -0.133  -2.664  0.00  0.00    +0.000 A 
ATOM      8  C   UNL     1       6.925   0.127  -4.303  0.00  0.00    +0.000 C 
ENDBRANCH   1   2
BRANCH   1  10
ATOM      9  C   UNL     1       1.458   0.468   0.495  0.00  0.00    +0.000 C 
ATOM     10  C   UNL     1       2.697  -0.379   0.232  0.00  0.00    +0.000 C 
ENDBRANCH   1  10
BRANCH   1  11
ATOM     11  C   UNL     1       2.206  -0.980  -2.145  0.00  0.00    +0.000 C 
BRANCH  11  12
ATOM     12  C   UNL     1       1.725  -0.066  -3.258  0.00  0.00    +0.000 A 
ATOM     13  C   UNL     1       1.340  -0.628  -4.486  0.00  0.00    +0.000 A 
ATOM     14  C   UNL     1       0.858   0.176  -5.522  0.00  0.00    +0.000 A 
ATOM     15  C   UNL     1       0.744   1.552  -5.341  0.00  0.00    +0.000 A 
ATOM     16  C   UNL     1       1.110   2.124  -4.125  0.00  0.00    +0.000 A 
ATOM     17  C   UNL     1       1.592   1.320  -3.090  0.00  0.00    +0.000 A 
ENDBRANCH  11  12
ENDBRANCH   1  11
TORSDOF 4
