REMARK  Name = *****
REMARK  4 active torsions:
REMARK  status: ('A' for Active; 'I' for Inactive)
REMARK    1  A    between atoms: C_1  and  C_2
REMARK    2  A    between atoms: C_2  and  C_4
REMARK    3  A    between atoms: C_7  and  C_10
REMARK    4  A    between atoms: C_11  and  C_12
REMARK                            x       y       z     vdW  Elec       q    Type
REMARK                         _______ _______ _______ _____ _____    ______ ____
ROOT
ATOM      1  C   UNL     1       3.268  -0.244   1.133  0.00  0.00    +0.000 A 
ATOM      2  C   UNL     1       2.709  -1.047   2.132  0.00  0.00    +0.000 A 
ATOM      3  C   UNL     1       3.378  -1.224   3.350  0.00  0.00    +0.000 A 
ATOM      4  C   UNL     1       4.616  -0.613   3.584  0.00  0.00    +0.000 A 
ATOM      5  C   UNL     1       5.163   0.204   2.587  0.00  0.00    +0.000 A 
ATOM      6  C   UNL     1       4.498   0.383   1.369  0.00  0.00    +0.000 A 
ENDROOT
BRANCH   1   8
ATOM      7  C   UNL     1       1.289  -0.715  -0.461  0.00  0.00    +0.000 C 
ATOM      8  C   UNL     1       2.597  -0.022  -0.183  0.00  0.00    +0.000 C 
ATOM      9  O   UNL     1       3.114   0.718  -1.018  0.00  0.00    +0.000 OA
ENDBRANCH   1   8
BRANCH   4  10
ATOM     10  C   UNL     1       5.330  -0.750   4.861  0.00  0.00    +0.000 C 
ATOM     11  C   UNL     1       5.387  -1.891   5.566  0.00  0.00    +0.000 C 
BRANCH  11  12
ATOM     12  C   UNL     1       6.117  -2.032   6.834  0.00  0.00    +0.000 A 
ATOM     13  C   UNL     1       6.123  -1.022   7.809  0.00  0.00    +0.000 A 
ATOM     14  C   UNL     1       6.803  -1.206   9.015  0.00  0.00    +0.000 A 
ATOM     15  C   UNL     1       7.468  -2.402   9.252  0.00  0.00    +0.000 A 
ATOM     16  C   UNL     1       7.462  -3.421   8.308  0.00  0.00    +0.000 A 
ATOM     17  C   UNL     1       6.782  -3.238   7.102  0.00  0.00    +0.000 A 
ATOM     18  F   UNL     1       8.118  -2.578  10.410  0.00  0.00    +0.000 F 
ENDBRANCH  11  12
ENDBRANCH   4  10
TORSDOF 3
