REMARK  Name = *****
REMARK  5 active torsions:
REMARK  status: ('A' for Active; 'I' for Inactive)
REMARK    1  A    between atoms: C_1  and  O_2
REMARK    2  A    between atoms: O_2  and  C_3
REMARK    3  A    between atoms: C_3  and  C_4
REMARK    4  A    between atoms: C_3  and  C_10
REMARK    5  A    between atoms: C_10  and  C_11
REMARK                            x       y       z     vdW  Elec       q    Type
REMARK                         _______ _______ _______ _____ _____    ______ ____
ROOT
ATOM      1  C   UNL     1       2.730  -0.934  -1.049  0.00  0.00    +0.000 C 
ENDROOT
BRANCH   1   2
ATOM      2  C   UNL     1       2.139  -0.000  -0.004  0.00  0.00    +0.000 A 
ATOM      3  C   UNL     1       1.852   1.342  -0.299  0.00  0.00    +0.000 A 
ATOM      4  C   UNL     1       1.330   2.194   0.676  0.00  0.00    +0.000 A 
ATOM      5  C   UNL     1       1.085   1.715   1.961  0.00  0.00    +0.000 A 
ATOM      6  C   UNL     1       1.362   0.386   2.271  0.00  0.00    +0.000 A 
ATOM      7  C   UNL     1       1.885  -0.467   1.296  0.00  0.00    +0.000 A 
ENDBRANCH   1   2
BRANCH   1   9
ATOM      8  C   UNL     1       1.870  -1.690  -3.148  0.00  0.00    +0.000 C 
ATOM      9  O   UNL     1       2.218  -0.567  -2.350  0.00  0.00    +0.000 OA
ENDBRANCH   1   9
BRANCH   1  10
ATOM     10  C   UNL     1       4.287  -0.995  -1.087  0.00  0.00    +0.000 C 
ATOM     11 CL   UNL     1       4.935  -2.008   0.255  0.00  0.00    +0.000 Cl
BRANCH  10  12
ATOM     12  C   UNL     1       5.002   0.345  -1.179  0.00  0.00    +0.000 A 
ATOM     13  C   UNL     1       5.350   1.098  -0.046  0.00  0.00    +0.000 A 
ATOM     14  C   UNL     1       5.983   2.337  -0.175  0.00  0.00    +0.000 A 
ATOM     15  C   UNL     1       6.270   2.847  -1.438  0.00  0.00    +0.000 A 
ATOM     16  C   UNL     1       5.921   2.122  -2.574  0.00  0.00    +0.000 A 
ATOM     17  C   UNL     1       5.289   0.883  -2.446  0.00  0.00    +0.000 A 
ENDBRANCH  10  12
ENDBRANCH   1  10
TORSDOF 4
