REMARK  Name = *****
REMARK  6 active torsions:
REMARK  status: ('A' for Active; 'I' for Inactive)
REMARK    1  A    between atoms: C_1  and  O_2
REMARK    2  A    between atoms: O_2  and  S_3
REMARK    3  A    between atoms: S_3  and  C_5
REMARK    4  A    between atoms: C_8  and  C_11
REMARK    5  A    between atoms: C_11  and  C_12
REMARK    6  A    between atoms: C_12  and  C_13
REMARK                            x       y       z     vdW  Elec       q    Type
REMARK                         _______ _______ _______ _____ _____    ______ ____
ROOT
ATOM      1  C   UNL     1       4.660  -1.934   0.013  0.00  0.00    +0.000 A 
ATOM      2  C   UNL     1       5.373  -3.134   0.119  0.00  0.00    +0.000 A 
ATOM      3  C   UNL     1       6.770  -3.127   0.143  0.00  0.00    +0.000 A 
ATOM      4  C   UNL     1       7.476  -1.919   0.054  0.00  0.00    +0.000 A 
ATOM      5  C   UNL     1       6.760  -0.721  -0.066  0.00  0.00    +0.000 A 
ATOM      6  C   UNL     1       5.363  -0.730  -0.086  0.00  0.00    +0.000 A 
ENDROOT
BRANCH   1   7
ATOM      7  S   UNL     1       2.849  -1.954  -0.051  0.00  0.00    +0.000 S 
ATOM      8  O   UNL     1       2.409  -0.532   0.142  0.00  0.00    +0.000 OA
BRANCH   7  10
ATOM      9  C   UNL     1       1.502  -2.461   2.065  0.00  0.00    +0.000 C 
ATOM     10  O   UNL     1       2.711  -2.715   1.365  0.00  0.00    +0.000 OA
ENDBRANCH   7  10
ENDBRANCH   1   7
BRANCH   4  11
ATOM     11  C   UNL     1       8.985  -1.913   0.062  0.00  0.00    +0.000 C 
BRANCH  11  12
ATOM     12  C   UNL     1       9.565  -2.257  -1.313  0.00  0.00    +0.000 C 
BRANCH  12  13
ATOM     13  C   UNL     1      11.067  -2.223  -1.318  0.00  0.00    +0.000 A 
ATOM     14  C   UNL     1      11.829  -1.157  -1.761  0.00  0.00    +0.000 A 
ATOM     15  S   UNL     1      13.510  -1.442  -1.627  0.00  0.00    +0.000 S 
ATOM     16  C   UNL     1      13.247  -3.000  -0.977  0.00  0.00    +0.000 A 
ATOM     17  C   UNL     1      11.906  -3.294  -0.866  0.00  0.00    +0.000 A 
ENDBRANCH  12  13
ENDBRANCH  11  12
ENDBRANCH   4  11
TORSDOF 5
