REMARK  Name = *****
REMARK  2 active torsions:
REMARK  status: ('A' for Active; 'I' for Inactive)
REMARK    1  A    between atoms: C_1  and  C_2
REMARK    2  A    between atoms: C_3  and  C_11
REMARK                            x       y       z     vdW  Elec       q    Type
REMARK                         _______ _______ _______ _____ _____    ______ ____
ROOT
ATOM      1  C   UNL     1       1.139   0.120  -0.940  0.00  0.00    +0.000 C 
ATOM      2  C   UNL     1       2.538   0.080  -0.338  0.00  0.00    +0.000 C 
ATOM      3  C   UNL     1       2.935   1.290   0.565  0.00  0.00    +0.000 C 
ATOM      4  C   UNL     1       4.013   0.740   1.538  0.00  0.00    +0.000 C 
ATOM      5  C   UNL     1       3.674  -0.719   1.607  0.00  0.00    +0.000 A 
ATOM      6  C   UNL     1       4.124  -1.644   2.536  0.00  0.00    +0.000 A 
ATOM      7  C   UNL     1       3.702  -2.968   2.411  0.00  0.00    +0.000 A 
ATOM      8  C   UNL     1       2.853  -3.350   1.362  0.00  0.00    +0.000 A 
ATOM      9  C   UNL     1       2.414  -2.413   0.423  0.00  0.00    +0.000 A 
ATOM     10  C   UNL     1       2.826  -1.096   0.559  0.00  0.00    +0.000 A 
ENDROOT
BRANCH   3  11
ATOM     11  C   UNL     1       1.787   1.989   1.286  0.00  0.00    +0.000 A 
ATOM     12  C   UNL     1       1.079   1.388   2.339  0.00  0.00    +0.000 A 
ATOM     13  C   UNL     1       0.028   2.059   2.968  0.00  0.00    +0.000 A 
ATOM     14  C   UNL     1      -0.334   3.339   2.555  0.00  0.00    +0.000 A 
ATOM     15  C   UNL     1       0.355   3.948   1.509  0.00  0.00    +0.000 A 
ATOM     16  C   UNL     1       1.406   3.278   0.879  0.00  0.00    +0.000 A 
ENDBRANCH   3  11
TORSDOF 1
