REMARK  Name = *****
REMARK  2 active torsions:
REMARK  status: ('A' for Active; 'I' for Inactive)
REMARK    1  A    between atoms: C_4  and  C_8
REMARK    2  A    between atoms: C_9  and  C_10
REMARK                            x       y       z     vdW  Elec       q    Type
REMARK                         _______ _______ _______ _____ _____    ______ ____
ROOT
ATOM      1  C   UNL     1       1.021  -2.455  -0.178  0.00  0.00    +0.000 C 
ATOM      2  C   UNL     1       2.337  -2.633  -0.374  0.00  0.00    +0.000 C 
ENDROOT
BRANCH   1   6
ATOM      3  C   UNL     1      -1.259   1.260  -0.299  0.00  0.00    +0.000 C 
ATOM      4  C   UNL     1      -1.955  -0.025   0.121  0.00  0.00    +0.000 C 
ATOM      5  C   UNL     1      -1.053  -1.219   0.022  0.00  0.00    +0.000 C 
ATOM      6  C   UNL     1       0.292  -1.192  -0.071  0.00  0.00    +0.000 C 
ATOM      7  C   UNL     1       0.965   0.161   0.006  0.00  0.00    +0.000 C 
ATOM      8  O   UNL     1       2.180   0.303  -0.129  0.00  0.00    +0.000 OA
ATOM      9  C   UNL     1       0.107   1.363   0.351  0.00  0.00    +0.000 C 
ENDBRANCH   1   6
BRANCH   2  10
ATOM     10  C   UNL     1       2.979  -3.954  -0.458  0.00  0.00    +0.000 A 
ATOM     11  C   UNL     1       2.404  -5.024  -1.159  0.00  0.00    +0.000 A 
ATOM     12  C   UNL     1       3.061  -6.256  -1.239  0.00  0.00    +0.000 A 
ATOM     13  C   UNL     1       4.303  -6.419  -0.630  0.00  0.00    +0.000 A 
ATOM     14  C   UNL     1       4.896  -5.361   0.054  0.00  0.00    +0.000 A 
ATOM     15  C   UNL     1       4.238  -4.131   0.133  0.00  0.00    +0.000 A 
ATOM     16 CL   UNL     1       5.112  -7.935  -0.731  0.00  0.00    +0.000 Cl
ENDBRANCH   2  10
TORSDOF 2
