REMARK  Name = *****
REMARK  5 active torsions:
REMARK  status: ('A' for Active; 'I' for Inactive)
REMARK    1  A    between atoms: C_1  and  C_2
REMARK    2  A    between atoms: C_4  and  C_8
REMARK    3  A    between atoms: C_8  and  C_9
REMARK    4  A    between atoms: C_9  and  C_10
REMARK    5  A    between atoms: C_15  and  C_16
REMARK                            x       y       z     vdW  Elec       q    Type
REMARK                         _______ _______ _______ _____ _____    ______ ____
ROOT
ATOM      1  C   UNL     1      -1.588   2.428  -0.082  0.00  0.00    +0.000 C 
ENDROOT
BRANCH   1   5
ATOM      2  C   UNL     1       2.011  -1.128  -0.659  0.00  0.00    +0.000 C 
ATOM      3  C   UNL     1       0.566  -0.733  -0.580  0.00  0.00    +0.000 A 
ATOM      4  C   UNL     1       0.208   0.611  -0.394  0.00  0.00    +0.000 A 
ATOM      5  C   UNL     1      -1.135   0.995  -0.269  0.00  0.00    +0.000 A 
ATOM      6  C   UNL     1      -2.121  -0.003  -0.340  0.00  0.00    +0.000 A 
ATOM      7  C   UNL     1      -1.774  -1.343  -0.515  0.00  0.00    +0.000 A 
ATOM      8  C   UNL     1      -0.435  -1.708  -0.628  0.00  0.00    +0.000 A 
ENDBRANCH   1   5
BRANCH   1   9
ATOM      9  C   UNL     1      -0.522   3.526   0.089  0.00  0.00    +0.000 C 
BRANCH   9  10
ATOM     10  C   UNL     1       0.329   3.542   1.349  0.00  0.00    +0.000 A 
ATOM     11  C   UNL     1      -0.017   2.787   2.483  0.00  0.00    +0.000 A 
ATOM     12  C   UNL     1       0.769   2.814   3.637  0.00  0.00    +0.000 A 
ATOM     13  C   UNL     1       1.911   3.602   3.684  0.00  0.00    +0.000 A 
ATOM     14  C   UNL     1       2.266   4.371   2.579  0.00  0.00    +0.000 A 
ATOM     15  C   UNL     1       1.482   4.361   1.413  0.00  0.00    +0.000 A 
ATOM     16  C   UNL     1       1.917   5.210   0.247  0.00  0.00    +0.000 C 
ENDBRANCH   9  10
ENDBRANCH   1   9
TORSDOF 3
