REMARK  Name = *****
REMARK  4 active torsions:
REMARK  status: ('A' for Active; 'I' for Inactive)
REMARK    1  A    between atoms: C_4  and  C_7
REMARK    2  A    between atoms: C_7  and  C_8
REMARK    3  A    between atoms: C_8  and  O_10
REMARK    4  A    between atoms: O_10  and  C_11
REMARK                            x       y       z     vdW  Elec       q    Type
REMARK                         _______ _______ _______ _____ _____    ______ ____
ROOT
ATOM      1  C   UNL     1       0.053  -3.817   0.152  0.00  0.00    +0.000 C 
ATOM      2  O   UNL     1      -0.922  -3.638   0.869  0.00  0.00    +0.000 OA
ENDROOT
BRANCH   1   3
ATOM      3  C   UNL     1       0.915  -2.734  -0.488  0.00  0.00    +0.000 C 
BRANCH   3   7
ATOM      4  C   UNL     1      -0.880   1.171   0.386  0.00  0.00    +0.000 C 
ATOM      5  C   UNL     1      -1.125   0.565  -0.991  0.00  0.00    +0.000 C 
ATOM      6  C   UNL     1      -0.861  -0.943  -0.986  0.00  0.00    +0.000 C 
ATOM      7  C   UNL     1       0.401  -1.332  -0.249  0.00  0.00    +0.000 C 
ATOM      8  C   UNL     1       1.043  -0.466   0.558  0.00  0.00    +0.000 C 
ATOM      9  C   UNL     1       0.557   0.926   0.845  0.00  0.00    +0.000 C 
ENDBRANCH   3   7
ENDBRANCH   1   3
BRANCH   1  10
ATOM     10  O   UNL     1       0.585  -5.052  -0.226  0.00  0.00    +0.000 OA
BRANCH  10  11
ATOM     11  C   UNL     1      -0.114  -6.139   0.299  0.00  0.00    +0.000 A 
ATOM     12  C   UNL     1      -1.091  -6.755  -0.480  0.00  0.00    +0.000 A 
ATOM     13  C   UNL     1      -1.754  -7.875   0.021  0.00  0.00    +0.000 A 
ATOM     14  C   UNL     1      -1.425  -8.374   1.284  0.00  0.00    +0.000 A 
ATOM     15  C   UNL     1      -0.430  -7.758   2.048  0.00  0.00    +0.000 A 
ATOM     16  C   UNL     1       0.237  -6.638   1.552  0.00  0.00    +0.000 A 
ENDBRANCH  10  11
ENDBRANCH   1  10
TORSDOF 4
