REMARK  Name = *****
REMARK  3 active torsions:
REMARK  status: ('A' for Active; 'I' for Inactive)
REMARK    1  A    between atoms: C_1  and  C_2
REMARK    2  A    between atoms: C_9  and  C_11
REMARK    3  A    between atoms: C_16  and  C_17
REMARK                            x       y       z     vdW  Elec       q    Type
REMARK                         _______ _______ _______ _____ _____    ______ ____
ROOT
ATOM      1  C   UNL     1       0.917   0.152  -0.004  0.00  0.00    +0.000 C 
ATOM      2  C   UNL     1       2.418   0.097   0.009  0.00  0.00    +0.000 A 
ATOM      3  C   UNL     1       3.084  -1.144  -0.006  0.00  0.00    +0.000 A 
ATOM      4  C   UNL     1       4.485  -1.152   0.003  0.00  0.00    +0.000 A 
ATOM      5  C   UNL     1       5.162   0.053   0.024  0.00  0.00    +0.000 A 
ATOM      6  C   UNL     1       4.557   1.302   0.038  0.00  0.00    +0.000 A 
ATOM      7  C   UNL     1       3.156   1.296   0.029  0.00  0.00    +0.000 A 
ATOM      8  O   UNL     1       6.497  -0.220   0.027  0.00  0.00    +0.000 OA
ATOM      9  C   UNL     1       6.564  -1.595   0.007  0.00  0.00    +0.000 A 
ATOM     10  N   UNL     1       5.382  -2.189  -0.008  0.00  0.00    +0.000 NA
ENDROOT
BRANCH   9  11
ATOM     11  C   UNL     1       7.915  -2.180   0.002  0.00  0.00    +0.000 A 
ATOM     12  C   UNL     1       9.040  -1.330   0.004  0.00  0.00    +0.000 A 
ATOM     13  C   UNL     1      10.342  -1.837  -0.002  0.00  0.00    +0.000 A 
ATOM     14  C   UNL     1      10.548  -3.210  -0.011  0.00  0.00    +0.000 A 
ATOM     15  C   UNL     1       9.454  -4.073  -0.013  0.00  0.00    +0.000 A 
ATOM     16  C   UNL     1       8.136  -3.578  -0.006  0.00  0.00    +0.000 A 
ATOM     17  C   UNL     1       7.007  -4.576  -0.008  0.00  0.00    +0.000 C 
ENDBRANCH   9  11
TORSDOF 1
