REMARK  Name = *****
REMARK  3 active torsions:
REMARK  status: ('A' for Active; 'I' for Inactive)
REMARK    1  A    between atoms: C_1  and  C_2
REMARK    2  A    between atoms: C_5  and  C_8
REMARK    3  A    between atoms: C_9  and  C_10
REMARK                            x       y       z     vdW  Elec       q    Type
REMARK                         _______ _______ _______ _____ _____    ______ ____
ROOT
ATOM      1  C   UNL     1      -3.283   0.056  -0.073  0.00  0.00    +0.000 C 
ATOM      2  C   UNL     1      -4.053   1.156  -0.070  0.00  0.00    +0.000 C 
ENDROOT
BRANCH   1   7
ATOM      3  C   UNL     1       2.507   0.008  -0.047  0.00  0.00    +0.000 C 
ATOM      4  C   UNL     1       1.008   0.052  -0.072  0.00  0.00    +0.000 A 
ATOM      5  C   UNL     1       0.310   0.988   0.698  0.00  0.00    +0.000 A 
ATOM      6  C   UNL     1      -1.089   1.007   0.698  0.00  0.00    +0.000 A 
ATOM      7  C   UNL     1      -1.814   0.090  -0.072  0.00  0.00    +0.000 A 
ATOM      8  C   UNL     1      -1.113  -0.866  -0.817  0.00  0.00    +0.000 A 
ATOM      9  C   UNL     1       0.285  -0.885  -0.818  0.00  0.00    +0.000 A 
ENDBRANCH   1   7
BRANCH   2  10
ATOM     10  C   UNL     1      -5.523   1.124  -0.090  0.00  0.00    +0.000 A 
ATOM     11  C   UNL     1      -6.259   0.189   0.654  0.00  0.00    +0.000 A 
ATOM     12  C   UNL     1      -7.655   0.210   0.634  0.00  0.00    +0.000 A 
ATOM     13  C   UNL     1      -8.316   1.172  -0.120  0.00  0.00    +0.000 A 
ATOM     14  C   UNL     1      -7.607   2.117  -0.850  0.00  0.00    +0.000 A 
ATOM     15  C   UNL     1      -6.211   2.097  -0.830  0.00  0.00    +0.000 A 
ATOM     16  F   UNL     1      -9.655   1.192  -0.137  0.00  0.00    +0.000 F 
ENDBRANCH   2  10
TORSDOF 2
