REMARK  Name = *****
REMARK  4 active torsions:
REMARK  status: ('A' for Active; 'I' for Inactive)
REMARK    1  A    between atoms: C_4  and  C_7
REMARK    2  A    between atoms: C_7  and  C_8
REMARK    3  A    between atoms: C_8  and  S_11
REMARK    4  A    between atoms: S_11  and  C_12
REMARK                            x       y       z     vdW  Elec       q    Type
REMARK                         _______ _______ _______ _____ _____    ______ ____
ROOT
ATOM      1  C   UNL     1      -3.615  -0.591  -0.437  0.00  0.00    +0.000 C 
ATOM      2  C   UNL     1      -3.424  -1.916  -0.422  0.00  0.00    +0.000 C 
ATOM      3  F   UNL     1      -2.194  -2.461  -0.358  0.00  0.00    +0.000 F 
ENDROOT
BRANCH   1   4
ATOM      4  C   UNL     1      -2.457   0.378  -0.389  0.00  0.00    +0.000 C 
BRANCH   4   8
ATOM      5  C   UNL     1      -1.812   2.060   3.535  0.00  0.00    +0.000 A 
ATOM      6  C   UNL     1      -1.284   0.811   3.216  0.00  0.00    +0.000 A 
ATOM      7  C   UNL     1      -1.491   0.269   1.946  0.00  0.00    +0.000 A 
ATOM      8  C   UNL     1      -2.224   0.975   0.981  0.00  0.00    +0.000 A 
ATOM      9  C   UNL     1      -2.756   2.228   1.317  0.00  0.00    +0.000 A 
ATOM     10  C   UNL     1      -2.549   2.768   2.587  0.00  0.00    +0.000 A 
ENDBRANCH   4   8
ENDBRANCH   1   4
BRANCH   1  11
ATOM     11  S   UNL     1      -5.236   0.061  -0.528  0.00  0.00    +0.000 S 
BRANCH  11  12
ATOM     12  C   UNL     1      -5.725  -0.549  -2.133  0.00  0.00    +0.000 A 
ATOM     13  C   UNL     1      -5.083  -0.120  -3.299  0.00  0.00    +0.000 A 
ATOM     14  C   UNL     1      -5.487  -0.605  -4.545  0.00  0.00    +0.000 A 
ATOM     15  C   UNL     1      -6.539  -1.515  -4.632  0.00  0.00    +0.000 A 
ATOM     16  C   UNL     1      -7.192  -1.937  -3.475  0.00  0.00    +0.000 A 
ATOM     17  C   UNL     1      -6.789  -1.453  -2.229  0.00  0.00    +0.000 A 
ENDBRANCH  11  12
ENDBRANCH   1  11
TORSDOF 4
