REMARK  Name = *****
REMARK  4 active torsions:
REMARK  status: ('A' for Active; 'I' for Inactive)
REMARK    1  A    between atoms: C_1  and  C_2
REMARK    2  A    between atoms: C_5  and  O_8
REMARK    3  A    between atoms: O_8  and  C_9
REMARK    4  A    between atoms: C_9  and  C_11
REMARK                            x       y       z     vdW  Elec       q    Type
REMARK                         _______ _______ _______ _____ _____    ______ ____
ROOT
ATOM      1  O   UNL     1      -1.804   0.171  -1.798  0.00  0.00    +0.000 OA
ENDROOT
BRANCH   1   6
ATOM      2  C   UNL     1       2.518  -0.046  -0.044  0.00  0.00    +0.000 C 
ATOM      3  C   UNL     1       1.041  -0.029   0.346  0.00  0.00    +0.000 C 
ATOM      4  C   UNL     1       0.382   1.288  -0.085  0.00  0.00    +0.000 C 
ATOM      5  C   UNL     1      -1.111   1.305   0.245  0.00  0.00    +0.000 C 
ATOM      6  C   UNL     1      -1.850   0.106  -0.358  0.00  0.00    +0.000 C 
ATOM      7  C   UNL     1      -1.186  -1.208   0.065  0.00  0.00    +0.000 C 
ATOM      8  C   UNL     1       0.309  -1.234  -0.259  0.00  0.00    +0.000 C 
ENDBRANCH   1   6
BRANCH   1   9
ATOM      9  C   UNL     1      -2.731   0.959  -2.394  0.00  0.00    +0.000 C 
ATOM     10  O   UNL     1      -3.602   1.598  -1.826  0.00  0.00    +0.000 OA
BRANCH   9  11
ATOM     11  C   UNL     1      -2.545   0.953  -3.871  0.00  0.00    +0.000 A 
ATOM     12  C   UNL     1      -3.422   1.719  -4.651  0.00  0.00    +0.000 A 
ATOM     13  C   UNL     1      -3.286   1.749  -6.041  0.00  0.00    +0.000 A 
ATOM     14  C   UNL     1      -2.274   1.015  -6.658  0.00  0.00    +0.000 A 
ATOM     15  C   UNL     1      -1.396   0.251  -5.889  0.00  0.00    +0.000 A 
ATOM     16  C   UNL     1      -1.529   0.219  -4.498  0.00  0.00    +0.000 A 
ENDBRANCH   9  11
ENDBRANCH   1   9
TORSDOF 3
