REMARK  Name = *****
REMARK  3 active torsions:
REMARK  status: ('A' for Active; 'I' for Inactive)
REMARK    1  A    between atoms: C_4  and  N_7
REMARK    2  A    between atoms: C_8  and  C_9
REMARK    3  A    between atoms: C_9  and  C_10
REMARK                            x       y       z     vdW  Elec       q    Type
REMARK                         _______ _______ _______ _____ _____    ______ ____
ROOT
ATOM      1  N   UNL     1       2.500  -0.867  -0.525  0.00  0.00    +0.000 NA
ATOM      2  C   UNL     1       3.172  -1.702   0.185  0.00  0.00    +0.000 C 
ATOM      3 CL   UNL     1       4.710  -2.158  -0.455  0.00  0.00    +0.000 Cl
ENDROOT
BRANCH   1   7
ATOM      4  C   UNL     1      -1.438   0.716  -0.899  0.00  0.00    +0.000 C 
ATOM      5  C   UNL     1      -1.294  -0.751  -0.506  0.00  0.00    +0.000 C 
ATOM      6  C   UNL     1       0.112  -1.274  -0.787  0.00  0.00    +0.000 C 
ATOM      7  C   UNL     1       1.180  -0.412  -0.104  0.00  0.00    +0.000 C 
ATOM      8  C   UNL     1       1.035   1.057  -0.520  0.00  0.00    +0.000 C 
ATOM      9  C   UNL     1      -0.370   1.584  -0.239  0.00  0.00    +0.000 C 
ENDBRANCH   1   7
BRANCH   2  10
ATOM     10  C   UNL     1       2.796  -2.359   1.494  0.00  0.00    +0.000 C 
BRANCH  10  11
ATOM     11  C   UNL     1       3.106  -1.521   2.714  0.00  0.00    +0.000 A 
ATOM     12  C   UNL     1       2.073  -1.085   3.557  0.00  0.00    +0.000 A 
ATOM     13  C   UNL     1       2.354  -0.318   4.690  0.00  0.00    +0.000 A 
ATOM     14  C   UNL     1       3.670   0.013   5.000  0.00  0.00    +0.000 A 
ATOM     15  C   UNL     1       4.707  -0.426   4.180  0.00  0.00    +0.000 A 
ATOM     16  C   UNL     1       4.428  -1.191   3.046  0.00  0.00    +0.000 A 
ENDBRANCH  10  11
ENDBRANCH   2  10
TORSDOF 3
