REMARK  Name = *****
REMARK  5 active torsions:
REMARK  status: ('A' for Active; 'I' for Inactive)
REMARK    1  A    between atoms: C_1  and  C_2
REMARK    2  A    between atoms: C_3  and  C_6
REMARK    3  A    between atoms: C_6  and  C_7
REMARK    4  A    between atoms: C_7  and  C_8
REMARK    5  A    between atoms: C_9  and  C_12
REMARK                            x       y       z     vdW  Elec       q    Type
REMARK                         _______ _______ _______ _____ _____    ______ ____
ROOT
ATOM      1  C   UNL     1       3.432   2.421  -0.104  0.00  0.00    +0.000 C 
ENDROOT
BRANCH   1   4
ATOM      2  C   UNL     1       1.049  -0.065  -0.096  0.00  0.00    +0.000 C 
ATOM      3  C   UNL     1       2.561  -0.071  -0.074  0.00  0.00    +0.000 C 
ATOM      4  C   UNL     1       3.501   0.900  -0.077  0.00  0.00    +0.000 C 
ATOM      5  C   UNL     1       4.651  -0.089  -0.043  0.00  0.00    +0.000 C 
ATOM      6  C   UNL     1       3.580  -1.191  -0.040  0.00  0.00    +0.000 C 
ENDBRANCH   1   4
BRANCH   1   7
ATOM      7  C   UNL     1       4.780   3.103  -0.100  0.00  0.00    +0.000 C 
BRANCH   7   8
ATOM      8  C   UNL     1       4.706   4.624  -0.127  0.00  0.00    +0.000 C 
ATOM      9  C   UNL     1       5.641   5.599  -0.130  0.00  0.00    +0.000 C 
ATOM     10  C   UNL     1       4.616   6.715  -0.164  0.00  0.00    +0.000 C 
ATOM     11  C   UNL     1       3.551   5.607  -0.161  0.00  0.00    +0.000 C 
ATOM     12  C   UNL     1       7.153   5.603  -0.109  0.00  0.00    +0.000 C 
ENDBRANCH   7   8
ENDBRANCH   1   7
TORSDOF 3
