REMARK  Name = *****
REMARK  6 active torsions:
REMARK  status: ('A' for Active; 'I' for Inactive)
REMARK    1  A    between atoms: C_1  and  O_2
REMARK    2  A    between atoms: O_2  and  C_3
REMARK    3  A    between atoms: C_3  and  C_5
REMARK    4  A    between atoms: C_10  and  N_11
REMARK    5  A    between atoms: N_11  and  C_12
REMARK    6  A    between atoms: C_12  and  C_13
REMARK                            x       y       z     vdW  Elec       q    Type
REMARK                         _______ _______ _______ _____ _____    ______ ____
ROOT
ATOM      1  C   UNL     1       5.105   1.881  -1.047  0.00  0.00    +0.000 A 
ATOM      2  C   UNL     1       5.735   0.722  -1.532  0.00  0.00    +0.000 A 
ATOM      3  C   UNL     1       6.974   0.811  -2.166  0.00  0.00    +0.000 A 
ATOM      4  C   UNL     1       7.585   2.054  -2.314  0.00  0.00    +0.000 A 
ATOM      5  C   UNL     1       6.964   3.202  -1.813  0.00  0.00    +0.000 A 
ATOM      6  C   UNL     1       5.731   3.131  -1.149  0.00  0.00    +0.000 A 
ENDROOT
BRANCH   1   7
ATOM      7  C   UNL     1       3.793   1.716  -0.397  0.00  0.00    +0.000 C 
ATOM      8  O   UNL     1       3.560   0.847   0.433  0.00  0.00    +0.000 OA
BRANCH   7  10
ATOM      9  C   UNL     1       1.620   2.551  -0.325  0.00  0.00    +0.000 C 
ATOM     10  O   UNL     1       2.882   2.531  -0.981  0.00  0.00    +0.000 OA
ENDBRANCH   7  10
ENDBRANCH   1   7
BRANCH   6  11
ATOM     11  N   UNL     1       5.163   4.313  -0.646  0.00  0.00    +0.000 NA
BRANCH  11  12
ATOM     12  C   UNL     1       5.533   4.796   0.504  0.00  0.00    +0.000 C 
ATOM     13  O   UNL     1       5.148   5.825   1.089  0.00  0.00    +0.000 OA
BRANCH  12  14
ATOM     14  C   UNL     1       6.555   4.156   1.393  0.00  0.00    +0.000 A 
ATOM     15  C   UNL     1       7.876   4.625   1.394  0.00  0.00    +0.000 A 
ATOM     16  C   UNL     1       8.841   3.987   2.175  0.00  0.00    +0.000 A 
ATOM     17  C   UNL     1       8.489   2.878   2.948  0.00  0.00    +0.000 A 
ATOM     18  C   UNL     1       7.173   2.407   2.946  0.00  0.00    +0.000 A 
ATOM     19  C   UNL     1       6.205   3.045   2.169  0.00  0.00    +0.000 A 
ENDBRANCH  12  14
ENDBRANCH  11  12
ENDBRANCH   6  11
TORSDOF 5
