REMARK  Name = *****
REMARK  3 active torsions:
REMARK  status: ('A' for Active; 'I' for Inactive)
REMARK    1  A    between atoms: C_2  and  C_3
REMARK    2  A    between atoms: C_2  and  S_9
REMARK    3  A    between atoms: S_9  and  C_11
REMARK                            x       y       z     vdW  Elec       q    Type
REMARK                         _______ _______ _______ _____ _____    ______ ____
ROOT
ATOM      1  C   UNL     1       1.074  -0.210  -0.500  0.00  0.00    +0.000 C 
ATOM      2  C   UNL     1       2.379   0.021  -0.281  0.00  0.00    +0.000 C 
ENDROOT
BRANCH   2   3
ATOM      3  C   UNL     1       3.069  -0.504   0.891  0.00  0.00    +0.000 C 
ATOM      4  C   UNL     1       2.629  -0.265   2.142  0.00  0.00    +0.000 C 
ATOM      5  C   UNL     1       3.304  -0.780   3.380  0.00  0.00    +0.000 C 
ATOM      6  C   UNL     1       4.694  -1.359   3.117  0.00  0.00    +0.000 C 
ATOM      7  C   UNL     1       4.704  -2.201   1.847  0.00  0.00    +0.000 C 
ATOM      8  C   UNL     1       4.287  -1.366   0.633  0.00  0.00    +0.000 C 
ENDBRANCH   2   3
BRANCH   2   9
ATOM      9  S   UNL     1       3.318   0.917  -1.528  0.00  0.00    +0.000 S 
ATOM     10  O   UNL     1       2.403   1.163  -2.693  0.00  0.00    +0.000 OA
BRANCH   9  11
ATOM     11  C   UNL     1       3.590   2.529  -0.704  0.00  0.00    +0.000 C 
ATOM     12  C   UNL     1       4.729   2.478   0.315  0.00  0.00    +0.000 C 
ATOM     13  C   UNL     1       5.001   3.862   0.903  0.00  0.00    +0.000 C 
ATOM     14  C   UNL     1       3.736   4.484   1.489  0.00  0.00    +0.000 C 
ATOM     15  C   UNL     1       2.603   4.530   0.467  0.00  0.00    +0.000 C 
ATOM     16  C   UNL     1       2.318   3.148  -0.121  0.00  0.00    +0.000 C 
ENDBRANCH   9  11
ENDBRANCH   2   9
TORSDOF 3
