REMARK  Name = *****
REMARK  3 active torsions:
REMARK  status: ('A' for Active; 'I' for Inactive)
REMARK    1  A    between atoms: C_6  and  C_7
REMARK    2  A    between atoms: C_7  and  O_9
REMARK    3  A    between atoms: O_9  and  C_10
REMARK                            x       y       z     vdW  Elec       q    Type
REMARK                         _______ _______ _______ _____ _____    ______ ____
ROOT
ATOM      1  C   UNL     1       2.135  -2.267  -0.784  0.00  0.00    +0.000 C 
ATOM      2  O   UNL     1       3.166  -1.693  -1.099  0.00  0.00    +0.000 OA
ENDROOT
BRANCH   1   8
ATOM      3  C   UNL     1       0.813  -0.192  -0.525  0.00  0.00    +0.000 A 
ATOM      4  C   UNL     1      -0.268   0.523  -0.004  0.00  0.00    +0.000 A 
ATOM      5  C   UNL     1      -1.175  -0.118   0.834  0.00  0.00    +0.000 A 
ATOM      6  C   UNL     1      -1.010  -1.459   1.160  0.00  0.00    +0.000 A 
ATOM      7  C   UNL     1       0.063  -2.176   0.643  0.00  0.00    +0.000 A 
ATOM      8  C   UNL     1       0.975  -1.553  -0.212  0.00  0.00    +0.000 A 
ATOM      9  F   UNL     1       0.216  -3.459   1.003  0.00  0.00    +0.000 F 
ATOM     10  F   UNL     1      -1.883  -2.061   1.980  0.00  0.00    +0.000 F 
ATOM     11  F   UNL     1      -2.209   0.573   1.332  0.00  0.00    +0.000 F 
ENDBRANCH   1   8
BRANCH   1  12
ATOM     12  O   UNL     1       1.823  -3.599  -0.969  0.00  0.00    +0.000 OA
BRANCH  12  13
ATOM     13  C   UNL     1       2.842  -4.371  -1.536  0.00  0.00    +0.000 A 
ATOM     14  C   UNL     1       3.364  -5.414  -0.773  0.00  0.00    +0.000 A 
ATOM     15  C   UNL     1       4.340  -6.230  -1.333  0.00  0.00    +0.000 A 
ATOM     16  C   UNL     1       4.786  -6.030  -2.634  0.00  0.00    +0.000 A 
ATOM     17  C   UNL     1       4.235  -4.997  -3.383  0.00  0.00    +0.000 A 
ATOM     18  C   UNL     1       3.256  -4.164  -2.851  0.00  0.00    +0.000 A 
ATOM     19  F   UNL     1       4.648  -4.805  -4.642  0.00  0.00    +0.000 F 
ATOM     20  F   UNL     1       4.855  -7.231  -0.608  0.00  0.00    +0.000 F 
ENDBRANCH  12  13
ENDBRANCH   1  12
TORSDOF 3
