REMARK  Name = *****
REMARK  4 active torsions:
REMARK  status: ('A' for Active; 'I' for Inactive)
REMARK    1  A    between atoms: C_1  and  N_2
REMARK    2  A    between atoms: N_2  and  C_3
REMARK    3  A    between atoms: N_2  and  C_9
REMARK    4  A    between atoms: C_3  and  C_4
REMARK                            x       y       z     vdW  Elec       q    Type
REMARK                         _______ _______ _______ _____ _____    ______ ____
ROOT
ATOM      1  C   UNL     1       0.862   0.232   0.290  0.00  0.00    +0.000 C 
ATOM      2  N   UNL     1       2.307   0.366   0.129  0.00  0.00    +0.000 N 
ENDROOT
BRANCH   2   3
ATOM      3  C   UNL     1       3.151  -0.060   1.156  0.00  0.00    +0.000 A 
ATOM      4  C   UNL     1       2.713  -0.903   2.192  0.00  0.00    +0.000 A 
ATOM      5  C   UNL     1       3.575  -1.318   3.212  0.00  0.00    +0.000 A 
ATOM      6  C   UNL     1       4.898  -0.895   3.241  0.00  0.00    +0.000 A 
ATOM      7  C   UNL     1       5.356  -0.046   2.243  0.00  0.00    +0.000 A 
ATOM      8  C   UNL     1       4.491   0.365   1.221  0.00  0.00    +0.000 A 
ATOM      9 CL   UNL     1       2.991  -2.369   4.447  0.00  0.00    +0.000 Cl
ENDBRANCH   2   3
BRANCH   2  10
ATOM     10  C   UNL     1       2.814   0.417  -1.261  0.00  0.00    +0.000 C 
BRANCH  10  11
ATOM     11  C   UNL     1       2.848  -0.925  -2.036  0.00  0.00    +0.000 C 
ATOM     12  C   UNL     1       1.494  -1.511  -2.372  0.00  0.00    +0.000 C 
ATOM     13  C   UNL     1       1.424  -2.779  -1.936  0.00  0.00    +0.000 C 
ATOM     14  C   UNL     1       2.664  -3.133  -1.294  0.00  0.00    +0.000 C 
ATOM     15  C   UNL     1       3.506  -2.091  -1.338  0.00  0.00    +0.000 C 
ENDBRANCH  10  11
ENDBRANCH   2  10
TORSDOF 3
