REMARK  Name = *****
REMARK  3 active torsions:
REMARK  status: ('A' for Active; 'I' for Inactive)
REMARK    1  A    between atoms: C_6  and  C_7
REMARK    2  A    between atoms: C_7  and  C_8
REMARK    3  A    between atoms: C_8  and  C_10
REMARK                            x       y       z     vdW  Elec       q    Type
REMARK                         _______ _______ _______ _____ _____    ______ ____
ROOT
ATOM      1  C   UNL     1       4.675   1.330  -0.064  0.00  0.00    +0.000 C 
ATOM      2  O   UNL     1       5.071   1.837  -1.115  0.00  0.00    +0.000 OA
ENDROOT
BRANCH   1   3
ATOM      3  C   UNL     1       4.911   2.052   1.226  0.00  0.00    +0.000 A 
ATOM      4  C   UNL     1       4.408   1.600   2.454  0.00  0.00    +0.000 A 
ATOM      5  C   UNL     1       4.665   2.321   3.626  0.00  0.00    +0.000 A 
ATOM      6  C   UNL     1       5.419   3.487   3.569  0.00  0.00    +0.000 A 
ATOM      7  C   UNL     1       5.923   3.951   2.362  0.00  0.00    +0.000 A 
ATOM      8  C   UNL     1       5.669   3.235   1.190  0.00  0.00    +0.000 A 
ATOM      9  F   UNL     1       5.661   4.170   4.695  0.00  0.00    +0.000 F 
ENDBRANCH   1   3
BRANCH   1  10
ATOM     10  C   UNL     1       3.953  -0.005  -0.070  0.00  0.00    +0.000 C 
BRANCH  10  16
ATOM     11  C   UNL     1       1.722  -0.713   0.879  0.00  0.00    +0.000 A 
ATOM     12  C   UNL     1       0.328  -0.630   0.938  0.00  0.00    +0.000 A 
ATOM     13  C   UNL     1      -0.348   0.266   0.113  0.00  0.00    +0.000 A 
ATOM     14  C   UNL     1       0.357   1.074  -0.775  0.00  0.00    +0.000 A 
ATOM     15  C   UNL     1       1.750   0.990  -0.834  0.00  0.00    +0.000 A 
ATOM     16  C   UNL     1       2.449   0.108   0.004  0.00  0.00    +0.000 A 
ATOM     17 CL   UNL     1      -2.063   0.367   0.185  0.00  0.00    +0.000 Cl
ENDBRANCH  10  16
ENDBRANCH   1  10
TORSDOF 3
