REMARK  Name = *****
REMARK  3 active torsions:
REMARK  status: ('A' for Active; 'I' for Inactive)
REMARK    1  A    between atoms: C_1  and  C_2
REMARK    2  A    between atoms: C_10  and  C_12
REMARK    3  A    between atoms: C_15  and  C_18
REMARK                            x       y       z     vdW  Elec       q    Type
REMARK                         _______ _______ _______ _____ _____    ______ ____
ROOT
ATOM      1  C   UNL     1       0.946   0.139  -0.011  0.00  0.00    +0.000 C 
ATOM      2  C   UNL     1       2.464   0.020  -0.106  0.00  0.00    +0.000 C 
ATOM      3  C   UNL     1       2.969  -1.247   0.520  0.00  0.00    +0.000 A 
ATOM      4  C   UNL     1       2.712  -2.506  -0.045  0.00  0.00    +0.000 A 
ATOM      5  C   UNL     1       3.181  -3.664   0.576  0.00  0.00    +0.000 A 
ATOM      6  C   UNL     1       3.910  -3.569   1.759  0.00  0.00    +0.000 A 
ATOM      7  C   UNL     1       4.169  -2.316   2.316  0.00  0.00    +0.000 A 
ATOM      8  C   UNL     1       3.702  -1.153   1.700  0.00  0.00    +0.000 A 
ATOM      9  N   UNL     1       3.984   0.080   2.286  0.00  0.00    +0.000 NA
ATOM     10  C   UNL     1       3.651   1.159   1.659  0.00  0.00    +0.000 C 
ATOM     11  O   UNL     1       3.024   1.221   0.463  0.00  0.00    +0.000 OA
ENDROOT
BRANCH  10  12
ATOM     12  C   UNL     1       3.947   2.519   2.180  0.00  0.00    +0.000 A 
ATOM     13  C   UNL     1       4.763   2.648   3.311  0.00  0.00    +0.000 A 
ATOM     14  C   UNL     1       5.053   3.910   3.837  0.00  0.00    +0.000 A 
ATOM     15  C   UNL     1       4.527   5.062   3.243  0.00  0.00    +0.000 A 
ATOM     16  C   UNL     1       3.711   4.934   2.113  0.00  0.00    +0.000 A 
ATOM     17  C   UNL     1       3.422   3.672   1.584  0.00  0.00    +0.000 A 
ATOM     18  C   UNL     1       4.826   6.423   3.800  0.00  0.00    +0.000 C 
ENDBRANCH  10  12
TORSDOF 1
