REMARK  Name = *****
REMARK  5 active torsions:
REMARK  status: ('A' for Active; 'I' for Inactive)
REMARK    1  A    between atoms: C_1  and  C_2
REMARK    2  A    between atoms: C_2  and  C_3
REMARK    3  A    between atoms: C_2  and  C_4
REMARK    4  A    between atoms: C_2  and  C_10
REMARK    5  A    between atoms: C_10  and  C_11
REMARK                            x       y       z     vdW  Elec       q    Type
REMARK                         _______ _______ _______ _____ _____    ______ ____
ROOT
ATOM      1  C   UNL     1       0.871   0.105  -0.057  0.00  0.00    +0.000 C 
ATOM      2  C   UNL     1       2.418   0.005  -0.051  0.00  0.00    +0.000 C 
ATOM      3  C   UNL     1       2.834   0.056  -1.551  0.00  0.00    +0.000 C 
ENDROOT
BRANCH   2   4
ATOM      4  C   UNL     1       3.084   1.198   0.670  0.00  0.00    +0.000 A 
ATOM      5  C   UNL     1       2.393   2.039   1.544  0.00  0.00    +0.000 A 
ATOM      6  N   UNL     1       2.941   3.088   2.206  0.00  0.00    +0.000 NA
ATOM      7  C   UNL     1       4.252   3.318   2.009  0.00  0.00    +0.000 A 
ATOM      8  C   UNL     1       5.044   2.546   1.182  0.00  0.00    +0.000 A 
ATOM      9  C   UNL     1       4.452   1.477   0.511  0.00  0.00    +0.000 A 
ENDBRANCH   2   4
BRANCH   2  10
ATOM     10  C   UNL     1       2.918  -1.343   0.601  0.00  0.00    +0.000 C 
ATOM     11 CL   UNL     1       2.386  -2.809  -0.315  0.00  0.00    +0.000 Cl
BRANCH  10  12
ATOM     12  C   UNL     1       2.602  -1.523   2.082  0.00  0.00    +0.000 A 
ATOM     13  C   UNL     1       1.356  -1.983   2.541  0.00  0.00    +0.000 A 
ATOM     14  C   UNL     1       1.097  -2.113   3.908  0.00  0.00    +0.000 A 
ATOM     15  C   UNL     1       2.078  -1.785   4.839  0.00  0.00    +0.000 A 
ATOM     16  C   UNL     1       3.319  -1.329   4.406  0.00  0.00    +0.000 A 
ATOM     17  C   UNL     1       3.579  -1.200   3.040  0.00  0.00    +0.000 A 
ENDBRANCH  10  12
ENDBRANCH   2  10
TORSDOF 3
