REMARK  Name = *****
REMARK  1 active torsions:
REMARK  status: ('A' for Active; 'I' for Inactive)
REMARK    1  A    between atoms: C_4  and  C_7
REMARK                            x       y       z     vdW  Elec       q    Type
REMARK                         _______ _______ _______ _____ _____    ______ ____
ROOT
ATOM      1  C   UNL     1      -2.793   0.410  -0.295  0.00  0.00    +0.000 A 
ATOM      2  C   UNL     1      -3.559   1.423   0.315  0.00  0.00    +0.000 A 
ATOM      3  C   UNL     1      -4.926   1.385  -0.051  0.00  0.00    +0.000 A 
ATOM      4  C   UNL     1      -6.002   2.133   0.279  0.00  0.00    +0.000 A 
ATOM      5  S   UNL     1      -7.367   1.496  -0.560  0.00  0.00    +0.000 S 
ATOM      6  C   UNL     1      -6.439   0.253  -1.320  0.00  0.00    +0.000 A 
ATOM      7  C   UNL     1      -5.131   0.334  -0.938  0.00  0.00    +0.000 A 
ATOM      8  S   UNL     1      -3.701  -0.654  -1.381  0.00  0.00    +0.000 S 
ENDROOT
BRANCH   1  12
ATOM      9  C   UNL     1       1.424  -0.208   0.173  0.00  0.00    +0.000 A 
ATOM     10  C   UNL     1       0.554  -1.294   0.235  0.00  0.00    +0.000 A 
ATOM     11  C   UNL     1      -0.821  -1.101   0.080  0.00  0.00    +0.000 A 
ATOM     12  C   UNL     1      -1.344   0.182  -0.144  0.00  0.00    +0.000 A 
ATOM     13  C   UNL     1      -0.455   1.266  -0.199  0.00  0.00    +0.000 A 
ATOM     14  C   UNL     1       0.920   1.073  -0.042  0.00  0.00    +0.000 A 
ENDBRANCH   1  12
TORSDOF 1
