REMARK  Name = *****
REMARK  4 active torsions:
REMARK  status: ('A' for Active; 'I' for Inactive)
REMARK    1  A    between atoms: C_1  and  C_2
REMARK    2  A    between atoms: C_7  and  C_8
REMARK    3  A    between atoms: N_9  and  C_10
REMARK    4  A    between atoms: C_15  and  C_16
REMARK                            x       y       z     vdW  Elec       q    Type
REMARK                         _______ _______ _______ _____ _____    ______ ____
ROOT
ATOM      1  C   UNL     1       2.801  -3.974  -0.231  0.00  0.00    +0.000 A 
ATOM      2  C   UNL     1       2.314  -5.091  -0.924  0.00  0.00    +0.000 A 
ATOM      3  C   UNL     1       2.858  -6.358  -0.714  0.00  0.00    +0.000 A 
ATOM      4  C   UNL     1       3.907  -6.519   0.185  0.00  0.00    +0.000 A 
ATOM      5  C   UNL     1       4.413  -5.412   0.867  0.00  0.00    +0.000 A 
ATOM      6  C   UNL     1       3.870  -4.129   0.663  0.00  0.00    +0.000 A 
ENDROOT
BRANCH   6   7
ATOM      7  C   UNL     1       4.428  -2.939   1.394  0.00  0.00    +0.000 C 
ATOM      8  F   UNL     1       3.507  -2.311   2.181  0.00  0.00    +0.000 F 
ATOM      9  F   UNL     1       5.445  -3.274   2.247  0.00  0.00    +0.000 F 
ATOM     10  F   UNL     1       4.955  -1.984   0.578  0.00  0.00    +0.000 F 
ENDBRANCH   6   7
BRANCH   1  12
ATOM     11  C   UNL     1       1.137  -2.435   0.137  0.00  0.00    +0.000 C 
ATOM     12  N   UNL     1       2.241  -2.715  -0.485  0.00  0.00    +0.000 NA
BRANCH  11  19
ATOM     13  C   UNL     1      -1.450  -1.866   1.514  0.00  0.00    +0.000 C 
ATOM     14  C   UNL     1      -0.778  -0.870   0.612  0.00  0.00    +0.000 A 
ATOM     15  C   UNL     1      -1.386   0.381   0.409  0.00  0.00    +0.000 A 
ATOM     16  C   UNL     1      -0.798   1.339  -0.419  0.00  0.00    +0.000 A 
ATOM     17  C   UNL     1       0.407   1.065  -1.056  0.00  0.00    +0.000 A 
ATOM     18  C   UNL     1       1.027  -0.169  -0.867  0.00  0.00    +0.000 A 
ATOM     19  C   UNL     1       0.442  -1.138  -0.038  0.00  0.00    +0.000 A 
ENDBRANCH  11  19
ENDBRANCH   1  12
TORSDOF 3
