REMARK  Name = *****
REMARK  3 active torsions:
REMARK  status: ('A' for Active; 'I' for Inactive)
REMARK    1  A    between atoms: N_4  and  C_8
REMARK    2  A    between atoms: C_8  and  C_9
REMARK    3  A    between atoms: C_9  and  C_10
REMARK                            x       y       z     vdW  Elec       q    Type
REMARK                         _______ _______ _______ _____ _____    ______ ____
ROOT
ATOM      1  C   UNL     1       5.795  -1.302  -0.927  0.00  0.00    +0.000 C 
ENDROOT
BRANCH   1   5
ATOM      2  C   UNL     1       1.541   1.073  -1.912  0.00  0.00    +0.000 C 
ATOM      3  C   UNL     1       2.559   0.578  -1.197  0.00  0.00    +0.000 C 
ATOM      4  C   UNL     1       3.647  -0.295  -1.731  0.00  0.00    +0.000 C 
ATOM      5  N   UNL     1       4.619  -0.469  -0.657  0.00  0.00    +0.000 N 
ATOM      6  C   UNL     1       4.286   0.053   0.589  0.00  0.00    +0.000 C 
ATOM      7  S   UNL     1       5.145  -0.076   2.012  0.00  0.00    +0.000 S 
ATOM      8  S   UNL     1       2.757   0.922   0.484  0.00  0.00    +0.000 S 
ENDBRANCH   1   5
BRANCH   1   9
ATOM      9  C   UNL     1       5.525  -2.791  -0.680  0.00  0.00    +0.000 C 
BRANCH   9  10
ATOM     10  C   UNL     1       6.749  -3.628  -0.953  0.00  0.00    +0.000 A 
ATOM     11  C   UNL     1       7.729  -3.788   0.036  0.00  0.00    +0.000 A 
ATOM     12  C   UNL     1       8.874  -4.543  -0.220  0.00  0.00    +0.000 A 
ATOM     13  C   UNL     1       9.051  -5.143  -1.465  0.00  0.00    +0.000 A 
ATOM     14  C   UNL     1       8.084  -4.986  -2.457  0.00  0.00    +0.000 A 
ATOM     15  C   UNL     1       6.938  -4.231  -2.203  0.00  0.00    +0.000 A 
ENDBRANCH   9  10
ENDBRANCH   1   9
TORSDOF 3
