REMARK  Name = *****
REMARK  3 active torsions:
REMARK  status: ('A' for Active; 'I' for Inactive)
REMARK    1  A    between atoms: C_3  and  C_8
REMARK    2  A    between atoms: C_8  and  C_9
REMARK    3  A    between atoms: C_9  and  C_11
REMARK                            x       y       z     vdW  Elec       q    Type
REMARK                         _______ _______ _______ _____ _____    ______ ____
ROOT
ATOM      1  C   UNL     1      -1.025   3.770   0.059  0.00  0.00    +0.000 C 
ATOM      2  O   UNL     1      -0.617   4.273   1.107  0.00  0.00    +0.000 OA
ENDROOT
BRANCH   1   3
ATOM      3  C   UNL     1      -0.647   4.399  -1.245  0.00  0.00    +0.000 A 
ATOM      4  C   UNL     1      -0.901   3.798  -2.484  0.00  0.00    +0.000 A 
ATOM      5  C   UNL     1      -0.532   4.443  -3.670  0.00  0.00    +0.000 A 
ATOM      6  C   UNL     1       0.095   5.687  -3.621  0.00  0.00    +0.000 A 
ATOM      7  C   UNL     1       0.361   6.293  -2.397  0.00  0.00    +0.000 A 
ATOM      8  C   UNL     1      -0.007   5.649  -1.213  0.00  0.00    +0.000 A 
ATOM      9 BR   UNL     1       0.587   6.553  -5.227  0.00  0.00    +0.000 Br
ENDBRANCH   1   3
BRANCH   1  10
ATOM     10  C   UNL     1      -1.904   2.532   0.080  0.00  0.00    +0.000 C 
BRANCH  10  13
ATOM     11  C   UNL     1       0.572  -0.250   0.928  0.00  0.00    +0.000 A 
ATOM     12  C   UNL     1      -0.134   0.956   0.969  0.00  0.00    +0.000 A 
ATOM     13  C   UNL     1      -1.129   1.239   0.019  0.00  0.00    +0.000 A 
ATOM     14  C   UNL     1      -1.417   0.279  -0.960  0.00  0.00    +0.000 A 
ATOM     15  C   UNL     1      -0.706  -0.918  -0.992  0.00  0.00    +0.000 A 
ATOM     16  C   UNL     1       0.286  -1.190  -0.059  0.00  0.00    +0.000 A 
ATOM     17  F   UNL     1      -0.987  -1.823  -1.939  0.00  0.00    +0.000 F 
ENDBRANCH  10  13
ENDBRANCH   1  10
TORSDOF 3
