REMARK  Name = *****
REMARK  2 active torsions:
REMARK  status: ('A' for Active; 'I' for Inactive)
REMARK    1  A    between atoms: C_6  and  C_9
REMARK    2  A    between atoms: C_10  and  C_11
REMARK                            x       y       z     vdW  Elec       q    Type
REMARK                         _______ _______ _______ _____ _____    ______ ____
ROOT
ATOM      1  C   UNL     1       0.829  -1.182   0.698  0.00  0.00    +0.000 C 
ATOM      2  C   UNL     1       1.761  -0.111   0.132  0.00  0.00    +0.000 C 
ATOM      3  C   UNL     1       1.058   1.034  -0.576  0.00  0.00    +0.000 C 
ATOM      4  C   UNL     1      -0.167   1.486   0.182  0.00  0.00    +0.000 C 
ATOM      5  O   UNL     1      -0.124   2.418   0.984  0.00  0.00    +0.000 OA
ATOM      6  C   UNL     1      -1.458   0.772  -0.108  0.00  0.00    +0.000 C 
ATOM      7  C   UNL     1      -1.472  -0.562  -0.306  0.00  0.00    +0.000 C 
ATOM      8  C   UNL     1      -0.342  -1.557  -0.211  0.00  0.00    +0.000 C 
ENDROOT
BRANCH   6   9
ATOM      9  C   UNL     1      -2.667   1.581  -0.136  0.00  0.00    +0.000 C 
ATOM     10  C   UNL     1      -3.651   1.473  -1.044  0.00  0.00    +0.000 C 
BRANCH  10  11
ATOM     11  C   UNL     1      -4.855   2.318  -1.057  0.00  0.00    +0.000 A 
ATOM     12  C   UNL     1      -4.820   3.679  -0.724  0.00  0.00    +0.000 A 
ATOM     13  C   UNL     1      -5.981   4.455  -0.780  0.00  0.00    +0.000 A 
ATOM     14  C   UNL     1      -7.186   3.882  -1.179  0.00  0.00    +0.000 A 
ATOM     15  C   UNL     1      -7.231   2.534  -1.528  0.00  0.00    +0.000 A 
ATOM     16  C   UNL     1      -6.070   1.758  -1.473  0.00  0.00    +0.000 A 
ENDBRANCH  10  11
ENDBRANCH   6   9
TORSDOF 2
