REMARK  Name = *****
REMARK  2 active torsions:
REMARK  status: ('A' for Active; 'I' for Inactive)
REMARK    1  A    between atoms: C_1  and  C_2
REMARK    2  A    between atoms: C_9  and  C_11
REMARK                            x       y       z     vdW  Elec       q    Type
REMARK                         _______ _______ _______ _____ _____    ______ ____
ROOT
ATOM      1  C   UNL     1       1.035   0.051  -0.029  0.00  0.00    +0.000 C 
ATOM      2  C   UNL     1       2.528   0.009  -0.048  0.00  0.00    +0.000 A 
ATOM      3  C   UNL     1       3.346   1.139  -0.082  0.00  0.00    +0.000 A 
ATOM      4  C   UNL     1       4.732   1.121  -0.102  0.00  0.00    +0.000 A 
ATOM      5  C   UNL     1       5.397  -0.110  -0.090  0.00  0.00    +0.000 A 
ATOM      6  C   UNL     1       4.623  -1.277  -0.057  0.00  0.00    +0.000 A 
ATOM      7  C   UNL     1       3.223  -1.216  -0.037  0.00  0.00    +0.000 A 
ATOM      8  N   UNL     1       5.217   2.404  -0.135  0.00  0.00    +0.000 NA
ATOM      9  C   UNL     1       4.129   3.153  -0.131  0.00  0.00    +0.000 A 
ATOM     10  O   UNL     1       2.952   2.447  -0.100  0.00  0.00    +0.000 OA
ENDROOT
BRANCH   9  11
ATOM     11  C   UNL     1       4.019   4.610  -0.159  0.00  0.00    +0.000 A 
ATOM     12  C   UNL     1       5.184   5.392  -0.210  0.00  0.00    +0.000 A 
ATOM     13  C   UNL     1       5.112   6.788  -0.238  0.00  0.00    +0.000 A 
ATOM     14  C   UNL     1       3.870   7.416  -0.215  0.00  0.00    +0.000 A 
ATOM     15  C   UNL     1       2.701   6.660  -0.164  0.00  0.00    +0.000 A 
ATOM     16  C   UNL     1       2.776   5.263  -0.137  0.00  0.00    +0.000 A 
ATOM     17 CL   UNL     1       3.777   9.133  -0.249  0.00  0.00    +0.000 Cl
ENDBRANCH   9  11
TORSDOF 1
