REMARK  Name = *****
REMARK  1 active torsions:
REMARK  status: ('A' for Active; 'I' for Inactive)
REMARK    1  A    between atoms: C_6  and  C_7
REMARK                            x       y       z     vdW  Elec       q    Type
REMARK                         _______ _______ _______ _____ _____    ______ ____
ROOT
ATOM      1  C   UNL     1       1.722  -1.299   0.337  0.00  0.00    +0.000 C 
ATOM      2  C   UNL     1       0.465  -1.275  -0.535  0.00  0.00    +0.000 C 
ATOM      3  C   UNL     1      -0.346   0.015  -0.358  0.00  0.00    +0.000 C 
ATOM      4  C   UNL     1       0.519   1.271  -0.524  0.00  0.00    +0.000 C 
ATOM      5  C   UNL     1       1.776   1.234   0.348  0.00  0.00    +0.000 C 
ATOM      6  C   UNL     1       2.589  -0.050   0.115  0.00  0.00    +0.000 C 
ATOM      7  C   UNL     1      -1.548   0.044  -1.242  0.00  0.00    +0.000 C 
ATOM      8  C   UNL     1      -2.592   0.063  -0.419  0.00  0.00    +0.000 C 
ATOM      9  N   UNL     1      -2.231   0.049   0.899  0.00  0.00    +0.000 NA
ATOM     10  N   UNL     1      -0.972   0.022   1.001  0.00  0.00    +0.000 NA
ENDROOT
BRANCH   6  11
ATOM     11  C   UNL     1       3.849  -0.083   0.961  0.00  0.00    +0.000 A 
ATOM     12  C   UNL     1       3.795  -0.074   2.364  0.00  0.00    +0.000 A 
ATOM     13  C   UNL     1       4.966  -0.106   3.123  0.00  0.00    +0.000 A 
ATOM     14  C   UNL     1       6.207  -0.149   2.492  0.00  0.00    +0.000 A 
ATOM     15  C   UNL     1       6.278  -0.158   1.101  0.00  0.00    +0.000 A 
ATOM     16  C   UNL     1       5.107  -0.126   0.341  0.00  0.00    +0.000 A 
ENDBRANCH   6  11
TORSDOF 1
