REMARK  Name = *****
REMARK  7 active torsions:
REMARK  status: ('A' for Active; 'I' for Inactive)
REMARK    1  A    between atoms: C_1  and  C_2
REMARK    2  A    between atoms: C_5  and  C_8
REMARK    3  A    between atoms: C_8  and  C_9
REMARK    4  A    between atoms: C_9  and  C_10
REMARK    5  A    between atoms: C_10  and  C_12
REMARK    6  A    between atoms: C_13  and  C_19
REMARK    7  A    between atoms: C_16  and  C_18
REMARK                            x       y       z     vdW  Elec       q    Type
REMARK                         _______ _______ _______ _____ _____    ______ ____
ROOT
ATOM      1  C   UNL     1      -5.271   1.579   0.085  0.00  0.00    +0.000 C 
ATOM      2  O   UNL     1      -5.942   0.557   0.251  0.00  0.00    +0.000 OA
ENDROOT
BRANCH   1   3
ATOM      3  C   UNL     1      -5.989   2.907   0.000  0.00  0.00    +0.000 A 
ATOM      4  C   UNL     1      -5.413   4.196   0.013  0.00  0.00    +0.000 A 
ATOM      5  C   UNL     1      -6.266   5.319  -0.069  0.00  0.00    +0.000 A 
ATOM      6  C   UNL     1      -7.652   5.188  -0.150  0.00  0.00    +0.000 A 
ATOM      7  C   UNL     1      -8.232   3.925  -0.157  0.00  0.00    +0.000 A 
ATOM      8  C   UNL     1      -7.398   2.802  -0.084  0.00  0.00    +0.000 A 
ATOM      9  C   UNL     1      -9.720   3.751  -0.226  0.00  0.00    +0.000 C 
ATOM     10  C   UNL     1      -3.944   4.494   0.131  0.00  0.00    +0.000 C 
ENDBRANCH   1   3
BRANCH   1  11
ATOM     11  C   UNL     1      -3.765   1.491  -0.036  0.00  0.00    +0.000 C 
BRANCH  11  12
ATOM     12  C   UNL     1      -3.278   0.039  -0.068  0.00  0.00    +0.000 C 
BRANCH  12  17
ATOM     13  C   UNL     1       2.545  -0.125  -0.100  0.00  0.00    +0.000 C 
ATOM     14  C   UNL     1       1.046  -0.108  -0.087  0.00  0.00    +0.000 A 
ATOM     15  C   UNL     1       0.341  -0.083   1.121  0.00  0.00    +0.000 A 
ATOM     16  C   UNL     1      -1.056  -0.047   1.125  0.00  0.00    +0.000 A 
ATOM     17  C   UNL     1      -1.771  -0.030  -0.080  0.00  0.00    +0.000 A 
ATOM     18  C   UNL     1      -1.065  -0.040  -1.288  0.00  0.00    +0.000 A 
ATOM     19  C   UNL     1       0.332  -0.077  -1.290  0.00  0.00    +0.000 A 
ENDBRANCH  12  17
ENDBRANCH  11  12
ENDBRANCH   1  11
TORSDOF 4
