REMARK  Name = *****
REMARK  3 active torsions:
REMARK  status: ('A' for Active; 'I' for Inactive)
REMARK    1  A    between atoms: C_1  and  C_2
REMARK    2  A    between atoms: C_3  and  C_11
REMARK    3  A    between atoms: C_4  and  C_5
REMARK                            x       y       z     vdW  Elec       q    Type
REMARK                         _______ _______ _______ _____ _____    ______ ____
ROOT
ATOM      1  C   UNL     1       1.017   0.250  -0.219  0.00  0.00    +0.000 C 
ATOM      2  C   UNL     1       2.477  -0.056  -0.219  0.00  0.00    +0.000 C 
ATOM      3  C   UNL     1       3.476   0.661  -1.100  0.00  0.00    +0.000 C 
ATOM      4  C   UNL     1       3.079  -0.782  -1.399  0.00  0.00    +0.000 C 
ENDROOT
BRANCH   4   5
ATOM      5  C   UNL     1       4.079  -1.893  -1.176  0.00  0.00    +0.000 A 
ATOM      6  C   UNL     1       3.773  -2.999  -0.366  0.00  0.00    +0.000 A 
ATOM      7  C   UNL     1       4.689  -4.036  -0.172  0.00  0.00    +0.000 A 
ATOM      8  C   UNL     1       5.934  -3.990  -0.793  0.00  0.00    +0.000 A 
ATOM      9  C   UNL     1       6.259  -2.910  -1.608  0.00  0.00    +0.000 A 
ATOM     10  C   UNL     1       5.338  -1.876  -1.798  0.00  0.00    +0.000 A 
ENDBRANCH   4   5
BRANCH   3  11
ATOM     11  C   UNL     1       3.067   1.775  -2.037  0.00  0.00    +0.000 A 
ATOM     12  C   UNL     1       2.563   2.989  -1.541  0.00  0.00    +0.000 A 
ATOM     13  C   UNL     1       2.201   4.035  -2.395  0.00  0.00    +0.000 A 
ATOM     14  C   UNL     1       2.348   3.890  -3.771  0.00  0.00    +0.000 A 
ATOM     15  C   UNL     1       2.859   2.704  -4.289  0.00  0.00    +0.000 A 
ATOM     16  C   UNL     1       3.218   1.663  -3.429  0.00  0.00    +0.000 A 
ENDBRANCH   3  11
TORSDOF 2
