REMARK  Name = *****
REMARK  3 active torsions:
REMARK  status: ('A' for Active; 'I' for Inactive)
REMARK    1  A    between atoms: C_1  and  C_2
REMARK    2  A    between atoms: C_5  and  C_8
REMARK    3  A    between atoms: C_9  and  C_10
REMARK                            x       y       z     vdW  Elec       q    Type
REMARK                         _______ _______ _______ _____ _____    ______ ____
ROOT
ATOM      1  C   UNL     1      -3.175  -0.245  -0.176  0.00  0.00    +0.000 C 
ATOM      2  C   UNL     1      -4.007   0.798  -0.329  0.00  0.00    +0.000 C 
ENDROOT
BRANCH   1   7
ATOM      3  C   UNL     1       2.606   0.065  -0.112  0.00  0.00    +0.000 C 
ATOM      4  C   UNL     1       1.107   0.015  -0.151  0.00  0.00    +0.000 A 
ATOM      5  C   UNL     1       0.344   0.991   0.498  0.00  0.00    +0.000 A 
ATOM      6  C   UNL     1      -1.052   0.923   0.487  0.00  0.00    +0.000 A 
ATOM      7  C   UNL     1      -1.711  -0.121  -0.172  0.00  0.00    +0.000 A 
ATOM      8  C   UNL     1      -0.945  -1.114  -0.793  0.00  0.00    +0.000 A 
ATOM      9  C   UNL     1       0.452  -1.047  -0.784  0.00  0.00    +0.000 A 
ENDBRANCH   1   7
BRANCH   2  10
ATOM     10  C   UNL     1      -5.472   0.678  -0.353  0.00  0.00    +0.000 A 
ATOM     11  C   UNL     1      -6.164  -0.197   0.492  0.00  0.00    +0.000 A 
ATOM     12  C   UNL     1      -7.554  -0.249   0.451  0.00  0.00    +0.000 A 
ATOM     13  C   UNL     1      -8.279   0.564  -0.412  0.00  0.00    +0.000 A 
ATOM     14  C   UNL     1      -7.603   1.450  -1.247  0.00  0.00    +0.000 A 
ATOM     15  C   UNL     1      -6.206   1.510  -1.212  0.00  0.00    +0.000 A 
ATOM     16  F   UNL     1      -8.205  -1.093   1.262  0.00  0.00    +0.000 F 
ENDBRANCH   2  10
TORSDOF 2
