REMARK  Name = *****
REMARK  6 active torsions:
REMARK  status: ('A' for Active; 'I' for Inactive)
REMARK    1  A    between atoms: C_1  and  C_2
REMARK    2  A    between atoms: C_5  and  S_8
REMARK    3  A    between atoms: S_8  and  C_9
REMARK    4  A    between atoms: C_9  and  C_10
REMARK    5  A    between atoms: C_10  and  C_11
REMARK    6  A    between atoms: C_14  and  C_17
REMARK                            x       y       z     vdW  Elec       q    Type
REMARK                         _______ _______ _______ _____ _____    ______ ____
ROOT
ATOM      1  C   UNL     1      -4.182   1.680  -0.055  0.00  0.00    +0.000 C 
ENDROOT
BRANCH   1   2
ATOM      2  S   UNL     1      -3.639  -0.062  -0.055  0.00  0.00    +0.000 S 
BRANCH   2   7
ATOM      3  C   UNL     1       2.473  -0.019   0.070  0.00  0.00    +0.000 C 
ATOM      4  C   UNL     1       0.974   0.013   0.044  0.00  0.00    +0.000 A 
ATOM      5  C   UNL     1       0.277   1.224   0.028  0.00  0.00    +0.000 A 
ATOM      6  C   UNL     1      -1.124   1.243  -0.000  0.00  0.00    +0.000 A 
ATOM      7  C   UNL     1      -1.854   0.051  -0.014  0.00  0.00    +0.000 A 
ATOM      8  C   UNL     1      -1.149  -1.160   0.003  0.00  0.00    +0.000 A 
ATOM      9  C   UNL     1       0.249  -1.181   0.032  0.00  0.00    +0.000 A 
ENDBRANCH   2   7
ENDBRANCH   1   2
BRANCH   1  10
ATOM     10  C   UNL     1      -5.710   1.741  -0.092  0.00  0.00    +0.000 C 
BRANCH  10  11
ATOM     11  C   UNL     1      -6.202   3.163  -0.080  0.00  0.00    +0.000 A 
ATOM     12  C   UNL     1      -6.441   3.831   1.116  0.00  0.00    +0.000 A 
ATOM     13  N   UNL     1      -6.863   5.113   1.198  0.00  0.00    +0.000 NA
ATOM     14  C   UNL     1      -7.065   5.778   0.037  0.00  0.00    +0.000 A 
ATOM     15  C   UNL     1      -6.846   5.195  -1.207  0.00  0.00    +0.000 A 
ATOM     16  C   UNL     1      -6.407   3.874  -1.263  0.00  0.00    +0.000 A 
ATOM     17  C   UNL     1      -7.543   7.196   0.131  0.00  0.00    +0.000 C 
ENDBRANCH  10  11
ENDBRANCH   1  10
TORSDOF 4
