REMARK  Name = *****
REMARK  5 active torsions:
REMARK  status: ('A' for Active; 'I' for Inactive)
REMARK    1  A    between atoms: C_1  and  C_2
REMARK    2  A    between atoms: C_3  and  C_10
REMARK    3  A    between atoms: C_4  and  C_8
REMARK    4  A    between atoms: C_4  and  C_9
REMARK    5  A    between atoms: C_11  and  C_12
REMARK                            x       y       z     vdW  Elec       q    Type
REMARK                         _______ _______ _______ _____ _____    ______ ____
ROOT
ATOM      1  C   UNL     1       2.829  -0.993  -0.225  0.00  0.00    +0.000 C 
ATOM      2  C   UNL     1       1.459  -0.362  -0.130  0.00  0.00    +0.000 C 
ATOM      3  C   UNL     1       0.293  -1.048  -0.029  0.00  0.00    +0.000 C 
ATOM      4  C   UNL     1      -1.086  -0.353  -0.023  0.00  0.00    +0.000 C 
ATOM      5  C   UNL     1      -0.971   1.130  -0.464  0.00  0.00    +0.000 C 
ATOM      6  C   UNL     1       0.205   1.838   0.191  0.00  0.00    +0.000 C 
ATOM      7  C   UNL     1       1.511   1.150  -0.182  0.00  0.00    +0.000 C 
ATOM      8  C   UNL     1      -2.085  -1.025  -0.994  0.00  0.00    +0.000 C 
ATOM      9  C   UNL     1      -1.681  -0.416   1.402  0.00  0.00    +0.000 C 
ENDROOT
BRANCH   3  10
ATOM     10  C   UNL     1       0.273  -2.503   0.093  0.00  0.00    +0.000 C 
ATOM     11  C   UNL     1       0.722  -3.159   1.177  0.00  0.00    +0.000 C 
BRANCH  11  12
ATOM     12  C   UNL     1       0.723  -4.571   1.381  0.00  0.00    +0.000 A 
ATOM     13  C   UNL     1       0.260  -5.542   0.515  0.00  0.00    +0.000 A 
ATOM     14  S   UNL     1       0.513  -7.059   1.279  0.00  0.00    +0.000 S 
ATOM     15  N   UNL     1       1.187  -6.365   2.644  0.00  0.00    +0.000 NA
ATOM     16  N   UNL     1       1.242  -5.045   2.576  0.00  0.00    +0.000 NA
ENDBRANCH  11  12
ENDBRANCH   3  10
TORSDOF 2
