REMARK  Name = *****
REMARK  2 active torsions:
REMARK  status: ('A' for Active; 'I' for Inactive)
REMARK    1  A    between atoms: C_4  and  C_7
REMARK    2  A    between atoms: C_8  and  C_9
REMARK                            x       y       z     vdW  Elec       q    Type
REMARK                         _______ _______ _______ _____ _____    ______ ____
ROOT
ATOM      1  C   UNL     1       2.885   0.137  -0.274  0.00  0.00    +0.000 C 
ATOM      2  C   UNL     1       4.081   0.171  -0.382  0.00  0.00    +0.000 C 
ENDROOT
BRANCH   1   6
ATOM      3  C   UNL     1      -1.319  -0.015   0.101  0.00  0.00    +0.000 A 
ATOM      4  C   UNL     1      -0.669   1.218   0.035  0.00  0.00    +0.000 A 
ATOM      5  C   UNL     1       0.721   1.270  -0.088  0.00  0.00    +0.000 A 
ATOM      6  C   UNL     1       1.462   0.087  -0.146  0.00  0.00    +0.000 A 
ATOM      7  C   UNL     1       0.810  -1.147  -0.081  0.00  0.00    +0.000 A 
ATOM      8  C   UNL     1      -0.580  -1.197   0.043  0.00  0.00    +0.000 A 
ENDBRANCH   1   6
BRANCH   2   9
ATOM      9  C   UNL     1       5.500   0.206  -0.512  0.00  0.00    +0.000 A 
ATOM     10  C   UNL     1       6.261   1.355  -0.585  0.00  0.00    +0.000 A 
ATOM     11  C   UNL     1       7.656   1.073  -0.713  0.00  0.00    +0.000 A 
ATOM     12  C   UNL     1       7.885  -0.280  -0.731  0.00  0.00    +0.000 A 
ATOM     13  S   UNL     1       6.469  -1.202  -0.598  0.00  0.00    +0.000 S 
ATOM     14  I   UNL     1       9.751  -1.120  -0.901  0.00  0.00    +0.000 I 
ENDBRANCH   2   9
TORSDOF 2
