REMARK  Name = *****
REMARK  2 active torsions:
REMARK  status: ('A' for Active; 'I' for Inactive)
REMARK    1  A    between atoms: C_4  and  S_8
REMARK    2  A    between atoms: S_8  and  C_9
REMARK                            x       y       z     vdW  Elec       q    Type
REMARK                         _______ _______ _______ _____ _____    ______ ____
ROOT
ATOM      1  S   UNL     1       2.783  -1.446   0.296  0.00  0.00    +0.000 S 
ENDROOT
BRANCH   1   5
ATOM      2  C   UNL     1      -0.147  -0.175   1.398  0.00  0.00    +0.000 C 
ATOM      3  C   UNL     1      -0.084   1.095   0.547  0.00  0.00    +0.000 C 
ATOM      4  C   UNL     1       1.285   0.921  -0.147  0.00  0.00    +0.000 C 
ATOM      5  C   UNL     1       1.330  -0.611  -0.450  0.00  0.00    +0.000 C 
ATOM      6  C   UNL     1       0.005  -1.109   0.191  0.00  0.00    +0.000 C 
ATOM      7  C   UNL     1      -1.126  -0.563  -0.658  0.00  0.00    +0.000 C 
ATOM      8  C   UNL     1      -1.169   0.763  -0.452  0.00  0.00    +0.000 C 
ENDBRANCH   1   5
BRANCH   1   9
ATOM      9  C   UNL     1       4.112  -0.681  -0.618  0.00  0.00    +0.000 A 
ATOM     10  C   UNL     1       4.165  -0.721  -2.014  0.00  0.00    +0.000 A 
ATOM     11  C   UNL     1       5.227  -0.117  -2.686  0.00  0.00    +0.000 A 
ATOM     12  C   UNL     1       6.246   0.519  -1.980  0.00  0.00    +0.000 A 
ATOM     13  C   UNL     1       6.207   0.546  -0.587  0.00  0.00    +0.000 A 
ATOM     14  C   UNL     1       5.144  -0.056   0.091  0.00  0.00    +0.000 A 
ATOM     15 CL   UNL     1       5.282  -0.161  -4.406  0.00  0.00    +0.000 Cl
ENDBRANCH   1   9
TORSDOF 2
