REMARK  Name = *****
REMARK  7 active torsions:
REMARK  status: ('A' for Active; 'I' for Inactive)
REMARK    1  A    between atoms: C_1  and  C_2
REMARK    2  A    between atoms: C_4  and  C_19
REMARK    3  A    between atoms: C_5  and  C_18
REMARK    4  A    between atoms: C_6  and  C_9
REMARK    5  A    between atoms: C_7  and  C_8
REMARK    6  A    between atoms: C_9  and  C_10
REMARK    7  A    between atoms: C_10  and  C_12
REMARK                            x       y       z     vdW  Elec       q    Type
REMARK                         _______ _______ _______ _____ _____    ______ ____
ROOT
ATOM      1  C   UNL     1       2.018  -0.936   1.418  0.00  0.00    +0.000 C 
ATOM      2  C   UNL     1       0.825  -0.334   0.723  0.00  0.00    +0.000 A 
ATOM      3  C   UNL     1      -0.336  -1.109   0.615  0.00  0.00    +0.000 A 
ATOM      4  C   UNL     1      -1.476  -0.638  -0.045  0.00  0.00    +0.000 A 
ATOM      5  C   UNL     1      -1.467   0.652  -0.618  0.00  0.00    +0.000 A 
ATOM      6  C   UNL     1      -0.334   1.495  -0.433  0.00  0.00    +0.000 A 
ATOM      7  C   UNL     1       0.848   0.962   0.164  0.00  0.00    +0.000 A 
ATOM      8  C   UNL     1       2.121   1.777   0.218  0.00  0.00    +0.000 C 
ATOM      9  C   UNL     1      -2.675   1.116  -1.400  0.00  0.00    +0.000 C 
ATOM     10  C   UNL     1      -2.668  -1.554  -0.147  0.00  0.00    +0.000 C 
ENDROOT
BRANCH   6  11
ATOM     11  C   UNL     1      -0.354   2.946  -0.907  0.00  0.00    +0.000 C 
BRANCH  11  12
ATOM     12  C   UNL     1      -1.556   3.782  -0.497  0.00  0.00    +0.000 C 
ATOM     13  O   UNL     1      -2.230   4.365  -1.350  0.00  0.00    +0.000 OA
BRANCH  12  14
ATOM     14  C   UNL     1      -1.918   3.961   0.944  0.00  0.00    +0.000 A 
ATOM     15  C   UNL     1      -3.167   4.527   1.243  0.00  0.00    +0.000 A 
ATOM     16  C   UNL     1      -3.558   4.728   2.568  0.00  0.00    +0.000 A 
ATOM     17  C   UNL     1      -2.703   4.368   3.607  0.00  0.00    +0.000 A 
ATOM     18  C   UNL     1      -1.458   3.812   3.321  0.00  0.00    +0.000 A 
ATOM     19  C   UNL     1      -1.063   3.613   1.994  0.00  0.00    +0.000 A 
ENDBRANCH  12  14
ENDBRANCH  11  12
ENDBRANCH   6  11
TORSDOF 3
