REMARK  Name = *****
REMARK  3 active torsions:
REMARK  status: ('A' for Active; 'I' for Inactive)
REMARK    1  A    between atoms: C_4  and  C_7
REMARK    2  A    between atoms: C_7  and  C_8
REMARK    3  A    between atoms: C_8  and  C_10
REMARK                            x       y       z     vdW  Elec       q    Type
REMARK                         _______ _______ _______ _____ _____    ______ ____
ROOT
ATOM      1  C   UNL     1      -3.776  -0.721  -0.286  0.00  0.00    +0.000 C 
ATOM      2  O   UNL     1      -4.181  -1.201  -1.346  0.00  0.00    +0.000 OA
ENDROOT
BRANCH   1   3
ATOM      3  C   UNL     1      -4.219  -1.335   1.005  0.00  0.00    +0.000 A 
ATOM      4  C   UNL     1      -3.699  -0.950   2.245  0.00  0.00    +0.000 A 
ATOM      5  C   UNL     1      -4.161  -1.564   3.411  0.00  0.00    +0.000 A 
ATOM      6  C   UNL     1      -5.137  -2.558   3.358  0.00  0.00    +0.000 A 
ATOM      7  C   UNL     1      -5.656  -2.948   2.126  0.00  0.00    +0.000 A 
ATOM      8  C   UNL     1      -5.198  -2.341   0.955  0.00  0.00    +0.000 A 
ATOM      9 CL   UNL     1      -3.518  -1.085   4.934  0.00  0.00    +0.000 Cl
ENDBRANCH   1   3
BRANCH   1  10
ATOM     10  C   UNL     1      -2.850   0.482  -0.280  0.00  0.00    +0.000 C 
BRANCH  10  14
ATOM     11  C   UNL     1       1.330  -0.443   0.268  0.00  0.00    +0.000 A 
ATOM     12  C   UNL     1       0.569  -1.181  -0.635  0.00  0.00    +0.000 A 
ATOM     13  C   UNL     1      -0.784  -0.887  -0.813  0.00  0.00    +0.000 A 
ATOM     14  C   UNL     1      -1.394   0.141  -0.079  0.00  0.00    +0.000 A 
ATOM     15  C   UNL     1      -0.611   0.890   0.811  0.00  0.00    +0.000 A 
ATOM     16  C   UNL     1       0.742   0.595   0.988  0.00  0.00    +0.000 A 
ENDBRANCH  10  14
ENDBRANCH   1  10
TORSDOF 3
