REMARK  Name = *****
REMARK  3 active torsions:
REMARK  status: ('A' for Active; 'I' for Inactive)
REMARK    1  A    between atoms: C_5  and  C_7
REMARK    2  A    between atoms: C_7  and  O_9
REMARK    3  A    between atoms: O_9  and  C_10
REMARK                            x       y       z     vdW  Elec       q    Type
REMARK                         _______ _______ _______ _____ _____    ______ ____
ROOT
ATOM      1  C   UNL     1       0.931  -2.182  -0.635  0.00  0.00    +0.000 C 
ATOM      2  O   UNL     1       0.512  -3.321  -0.484  0.00  0.00    +0.000 OA
ENDROOT
BRANCH   1   7
ATOM      3  C   UNL     1      -1.944  -0.004   0.442  0.00  0.00    +0.000 A 
ATOM      4  C   UNL     1      -1.307   1.204   0.722  0.00  0.00    +0.000 A 
ATOM      5  C   UNL     1       0.075   1.314   0.568  0.00  0.00    +0.000 A 
ATOM      6  C   UNL     1       0.816   0.218   0.128  0.00  0.00    +0.000 A 
ATOM      7  C   UNL     1       0.188  -0.992  -0.169  0.00  0.00    +0.000 A 
ATOM      8  C   UNL     1      -1.200  -1.102   0.001  0.00  0.00    +0.000 A 
ATOM      9  F   UNL     1       2.146   0.358   0.028  0.00  0.00    +0.000 F 
ENDBRANCH   1   7
BRANCH   1  10
ATOM     10  O   UNL     1       2.075  -1.796  -1.306  0.00  0.00    +0.000 OA
BRANCH  10  11
ATOM     11  C   UNL     1       2.818  -2.875  -1.788  0.00  0.00    +0.000 A 
ATOM     12  C   UNL     1       2.464  -3.482  -2.992  0.00  0.00    +0.000 A 
ATOM     13  C   UNL     1       3.250  -4.526  -3.467  0.00  0.00    +0.000 A 
ATOM     14  C   UNL     1       4.376  -4.954  -2.774  0.00  0.00    +0.000 A 
ATOM     15  C   UNL     1       4.717  -4.318  -1.586  0.00  0.00    +0.000 A 
ATOM     16  C   UNL     1       3.952  -3.271  -1.084  0.00  0.00    +0.000 A 
ATOM     17  F   UNL     1       5.808  -4.715  -0.917  0.00  0.00    +0.000 F 
ATOM     18  F   UNL     1       2.920  -5.125  -4.619  0.00  0.00    +0.000 F 
ENDBRANCH  10  11
ENDBRANCH   1  10
TORSDOF 3
