REMARK  Name = *****
REMARK  3 active torsions:
REMARK  status: ('A' for Active; 'I' for Inactive)
REMARK    1  A    between atoms: C_3  and  N_4
REMARK    2  A    between atoms: N_4  and  C_5
REMARK    3  A    between atoms: C_11  and  C_13
REMARK                            x       y       z     vdW  Elec       q    Type
REMARK                         _______ _______ _______ _____ _____    ______ ____
ROOT
ATOM      1  N   UNL     1      -1.396  -1.211  -1.068  0.00  0.00    +0.000 N 
ATOM      2  C   UNL     1      -2.791  -1.450  -1.081  0.00  0.00    +0.000 C 
ATOM      3  O   UNL     1      -3.473  -1.830  -2.031  0.00  0.00    +0.000 OA
ENDROOT
BRANCH   2   4
ATOM      4  C   UNL     1      -3.557  -1.132   0.139  0.00  0.00    +0.000 A 
ATOM      5  C   UNL     1      -3.871   0.210   0.398  0.00  0.00    +0.000 A 
ATOM      6  C   UNL     1      -4.627   0.541   1.523  0.00  0.00    +0.000 A 
ATOM      7  C   UNL     1      -5.082  -0.464   2.376  0.00  0.00    +0.000 A 
ATOM      8  C   UNL     1      -4.790  -1.803   2.103  0.00  0.00    +0.000 A 
ATOM      9  C   UNL     1      -4.033  -2.143   0.977  0.00  0.00    +0.000 A 
ATOM     10 CL   UNL     1      -3.699  -3.814   0.698  0.00  0.00    +0.000 Cl
ENDBRANCH   2   4
BRANCH   1  11
ATOM     11  C   UNL     1      -0.609  -1.408  -2.264  0.00  0.00    +0.000 A 
ATOM     12  C   UNL     1       0.570  -0.672  -2.477  0.00  0.00    +0.000 A 
ATOM     13  C   UNL     1       1.351  -0.860  -3.624  0.00  0.00    +0.000 A 
ATOM     14  C   UNL     1       0.970  -1.793  -4.581  0.00  0.00    +0.000 A 
ATOM     15  C   UNL     1      -0.189  -2.536  -4.391  0.00  0.00    +0.000 A 
ATOM     16  C   UNL     1      -0.969  -2.345  -3.244  0.00  0.00    +0.000 A 
ENDBRANCH   1  11
BRANCH   1  19
ATOM     17  C   UNL     1       0.562  -1.157   0.652  0.00  0.00    +0.000 C 
ATOM     18  C   UNL     1      -0.697  -1.328   1.433  0.00  0.00    +0.000 C 
ATOM     19  C   UNL     1      -0.742  -0.621   0.095  0.00  0.00    +0.000 C 
ENDBRANCH   1  19
TORSDOF 3
