REMARK  Name = *****
REMARK  3 active torsions:
REMARK  status: ('A' for Active; 'I' for Inactive)
REMARK    1  A    between atoms: C_4  and  C_7
REMARK    2  A    between atoms: C_8  and  S_10
REMARK    3  A    between atoms: S_10  and  C_11
REMARK                            x       y       z     vdW  Elec       q    Type
REMARK                         _______ _______ _______ _____ _____    ______ ____
ROOT
ATOM      1  C   UNL     1      -2.760   0.494  -0.291  0.00  0.00    +0.000 C 
ATOM      2  C   UNL     1      -3.608  -0.357  -0.887  0.00  0.00    +0.000 C 
ATOM      3  F   UNL     1      -3.149  -1.527  -1.386  0.00  0.00    +0.000 F 
ENDROOT
BRANCH   1   7
ATOM      4  C   UNL     1       1.464   0.019   0.220  0.00  0.00    +0.000 A 
ATOM      5  C   UNL     1       0.855  -0.468  -0.935  0.00  0.00    +0.000 A 
ATOM      6  C   UNL     1      -0.524  -0.328  -1.113  0.00  0.00    +0.000 A 
ATOM      7  C   UNL     1      -1.313   0.288  -0.132  0.00  0.00    +0.000 A 
ATOM      8  C   UNL     1      -0.684   0.788   1.017  0.00  0.00    +0.000 A 
ATOM      9  C   UNL     1       0.695   0.649   1.195  0.00  0.00    +0.000 A 
ENDBRANCH   1   7
BRANCH   2  10
ATOM     10  S   UNL     1      -5.300   0.003  -0.996  0.00  0.00    +0.000 S 
BRANCH  10  11
ATOM     11  C   UNL     1      -5.792  -1.221  -2.194  0.00  0.00    +0.000 A 
ATOM     12  C   UNL     1      -6.284  -2.461  -1.774  0.00  0.00    +0.000 A 
ATOM     13  C   UNL     1      -6.684  -3.414  -2.714  0.00  0.00    +0.000 A 
ATOM     14  C   UNL     1      -6.600  -3.129  -4.076  0.00  0.00    +0.000 A 
ATOM     15  C   UNL     1      -6.119  -1.891  -4.500  0.00  0.00    +0.000 A 
ATOM     16  C   UNL     1      -5.718  -0.938  -3.562  0.00  0.00    +0.000 A 
ENDBRANCH  10  11
ENDBRANCH   2  10
TORSDOF 3
