REMARK  Name = *****
REMARK  3 active torsions:
REMARK  status: ('A' for Active; 'I' for Inactive)
REMARK    1  A    between atoms: C_5  and  C_6
REMARK    2  A    between atoms: C_6  and  C_7
REMARK    3  A    between atoms: C_7  and  C_8
REMARK                            x       y       z     vdW  Elec       q    Type
REMARK                         _______ _______ _______ _____ _____    ______ ____
ROOT
ATOM      1  C   UNL     1       1.685  -2.640   1.651  0.00  0.00    +0.000 C 
ENDROOT
BRANCH   1   2
ATOM      2  C   UNL     1       1.777  -3.257   3.026  0.00  0.00    +0.000 A 
ATOM      3  C   UNL     1       1.321  -4.562   3.253  0.00  0.00    +0.000 A 
ATOM      4  C   UNL     1       1.394  -5.125   4.528  0.00  0.00    +0.000 A 
ATOM      5  C   UNL     1       1.918  -4.387   5.588  0.00  0.00    +0.000 A 
ATOM      6  C   UNL     1       2.368  -3.085   5.374  0.00  0.00    +0.000 A 
ATOM      7  C   UNL     1       2.296  -2.521   4.099  0.00  0.00    +0.000 A 
ENDBRANCH   1   2
BRANCH   1   8
ATOM      8  C   UNL     1       0.418  -1.790   1.498  0.00  0.00    +0.000 C 
BRANCH   8  13
ATOM      9  C   UNL     1      -1.112  -0.530  -0.091  0.00  0.00    +0.000 C 
ATOM     10  C   UNL     1      -0.803   0.924   0.039  0.00  0.00    +0.000 C 
ATOM     11  C   UNL     1       0.510   1.160  -0.038  0.00  0.00    +0.000 C 
ATOM     12  C   UNL     1       1.290  -0.099  -0.228  0.00  0.00    +0.000 C 
ATOM     13  C   UNL     1       0.263  -1.206   0.078  0.00  0.00    +0.000 C 
ENDBRANCH   8  13
ENDBRANCH   1   8
TORSDOF 3
