REMARK  Name = *****
REMARK  3 active torsions:
REMARK  status: ('A' for Active; 'I' for Inactive)
REMARK    1  A    between atoms: C_1  and  C_2
REMARK    2  A    between atoms: C_5  and  S_8
REMARK    3  A    between atoms: S_8  and  C_10
REMARK                            x       y       z     vdW  Elec       q    Type
REMARK                         _______ _______ _______ _____ _____    ______ ____
ROOT
ATOM      1  S   UNL     1      -3.727  -0.266   0.000  0.00  0.00    +0.000 S 
ATOM      2  O   UNL     1      -4.208  -0.766   1.331  0.00  0.00    +0.000 OA
ENDROOT
BRANCH   1   7
ATOM      3  C   UNL     1       2.341   0.383   0.462  0.00  0.00    +0.000 C 
ATOM      4  C   UNL     1       0.857   0.196   0.345  0.00  0.00    +0.000 A 
ATOM      5  C   UNL     1       0.207   0.415  -0.875  0.00  0.00    +0.000 A 
ATOM      6  C   UNL     1      -1.180   0.270  -0.974  0.00  0.00    +0.000 A 
ATOM      7  C   UNL     1      -1.934  -0.082   0.151  0.00  0.00    +0.000 A 
ATOM      8  C   UNL     1      -1.288  -0.293   1.372  0.00  0.00    +0.000 A 
ATOM      9  C   UNL     1       0.098  -0.148   1.470  0.00  0.00    +0.000 A 
ENDBRANCH   1   7
BRANCH   1  10
ATOM     10  C   UNL     1      -4.198   1.461  -0.060  0.00  0.00    +0.000 C 
ATOM     11  C   UNL     1      -5.487   1.814  -0.195  0.00  0.00    +0.000 C 
ATOM     12  C   UNL     1      -6.676   0.885  -0.281  0.00  0.00    +0.000 C 
ATOM     13  C   UNL     1      -7.862   1.782   0.044  0.00  0.00    +0.000 C 
ATOM     14  C   UNL     1      -7.474   3.134  -0.528  0.00  0.00    +0.000 C 
ATOM     15  C   UNL     1      -5.990   3.184  -0.284  0.00  0.00    +0.000 C 
ATOM     16  C   UNL     1      -5.307   4.322  -0.112  0.00  0.00    +0.000 C 
ENDBRANCH   1  10
TORSDOF 2
