REMARK  Name = *****
REMARK  4 active torsions:
REMARK  status: ('A' for Active; 'I' for Inactive)
REMARK    1  A    between atoms: C_4  and  S_6
REMARK    2  A    between atoms: S_6  and  C_7
REMARK    3  A    between atoms: C_7  and  C_8
REMARK    4  A    between atoms: C_8  and  C_10
REMARK                            x       y       z     vdW  Elec       q    Type
REMARK                         _______ _______ _______ _____ _____    ______ ____
ROOT
ATOM      1  C   UNL     1      -3.968   1.965   3.122  0.00  0.00    +0.000 C 
ATOM      2  O   UNL     1      -3.924   3.155   3.425  0.00  0.00    +0.000 OA
ENDROOT
BRANCH   1   3
ATOM      3  C   UNL     1      -4.704   1.042   4.008  0.00  0.00    +0.000 A 
ATOM      4  C   UNL     1      -4.264   0.940   5.334  0.00  0.00    +0.000 A 
ATOM      5  C   UNL     1      -4.912   0.077   6.218  0.00  0.00    +0.000 A 
ATOM      6  C   UNL     1      -6.004  -0.674   5.783  0.00  0.00    +0.000 A 
ATOM      7  C   UNL     1      -6.456  -0.557   4.466  0.00  0.00    +0.000 A 
ATOM      8  C   UNL     1      -5.810   0.305   3.575  0.00  0.00    +0.000 A 
ATOM      9 CL   UNL     1      -6.454   0.445   1.979  0.00  0.00    +0.000 Cl
ENDBRANCH   1   3
BRANCH   1  10
ATOM     10  C   UNL     1      -3.242   1.371   1.931  0.00  0.00    +0.000 C 
BRANCH  10  11
ATOM     11  S   UNL     1      -1.449   1.374   2.247  0.00  0.00    +0.000 S 
BRANCH  11  15
ATOM     12  C   UNL     1       1.086  -0.521   0.116  0.00  0.00    +0.000 C 
ATOM     13  C   UNL     1      -0.127  -1.067  -0.616  0.00  0.00    +0.000 C 
ATOM     14  C   UNL     1      -1.286  -0.540   0.216  0.00  0.00    +0.000 C 
ATOM     15  C   UNL     1      -0.860   0.882   0.593  0.00  0.00    +0.000 C 
ATOM     16  C   UNL     1       0.676   0.895   0.509  0.00  0.00    +0.000 C 
ENDBRANCH  11  15
ENDBRANCH  10  11
ENDBRANCH   1  10
TORSDOF 4
