REMARK  Name = *****
REMARK  3 active torsions:
REMARK  status: ('A' for Active; 'I' for Inactive)
REMARK    1  A    between atoms: C_6  and  O_7
REMARK    2  A    between atoms: O_7  and  C_8
REMARK    3  A    between atoms: C_8  and  C_10
REMARK                            x       y       z     vdW  Elec       q    Type
REMARK                         _______ _______ _______ _____ _____    ______ ____
ROOT
ATOM      1  O   UNL     1      -1.657   1.535  -1.109  0.00  0.00    +0.000 OA
ENDROOT
BRANCH   1   7
ATOM      2  C   UNL     1       0.147   1.355   0.527  0.00  0.00    +0.000 C 
ATOM      3  C   UNL     1       1.208   0.663  -0.333  0.00  0.00    +0.000 C 
ATOM      4  C   UNL     1       1.118  -0.858  -0.200  0.00  0.00    +0.000 C 
ATOM      5  C   UNL     1      -0.293  -1.365  -0.238  0.00  0.00    +0.000 C 
ATOM      6  C   UNL     1      -1.366  -0.567  -0.111  0.00  0.00    +0.000 C 
ATOM      7  C   UNL     1      -1.274   0.917   0.130  0.00  0.00    +0.000 C 
ATOM      8  F   UNL     1       1.681  -1.215   0.988  0.00  0.00    +0.000 F 
ENDBRANCH   1   7
BRANCH   1   9
ATOM      9  C   UNL     1      -2.152   2.793  -1.011  0.00  0.00    +0.000 C 
ATOM     10  O   UNL     1      -2.292   3.429   0.021  0.00  0.00    +0.000 OA
BRANCH   9  11
ATOM     11  C   UNL     1      -2.510   3.318  -2.356  0.00  0.00    +0.000 A 
ATOM     12  C   UNL     1      -3.052   4.608  -2.440  0.00  0.00    +0.000 A 
ATOM     13  C   UNL     1      -3.403   5.147  -3.679  0.00  0.00    +0.000 A 
ATOM     14  C   UNL     1      -3.214   4.401  -4.842  0.00  0.00    +0.000 A 
ATOM     15  C   UNL     1      -2.675   3.117  -4.768  0.00  0.00    +0.000 A 
ATOM     16  C   UNL     1      -2.323   2.574  -3.530  0.00  0.00    +0.000 A 
ENDBRANCH   9  11
ENDBRANCH   1   9
TORSDOF 3
