REMARK  Name = *****
REMARK  5 active torsions:
REMARK  status: ('A' for Active; 'I' for Inactive)
REMARK    1  A    between atoms: C_2  and  C_3
REMARK    2  A    between atoms: C_6  and  O_9
REMARK    3  A    between atoms: O_9  and  C_10
REMARK    4  A    between atoms: C_10  and  O_12
REMARK    5  A    between atoms: O_12  and  C_13
REMARK                            x       y       z     vdW  Elec       q    Type
REMARK                         _______ _______ _______ _____ _____    ______ ____
ROOT
ATOM      1  O   UNL     1       4.548   2.501   4.393  0.00  0.00    +0.000 OA
ENDROOT
BRANCH   1   5
ATOM      2  C   UNL     1       3.213   0.422   1.005  0.00  0.00    +0.000 A 
ATOM      3  C   UNL     1       2.321   0.703   2.051  0.00  0.00    +0.000 A 
ATOM      4  C   UNL     1       2.750   1.387   3.191  0.00  0.00    +0.000 A 
ATOM      5  C   UNL     1       4.087   1.765   3.296  0.00  0.00    +0.000 A 
ATOM      6  C   UNL     1       4.989   1.502   2.269  0.00  0.00    +0.000 A 
ATOM      7  C   UNL     1       4.552   0.820   1.130  0.00  0.00    +0.000 A 
BRANCH   2   9
ATOM      8  C   UNL     1       3.143  -0.132  -1.418  0.00  0.00    +0.000 C 
ATOM      9  C   UNL     1       2.722  -0.325  -0.161  0.00  0.00    +0.000 C 
ENDBRANCH   2   9
ENDBRANCH   1   5
BRANCH   1  10
ATOM     10  C   UNL     1       4.487   1.854   5.621  0.00  0.00    +0.000 C 
ATOM     11  O   UNL     1       4.096   0.711   5.819  0.00  0.00    +0.000 OA
BRANCH  10  12
ATOM     12  O   UNL     1       4.951   2.746   6.577  0.00  0.00    +0.000 OA
BRANCH  12  13
ATOM     13  C   UNL     1       4.923   2.227   7.872  0.00  0.00    +0.000 A 
ATOM     14  C   UNL     1       6.043   1.559   8.365  0.00  0.00    +0.000 A 
ATOM     15  C   UNL     1       6.028   1.086   9.676  0.00  0.00    +0.000 A 
ATOM     16  C   UNL     1       4.907   1.297  10.483  0.00  0.00    +0.000 A 
ATOM     17  C   UNL     1       3.800   1.987   9.984  0.00  0.00    +0.000 A 
ATOM     18  C   UNL     1       3.808   2.463   8.673  0.00  0.00    +0.000 A 
ENDBRANCH  12  13
ENDBRANCH  10  12
ENDBRANCH   1  10
TORSDOF 5
