REMARK  Name = *****
REMARK  4 active torsions:
REMARK  status: ('A' for Active; 'I' for Inactive)
REMARK    1  A    between atoms: C_1  and  O_2
REMARK    2  A    between atoms: O_2  and  C_3
REMARK    3  A    between atoms: C_6  and  C_9
REMARK    4  A    between atoms: C_10  and  C_11
REMARK                            x       y       z     vdW  Elec       q    Type
REMARK                         _______ _______ _______ _____ _____    ______ ____
ROOT
ATOM      1  C   UNL     1       5.116   2.006  -4.629  0.00  0.00    +0.000 C 
ATOM      2  C   UNL     1       4.761   3.110  -5.306  0.00  0.00    +0.000 C 
ENDROOT
BRANCH   2   3
ATOM      3  C   UNL     1       5.446   3.586  -6.517  0.00  0.00    +0.000 A 
ATOM      4  C   UNL     1       5.947   2.711  -7.487  0.00  0.00    +0.000 A 
ATOM      5  C   UNL     1       6.559   3.216  -8.630  0.00  0.00    +0.000 A 
ATOM      6  C   UNL     1       6.676   4.585  -8.839  0.00  0.00    +0.000 A 
ATOM      7  C   UNL     1       6.167   5.467  -7.889  0.00  0.00    +0.000 A 
ATOM      8  C   UNL     1       5.550   4.968  -6.737  0.00  0.00    +0.000 A 
ATOM      9  F   UNL     1       7.040   2.368  -9.549  0.00  0.00    +0.000 F 
ENDBRANCH   2   3
BRANCH   1  13
ATOM     10  C   UNL     1       3.205   0.568  -1.067  0.00  0.00    +0.000 A 
ATOM     11  C   UNL     1       2.438   1.138  -2.081  0.00  0.00    +0.000 A 
ATOM     12  C   UNL     1       3.052   1.618  -3.246  0.00  0.00    +0.000 A 
ATOM     13  C   UNL     1       4.441   1.544  -3.408  0.00  0.00    +0.000 A 
ATOM     14  C   UNL     1       5.202   0.954  -2.394  0.00  0.00    +0.000 A 
ATOM     15  C   UNL     1       4.588   0.476  -1.232  0.00  0.00    +0.000 A 
BRANCH  10  17
ATOM     16  C   UNL     1       1.333   0.144   0.334  0.00  0.00    +0.000 C 
ATOM     17  O   UNL     1       2.735   0.063   0.114  0.00  0.00    +0.000 OA
ENDBRANCH  10  17
ENDBRANCH   1  13
TORSDOF 3
