REMARK  Name = *****
REMARK  4 active torsions:
REMARK  status: ('A' for Active; 'I' for Inactive)
REMARK    1  A    between atoms: C_1  and  N_2
REMARK    2  A    between atoms: N_2  and  C_3
REMARK    3  A    between atoms: N_2  and  P_9
REMARK    4  A    between atoms: P_9  and  C_11
REMARK                            x       y       z     vdW  Elec       q    Type
REMARK                         _______ _______ _______ _____ _____    ______ ____
ROOT
ATOM      1  P   UNL     1       3.307  -1.178   0.837  0.00  0.00    +0.000 P 
ATOM      2  O   UNL     1       2.735  -1.578   2.181  0.00  0.00    +0.000 OA
ATOM      3 CL   UNL     1       5.209  -0.607   1.260  0.00  0.00    +0.000 Cl
ENDROOT
BRANCH   1   4
ATOM      4  C   UNL     1       3.581  -2.615  -0.205  0.00  0.00    +0.000 A 
ATOM      5  C   UNL     1       4.390  -3.675   0.237  0.00  0.00    +0.000 A 
ATOM      6  C   UNL     1       4.591  -4.802  -0.561  0.00  0.00    +0.000 A 
ATOM      7  C   UNL     1       3.975  -4.891  -1.808  0.00  0.00    +0.000 A 
ATOM      8  C   UNL     1       3.152  -3.859  -2.253  0.00  0.00    +0.000 A 
ATOM      9  C   UNL     1       2.950  -2.732  -1.454  0.00  0.00    +0.000 A 
ENDBRANCH   1   4
BRANCH   1  11
ATOM     10  C   UNL     1       1.249   0.398   0.642  0.00  0.00    +0.000 C 
ATOM     11  N   UNL     1       2.544   0.080   0.057  0.00  0.00    +0.000 N 
BRANCH  11  12
ATOM     12  C   UNL     1       3.099   0.964  -0.886  0.00  0.00    +0.000 A 
ATOM     13  C   UNL     1       2.591   2.260  -1.092  0.00  0.00    +0.000 A 
ATOM     14  C   UNL     1       3.144   3.135  -2.036  0.00  0.00    +0.000 A 
ATOM     15  C   UNL     1       4.228   2.735  -2.806  0.00  0.00    +0.000 A 
ATOM     16  C   UNL     1       4.755   1.464  -2.628  0.00  0.00    +0.000 A 
ATOM     17  C   UNL     1       4.197   0.595  -1.681  0.00  0.00    +0.000 A 
ENDBRANCH  11  12
ENDBRANCH   1  11
TORSDOF 3
