REMARK  Name = *****
REMARK  4 active torsions:
REMARK  status: ('A' for Active; 'I' for Inactive)
REMARK    1  A    between atoms: C_1  and  C_2
REMARK    2  A    between atoms: C_5  and  C_8
REMARK    3  A    between atoms: C_8  and  O_10
REMARK    4  A    between atoms: O_10  and  C_11
REMARK                            x       y       z     vdW  Elec       q    Type
REMARK                         _______ _______ _______ _____ _____    ______ ____
ROOT
ATOM      1  C   UNL     1      -2.841  -1.535  -0.894  0.00  0.00    +0.000 C 
ATOM      2  O   UNL     1      -2.812  -2.752  -0.791  0.00  0.00    +0.000 OA
ENDROOT
BRANCH   1   7
ATOM      3  C   UNL     1       1.682   1.710   0.742  0.00  0.00    +0.000 C 
ATOM      4  C   UNL     1       0.510   0.895   0.286  0.00  0.00    +0.000 A 
ATOM      5  C   UNL     1       0.531  -0.497   0.404  0.00  0.00    +0.000 A 
ATOM      6  C   UNL     1      -0.555  -1.275   0.017  0.00  0.00    +0.000 A 
ATOM      7  C   UNL     1      -1.704  -0.661  -0.494  0.00  0.00    +0.000 A 
ATOM      8  C   UNL     1      -1.744   0.737  -0.605  0.00  0.00    +0.000 A 
ATOM      9  C   UNL     1      -0.645   1.509  -0.212  0.00  0.00    +0.000 A 
ATOM     10  F   UNL     1       1.617  -1.106   0.900  0.00  0.00    +0.000 F 
ENDBRANCH   1   7
BRANCH   1  11
ATOM     11  O   UNL     1      -3.879  -0.757  -1.374  0.00  0.00    +0.000 OA
BRANCH  11  12
ATOM     12  C   UNL     1      -5.015  -1.452  -1.809  0.00  0.00    +0.000 A 
ATOM     13  C   UNL     1      -4.955  -2.340  -2.882  0.00  0.00    +0.000 A 
ATOM     14  C   UNL     1      -6.124  -2.961  -3.319  0.00  0.00    +0.000 A 
ATOM     15  C   UNL     1      -7.342  -2.678  -2.695  0.00  0.00    +0.000 A 
ATOM     16  C   UNL     1      -7.394  -1.770  -1.636  0.00  0.00    +0.000 A 
ATOM     17  C   UNL     1      -6.228  -1.147  -1.193  0.00  0.00    +0.000 A 
ENDBRANCH  11  12
ENDBRANCH   1  11
TORSDOF 3
