REMARK  Name = *****
REMARK  3 active torsions:
REMARK  status: ('A' for Active; 'I' for Inactive)
REMARK    1  A    between atoms: C_4  and  C_7
REMARK    2  A    between atoms: C_8  and  S_10
REMARK    3  A    between atoms: S_10  and  C_11
REMARK                            x       y       z     vdW  Elec       q    Type
REMARK                         _______ _______ _______ _____ _____    ______ ____
ROOT
ATOM      1  C   UNL     1      -2.454   0.477   0.380  0.00  0.00    +0.000 C 
ATOM      2  C   UNL     1      -3.574   0.307   1.387  0.00  0.00    +0.000 C 
ATOM      3  O   UNL     1      -3.593  -0.365   0.122  0.00  0.00    +0.000 OA
ENDROOT
BRANCH   1   7
ATOM      4  C   UNL     1      -1.933   4.041  -2.032  0.00  0.00    +0.000 A 
ATOM      5  C   UNL     1      -1.572   4.045  -0.688  0.00  0.00    +0.000 A 
ATOM      6  C   UNL     1      -1.747   2.895   0.086  0.00  0.00    +0.000 A 
ATOM      7  C   UNL     1      -2.290   1.719  -0.460  0.00  0.00    +0.000 A 
ATOM      8  C   UNL     1      -2.641   1.741  -1.820  0.00  0.00    +0.000 A 
ATOM      9  C   UNL     1      -2.468   2.888  -2.600  0.00  0.00    +0.000 A 
ENDBRANCH   1   7
BRANCH   2  10
ATOM     10  S   UNL     1      -4.836   1.476   1.627  0.00  0.00    +0.000 S 
BRANCH  10  11
ATOM     11  C   UNL     1      -6.075   0.407   2.336  0.00  0.00    +0.000 A 
ATOM     12  C   UNL     1      -6.491   0.614   3.655  0.00  0.00    +0.000 A 
ATOM     13  C   UNL     1      -7.465  -0.209   4.225  0.00  0.00    +0.000 A 
ATOM     14  C   UNL     1      -8.031  -1.240   3.476  0.00  0.00    +0.000 A 
ATOM     15  C   UNL     1      -7.629  -1.446   2.158  0.00  0.00    +0.000 A 
ATOM     16  C   UNL     1      -6.656  -0.622   1.588  0.00  0.00    +0.000 A 
ENDBRANCH  10  11
ENDBRANCH   2  10
TORSDOF 3
