REMARK  Name = *****
REMARK  5 active torsions:
REMARK  status: ('A' for Active; 'I' for Inactive)
REMARK    1  A    between atoms: C_1  and  C_2
REMARK    2  A    between atoms: C_2  and  C_3
REMARK    3  A    between atoms: C_2  and  C_4
REMARK    4  A    between atoms: C_2  and  C_11
REMARK    5  A    between atoms: C_4  and  C_5
REMARK                            x       y       z     vdW  Elec       q    Type
REMARK                         _______ _______ _______ _____ _____    ______ ____
ROOT
ATOM      1  C   UNL     1       0.766  -0.233  -0.067  0.00  0.00    +0.000 C 
ATOM      2  C   UNL     1       2.307  -0.128  -0.091  0.00  0.00    +0.000 C 
ATOM      3  C   UNL     1       2.781  -0.337  -1.549  0.00  0.00    +0.000 C 
ENDROOT
BRANCH   2   4
ATOM      4  C   UNL     1       2.973  -1.224   0.821  0.00  0.00    +0.000 C 
ATOM      5  C   UNL     1       2.633  -2.660   0.473  0.00  0.00    +0.000 C 
ATOM      6  C   UNL     1       2.108  -3.286   1.539  0.00  0.00    +0.000 C 
ATOM      7  C   UNL     1       2.064  -2.377   2.652  0.00  0.00    +0.000 C 
ATOM      8  C   UNL     1       2.561  -1.189   2.280  0.00  0.00    +0.000 C 
ENDBRANCH   2   4
BRANCH   2   9
ATOM      9  C   UNL     1       2.770   1.276   0.424  0.00  0.00    +0.000 C 
BRANCH   9  10
ATOM     10  C   UNL     1       2.345   2.490  -0.374  0.00  0.00    +0.000 A 
ATOM     11  C   UNL     1       1.127   3.130  -0.107  0.00  0.00    +0.000 A 
ATOM     12  C   UNL     1       0.739   4.254  -0.838  0.00  0.00    +0.000 A 
ATOM     13  C   UNL     1       1.567   4.754  -1.841  0.00  0.00    +0.000 A 
ATOM     14  C   UNL     1       2.784   4.133  -2.111  0.00  0.00    +0.000 A 
ATOM     15  C   UNL     1       3.173   3.009  -1.380  0.00  0.00    +0.000 A 
ENDBRANCH   9  10
ENDBRANCH   2   9
TORSDOF 3
