REMARK  Name = *****
REMARK  3 active torsions:
REMARK  status: ('A' for Active; 'I' for Inactive)
REMARK    1  A    between atoms: C_4  and  C_6
REMARK    2  A    between atoms: C_6  and  S_7
REMARK    3  A    between atoms: S_7  and  C_8
REMARK                            x       y       z     vdW  Elec       q    Type
REMARK                         _______ _______ _______ _____ _____    ______ ____
ROOT
ATOM      1  S   UNL     1      -3.126   0.958   1.960  0.00  0.00    +0.000 S 
ENDROOT
BRANCH   1   2
ATOM      2  C   UNL     1      -3.430   1.691   3.503  0.00  0.00    +0.000 A 
ATOM      3  C   UNL     1      -3.804   0.932   4.540  0.00  0.00    +0.000 A 
ATOM      4  C   UNL     1      -4.068   1.623   5.817  0.00  0.00    +0.000 A 
ATOM      5  S   UNL     1      -4.568   0.870   7.222  0.00  0.00    +0.000 S 
ATOM      6  S   UNL     1      -3.770   3.349   5.712  0.00  0.00    +0.000 S 
ATOM      7  S   UNL     1      -3.335   3.409   3.720  0.00  0.00    +0.000 S 
ENDBRANCH   1   2
BRANCH   1   8
ATOM      8  C   UNL     1      -1.363   1.365   1.738  0.00  0.00    +0.000 C 
BRANCH   8  12
ATOM      9  C   UNL     1       1.196  -0.031  -0.678  0.00  0.00    +0.000 C 
ATOM     10  C   UNL     1       0.329  -1.265  -0.431  0.00  0.00    +0.000 C 
ATOM     11  C   UNL     1      -0.698  -0.861   0.623  0.00  0.00    +0.000 C 
ATOM     12  C   UNL     1      -0.779   0.662   0.512  0.00  0.00    +0.000 C 
ATOM     13  C   UNL     1       0.685   1.038   0.280  0.00  0.00    +0.000 C 
ENDBRANCH   8  12
ENDBRANCH   1   8
TORSDOF 3
