REMARK  Name = *****
REMARK  5 active torsions:
REMARK  status: ('A' for Active; 'I' for Inactive)
REMARK    1  A    between atoms: C_1  and  O_2
REMARK    2  A    between atoms: O_2  and  C_3
REMARK    3  A    between atoms: C_6  and  C_9
REMARK    4  A    between atoms: C_9  and  C_10
REMARK    5  A    between atoms: C_10  and  C_11
REMARK                            x       y       z     vdW  Elec       q    Type
REMARK                         _______ _______ _______ _____ _____    ______ ____
ROOT
ATOM      1  C   UNL     1       5.175  -4.873   0.053  0.00  0.00    +0.000 C 
ENDROOT
BRANCH   1   5
ATOM      2  C   UNL     1       3.734  -0.790   0.058  0.00  0.00    +0.000 A 
ATOM      3  C   UNL     1       2.937  -1.817   0.561  0.00  0.00    +0.000 A 
ATOM      4  C   UNL     1       3.404  -3.136   0.560  0.00  0.00    +0.000 A 
ATOM      5  C   UNL     1       4.675  -3.445   0.058  0.00  0.00    +0.000 A 
ATOM      6  C   UNL     1       5.469  -2.411  -0.450  0.00  0.00    +0.000 A 
ATOM      7  C   UNL     1       5.000  -1.095  -0.446  0.00  0.00    +0.000 A 
BRANCH   2   9
ATOM      8  C   UNL     1       2.102   0.890   0.460  0.00  0.00    +0.000 C 
ATOM      9  O   UNL     1       3.400   0.535   0.001  0.00  0.00    +0.000 OA
ENDBRANCH   2   9
ENDBRANCH   1   5
BRANCH   1  10
ATOM     10  C   UNL     1       4.618  -5.725  -1.101  0.00  0.00    +0.000 C 
ATOM     11  F   UNL     1       3.255  -5.759  -1.010  0.00  0.00    +0.000 F 
ATOM     12  F   UNL     1       4.891  -5.101  -2.285  0.00  0.00    +0.000 F 
BRANCH  10  13
ATOM     13  C   UNL     1       5.211  -7.121  -1.056  0.00  0.00    +0.000 A 
ATOM     14  C   UNL     1       4.608  -8.128  -0.285  0.00  0.00    +0.000 A 
ATOM     15  C   UNL     1       5.167  -9.405  -0.227  0.00  0.00    +0.000 A 
ATOM     16  C   UNL     1       6.331  -9.691  -0.939  0.00  0.00    +0.000 A 
ATOM     17  C   UNL     1       6.937  -8.701  -1.711  0.00  0.00    +0.000 A 
ATOM     18  C   UNL     1       6.381  -7.423  -1.770  0.00  0.00    +0.000 A 
ENDBRANCH  10  13
ENDBRANCH   1  10
TORSDOF 4
