REMARK  Name = *****
REMARK  4 active torsions:
REMARK  status: ('A' for Active; 'I' for Inactive)
REMARK    1  A    between atoms: C_4  and  S_7
REMARK    2  A    between atoms: S_7  and  C_8
REMARK    3  A    between atoms: C_9  and  S_10
REMARK    4  A    between atoms: S_10  and  C_12
REMARK                            x       y       z     vdW  Elec       q    Type
REMARK                         _______ _______ _______ _____ _____    ______ ____
ROOT
ATOM      1  C   UNL     1      -3.894  -0.526  -0.240  0.00  0.00    +0.000 C 
ATOM      2  C   UNL     1      -5.203  -0.815  -0.274  0.00  0.00    +0.000 C 
ENDROOT
BRANCH   2   3
ATOM      3  S   UNL     1      -6.457   0.411  -0.615  0.00  0.00    +0.000 S 
ATOM      4  O   UNL     1      -7.503  -0.335  -1.392  0.00  0.00    +0.000 OA
BRANCH   3   5
ATOM      5  C   UNL     1      -7.138   0.578   1.058  0.00  0.00    +0.000 A 
ATOM      6  C   UNL     1      -6.423   1.288   2.031  0.00  0.00    +0.000 A 
ATOM      7  C   UNL     1      -6.938   1.426   3.322  0.00  0.00    +0.000 A 
ATOM      8  C   UNL     1      -8.171   0.860   3.646  0.00  0.00    +0.000 A 
ATOM      9  C   UNL     1      -8.891   0.159   2.680  0.00  0.00    +0.000 A 
ATOM     10  C   UNL     1      -8.378   0.020   1.389  0.00  0.00    +0.000 A 
ENDBRANCH   3   5
ENDBRANCH   2   3
BRANCH   1  11
ATOM     11  S   UNL     1      -3.193   1.039  -0.492  0.00  0.00    +0.000 S 
BRANCH  11  15
ATOM     12  C   UNL     1       1.181  -0.171  -1.122  0.00  0.00    +0.000 A 
ATOM     13  C   UNL     1       0.242  -0.416  -2.123  0.00  0.00    +0.000 A 
ATOM     14  C   UNL     1      -1.092  -0.048  -1.935  0.00  0.00    +0.000 A 
ATOM     15  C   UNL     1      -1.494   0.560  -0.740  0.00  0.00    +0.000 A 
ATOM     16  C   UNL     1      -0.546   0.811   0.257  0.00  0.00    +0.000 A 
ATOM     17  C   UNL     1       0.788   0.444   0.066  0.00  0.00    +0.000 A 
ENDBRANCH  11  15
ENDBRANCH   1  11
TORSDOF 4
