REMARK  Name = *****
REMARK  5 active torsions:
REMARK  status: ('A' for Active; 'I' for Inactive)
REMARK    1  A    between atoms: C_1  and  C_2
REMARK    2  A    between atoms: C_4  and  C_19
REMARK    3  A    between atoms: C_6  and  O_8
REMARK    4  A    between atoms: O_8  and  C_9
REMARK    5  A    between atoms: C_9  and  C_11
REMARK                            x       y       z     vdW  Elec       q    Type
REMARK                         _______ _______ _______ _____ _____    ______ ____
ROOT
ATOM      1  C   UNL     1       0.239  -3.279   1.990  0.00  0.00    +0.000 C 
ATOM      2  O   UNL     1       1.147  -2.732   2.601  0.00  0.00    +0.000 OA
ENDROOT
BRANCH   1   3
ATOM      3  C   UNL     1      -0.592  -4.335   2.614  0.00  0.00    +0.000 A 
ATOM      4  C   UNL     1      -1.849  -4.707   2.126  0.00  0.00    +0.000 A 
ATOM      5  C   UNL     1      -2.634  -5.633   2.808  0.00  0.00    +0.000 A 
ATOM      6  C   UNL     1      -2.161  -6.186   3.991  0.00  0.00    +0.000 A 
ATOM      7  C   UNL     1      -0.915  -5.834   4.498  0.00  0.00    +0.000 A 
ATOM      8  C   UNL     1      -0.129  -4.906   3.812  0.00  0.00    +0.000 A 
ATOM      9  F   UNL     1      -2.921  -7.060   4.660  0.00  0.00    +0.000 F 
ATOM     10  F   UNL     1      -2.361  -4.163   1.013  0.00  0.00    +0.000 F 
ENDBRANCH   1   3
BRANCH   1  11
ATOM     11  O   UNL     1      -0.154  -3.040   0.691  0.00  0.00    +0.000 OA
BRANCH  11  17
ATOM     12  C   UNL     1       2.495   1.064  -0.095  0.00  0.00    +0.000 C 
ATOM     13  C   UNL     1       1.182   0.343  -0.019  0.00  0.00    +0.000 A 
ATOM     14  C   UNL     1      -0.032   1.038  -0.150  0.00  0.00    +0.000 A 
ATOM     15  C   UNL     1      -1.261   0.371  -0.044  0.00  0.00    +0.000 A 
ATOM     16  C   UNL     1      -1.267  -1.003   0.204  0.00  0.00    +0.000 A 
ATOM     17  C   UNL     1      -0.062  -1.685   0.368  0.00  0.00    +0.000 A 
ATOM     18  C   UNL     1       1.161  -1.036   0.219  0.00  0.00    +0.000 A 
ATOM     19  C   UNL     1      -2.561   1.106  -0.174  0.00  0.00    +0.000 C 
ENDBRANCH  11  17
ENDBRANCH   1  11
TORSDOF 3
