REMARK  Name = *****
REMARK  5 active torsions:
REMARK  status: ('A' for Active; 'I' for Inactive)
REMARK    1  A    between atoms: C_1  and  C_2
REMARK    2  A    between atoms: C_8  and  C_9
REMARK    3  A    between atoms: C_8  and  C_10
REMARK    4  A    between atoms: C_10  and  C_11
REMARK    5  A    between atoms: C_11  and  C_12
REMARK                            x       y       z     vdW  Elec       q    Type
REMARK                         _______ _______ _______ _____ _____    ______ ____
ROOT
ATOM      1  C   UNL     1       3.071   0.575   1.255  0.00  0.00    +0.000 C 
ATOM      2  C   UNL     1       2.556   0.064  -0.101  0.00  0.00    +0.000 C 
ATOM      3  C   UNL     1       2.920   1.120  -1.173  0.00  0.00    +0.000 C 
ATOM      4  C   UNL     1       2.446   0.733  -2.569  0.00  0.00    +0.000 C 
ATOM      5  C   UNL     1       2.914  -0.661  -2.962  0.00  0.00    +0.000 C 
ATOM      6  C   UNL     1       2.482  -1.664  -1.912  0.00  0.00    +0.000 C 
ATOM      7  C   UNL     1       1.614  -2.629  -2.267  0.00  0.00    +0.000 C 
ATOM      8  C   UNL     1       3.025  -1.397  -0.484  0.00  0.00    +0.000 C 
ATOM      9  C   UNL     1       4.571  -1.497  -0.501  0.00  0.00    +0.000 C 
ENDROOT
BRANCH   8  10
ATOM     10  C   UNL     1       2.484  -2.409   0.586  0.00  0.00    +0.000 C 
BRANCH  10  11
ATOM     11  C   UNL     1       3.041  -3.843   0.506  0.00  0.00    +0.000 C 
BRANCH  11  12
ATOM     12  C   UNL     1       2.312  -4.776   1.417  0.00  0.00    +0.000 A 
ATOM     13  C   UNL     1       1.221  -5.563   1.108  0.00  0.00    +0.000 A 
ATOM     14  O   UNL     1       0.823  -6.283   2.187  0.00  0.00    +0.000 OA
ATOM     15  C   UNL     1       1.661  -5.963   3.205  0.00  0.00    +0.000 A 
ATOM     16  C   UNL     1       2.594  -5.043   2.787  0.00  0.00    +0.000 A 
ENDBRANCH  11  12
ENDBRANCH  10  11
ENDBRANCH   8  10
TORSDOF 3
