REMARK  Name = *****
REMARK  3 active torsions:
REMARK  status: ('A' for Active; 'I' for Inactive)
REMARK    1  A    between atoms: C_1  and  N_2
REMARK    2  A    between atoms: N_2  and  C_3
REMARK    3  A    between atoms: C_10  and  C_12
REMARK                            x       y       z     vdW  Elec       q    Type
REMARK                         _______ _______ _______ _____ _____    ______ ____
ROOT
ATOM      1  C   UNL     1       3.336   0.997   0.841  0.00  0.00    +0.000 C 
ATOM      2  N   UNL     1       2.639  -0.020   0.058  0.00  0.00    +0.000 N 
ATOM      3  C   UNL     1       3.304  -0.924  -0.785  0.00  0.00    +0.000 C 
ATOM      4  O   UNL     1       2.714  -1.720  -1.521  0.00  0.00    +0.000 OA
ENDROOT
BRANCH   2   5
ATOM      5  C   UNL     1       1.205  -0.071   0.162  0.00  0.00    +0.000 A 
ATOM      6  C   UNL     1       0.606  -1.323   0.397  0.00  0.00    +0.000 A 
ATOM      7  C   UNL     1      -0.773  -1.451   0.583  0.00  0.00    +0.000 A 
ATOM      8  C   UNL     1      -1.587  -0.326   0.533  0.00  0.00    +0.000 A 
ATOM      9  C   UNL     1      -1.023   0.922   0.279  0.00  0.00    +0.000 A 
ATOM     10  C   UNL     1       0.361   1.056   0.088  0.00  0.00    +0.000 A 
ATOM     11 BR   UNL     1       0.952   2.790  -0.436  0.00  0.00    +0.000 Br
ENDBRANCH   2   5
BRANCH   3  12
ATOM     12  C   UNL     1       4.839  -0.928  -0.747  0.00  0.00    +0.000 C 
ATOM     13  C   UNL     1       5.419  -1.399  -2.091  0.00  0.00    +0.000 C 
ATOM     14  C   UNL     1       6.945  -1.458  -2.051  0.00  0.00    +0.000 C 
ATOM     15  C   UNL     1       7.440  -2.342  -0.911  0.00  0.00    +0.000 C 
ATOM     16  C   UNL     1       6.851  -1.915   0.431  0.00  0.00    +0.000 C 
ATOM     17  C   UNL     1       5.326  -1.847   0.383  0.00  0.00    +0.000 C 
ENDBRANCH   3  12
TORSDOF 2
