REMARK  Name = *****
REMARK  1 active torsions:
REMARK  status: ('A' for Active; 'I' for Inactive)
REMARK    1  A    between atoms: C_2  and  C_11
REMARK                            x       y       z     vdW  Elec       q    Type
REMARK                         _______ _______ _______ _____ _____    ______ ____
ROOT
ATOM      1  C   UNL     1       0.794   1.216  -0.665  0.00  0.00    +0.000 C 
ATOM      2  C   UNL     1       1.537  -0.064  -0.312  0.00  0.00    +0.000 C 
ATOM      3  C   UNL     1       0.447  -0.064  -1.338  0.00  0.00    +0.000 C 
ATOM      4  C   UNL     1       0.579  -0.390  -2.798  0.00  0.00    +0.000 C 
ATOM      5  C   UNL     1      -0.775  -1.033  -2.641  0.00  0.00    +0.000 A 
ATOM      6  C   UNL     1      -1.787  -1.714  -3.270  0.00  0.00    +0.000 A 
ATOM      7  C   UNL     1      -2.897  -2.064  -2.492  0.00  0.00    +0.000 A 
ATOM      8  C   UNL     1      -2.960  -1.724  -1.123  0.00  0.00    +0.000 A 
ATOM      9  C   UNL     1      -1.916  -1.029  -0.508  0.00  0.00    +0.000 A 
ATOM     10  C   UNL     1      -0.847  -0.707  -1.302  0.00  0.00    +0.000 A 
ENDROOT
BRANCH   2  11
ATOM     11  C   UNL     1       1.356  -0.694   1.050  0.00  0.00    +0.000 A 
ATOM     12  C   UNL     1       1.115  -2.071   1.188  0.00  0.00    +0.000 A 
ATOM     13  C   UNL     1       0.964  -2.665   2.443  0.00  0.00    +0.000 A 
ATOM     14  C   UNL     1       1.062  -1.891   3.595  0.00  0.00    +0.000 A 
ATOM     15  C   UNL     1       1.315  -0.526   3.489  0.00  0.00    +0.000 A 
ATOM     16  C   UNL     1       1.464   0.061   2.230  0.00  0.00    +0.000 A 
ENDBRANCH   2  11
TORSDOF 1
