REMARK  Name = *****
REMARK  4 active torsions:
REMARK  status: ('A' for Active; 'I' for Inactive)
REMARK    1  A    between atoms: C_4  and  C_6
REMARK    2  A    between atoms: C_6  and  C_7
REMARK    3  A    between atoms: C_7  and  C_8
REMARK    4  A    between atoms: C_8  and  C_9
REMARK                            x       y       z     vdW  Elec       q    Type
REMARK                         _______ _______ _______ _____ _____    ______ ____
ROOT
ATOM      1  C   UNL     1       1.550  -3.187   0.601  0.00  0.00    +0.000 C 
ENDROOT
BRANCH   1   2
ATOM      2  C   UNL     1       0.290  -2.312   0.699  0.00  0.00    +0.000 C 
BRANCH   2   6
ATOM      3  C   UNL     1      -0.879   1.037   0.578  0.00  0.00    +0.000 C 
ATOM      4  C   UNL     1       0.427   1.479  -0.047  0.00  0.00    +0.000 C 
ATOM      5  S   UNL     1       1.515   0.035  -0.191  0.00  0.00    +0.000 S 
ATOM      6  C   UNL     1       0.213  -1.235  -0.395  0.00  0.00    +0.000 C 
ATOM      7  S   UNL     1      -1.422  -0.425  -0.335  0.00  0.00    +0.000 S 
ENDBRANCH   2   6
ENDBRANCH   1   2
BRANCH   1   8
ATOM      8  C   UNL     1       1.528  -4.305   1.654  0.00  0.00    +0.000 C 
BRANCH   8   9
ATOM      9  C   UNL     1       2.810  -5.153   1.665  0.00  0.00    +0.000 C 
ATOM     10  S   UNL     1       2.983  -6.142   0.135  0.00  0.00    +0.000 S 
ATOM     11  C   UNL     1       3.049  -7.781   0.911  0.00  0.00    +0.000 C 
ATOM     12  C   UNL     1       2.238  -7.742   2.188  0.00  0.00    +0.000 C 
ATOM     13  S   UNL     1       2.781  -6.279   3.101  0.00  0.00    +0.000 S 
ENDBRANCH   8   9
ENDBRANCH   1   8
TORSDOF 4
