REMARK  Name = *****
REMARK  6 active torsions:
REMARK  status: ('A' for Active; 'I' for Inactive)
REMARK    1  A    between atoms: C_1  and  N_2
REMARK    2  A    between atoms: N_2  and  C_3
REMARK    3  A    between atoms: N_2  and  C_12
REMARK    4  A    between atoms: C_3  and  N_4
REMARK    5  A    between atoms: N_4  and  C_5
REMARK    6  A    between atoms: C_5  and  C_6
REMARK                            x       y       z     vdW  Elec       q    Type
REMARK                         _______ _______ _______ _____ _____    ______ ____
ROOT
ATOM      1  C   UNL     1       2.680   0.001  -1.665  0.00  0.00    +0.000 C 
ENDROOT
BRANCH   1   3
ATOM      2  C   UNL     1       2.538  -1.163   0.490  0.00  0.00    +0.000 C 
ATOM      3  N   UNL     1       2.184  -0.037  -0.371  0.00  0.00    +0.000 N 
BRANCH   3   4
ATOM      4  C   UNL     1       1.196   0.853   0.124  0.00  0.00    +0.000 A 
ATOM      5  C   UNL     1       1.125   2.185  -0.319  0.00  0.00    +0.000 A 
ATOM      6  C   UNL     1       0.161   3.077   0.166  0.00  0.00    +0.000 A 
ATOM      7  C   UNL     1      -0.763   2.658   1.116  0.00  0.00    +0.000 A 
ATOM      8  C   UNL     1      -0.721   1.347   1.576  0.00  0.00    +0.000 A 
ATOM      9  C   UNL     1       0.246   0.460   1.087  0.00  0.00    +0.000 A 
ENDBRANCH   3   4
ENDBRANCH   1   3
BRANCH   1  10
ATOM     10  N   UNL     1       2.385   0.793  -2.637  0.00  0.00    +0.000 NA
BRANCH  10  11
ATOM     11  C   UNL     1       3.106   0.512  -3.886  0.00  0.00    +0.000 C 
BRANCH  11  12
ATOM     12  C   UNL     1       2.565  -0.676  -4.649  0.00  0.00    +0.000 A 
ATOM     13  C   UNL     1       1.183  -0.878  -4.773  0.00  0.00    +0.000 A 
ATOM     14  C   UNL     1       0.684  -1.960  -5.500  0.00  0.00    +0.000 A 
ATOM     15  C   UNL     1       1.562  -2.846  -6.120  0.00  0.00    +0.000 A 
ATOM     16  C   UNL     1       2.938  -2.650  -6.016  0.00  0.00    +0.000 A 
ATOM     17  C   UNL     1       3.438  -1.567  -5.289  0.00  0.00    +0.000 A 
ENDBRANCH  11  12
ENDBRANCH  10  11
ENDBRANCH   1  10
TORSDOF 5
