REMARK  Name = *****
REMARK  3 active torsions:
REMARK  status: ('A' for Active; 'I' for Inactive)
REMARK    1  A    between atoms: C_4  and  C_7
REMARK    2  A    between atoms: C_7  and  C_8
REMARK    3  A    between atoms: C_8  and  C_9
REMARK                            x       y       z     vdW  Elec       q    Type
REMARK                         _______ _______ _______ _____ _____    ______ ____
ROOT
ATOM      1  C   UNL     1      -3.691  -0.749   0.254  0.00  0.00    +0.000 C 
ATOM      2 BR   UNL     1      -5.303   0.268   0.744  0.00  0.00    +0.000 Br
ENDROOT
BRANCH   1   3
ATOM      3  C   UNL     1      -2.534   0.227   0.203  0.00  0.00    +0.000 A 
ATOM      4  C   UNL     1      -1.957   0.761   1.367  0.00  0.00    +0.000 A 
ATOM      5  C   UNL     1      -0.888   1.656   1.288  0.00  0.00    +0.000 A 
ATOM      6  C   UNL     1      -0.381   2.031   0.046  0.00  0.00    +0.000 A 
ATOM      7  C   UNL     1      -0.945   1.516  -1.118  0.00  0.00    +0.000 A 
ATOM      8  C   UNL     1      -2.015   0.622  -1.041  0.00  0.00    +0.000 A 
ENDBRANCH   1   3
BRANCH   1   9
ATOM      9  C   UNL     1      -3.475  -1.915   1.232  0.00  0.00    +0.000 C 
BRANCH   9  13
ATOM     10  C   UNL     1      -6.130  -5.244   0.515  0.00  0.00    +0.000 A 
ATOM     11  C   UNL     1      -5.016  -5.051  -0.299  0.00  0.00    +0.000 A 
ATOM     12  C   UNL     1      -4.156  -3.977  -0.066  0.00  0.00    +0.000 A 
ATOM     13  C   UNL     1      -4.403  -3.085   0.988  0.00  0.00    +0.000 A 
ATOM     14  C   UNL     1      -5.525  -3.289   1.802  0.00  0.00    +0.000 A 
ATOM     15  C   UNL     1      -6.384  -4.364   1.565  0.00  0.00    +0.000 A 
ENDBRANCH   9  13
ENDBRANCH   1   9
TORSDOF 3
