REMARK  Name = *****
REMARK  3 active torsions:
REMARK  status: ('A' for Active; 'I' for Inactive)
REMARK    1  A    between atoms: C_2  and  C_16
REMARK    2  A    between atoms: C_4  and  C_6
REMARK    3  A    between atoms: C_7  and  C_8
REMARK                            x       y       z     vdW  Elec       q    Type
REMARK                         _______ _______ _______ _____ _____    ______ ____
ROOT
ATOM      1  C   UNL     1      -0.613  -1.018   0.399  0.00  0.00    +0.000 C 
ATOM      2  C   UNL     1       0.871  -1.215   0.105  0.00  0.00    +0.000 C 
ATOM      3  C   UNL     1       1.358   0.237   0.141  0.00  0.00    +0.000 C 
ATOM      4  C   UNL     1       0.153   1.047  -0.404  0.00  0.00    +0.000 C 
ATOM      5  O   UNL     1      -1.009   0.195  -0.258  0.00  0.00    +0.000 OA
ATOM      6 CL   UNL     1       1.639   0.708   1.879  0.00  0.00    +0.000 Cl
ATOM      7 CL   UNL     1       2.912   0.524  -0.693  0.00  0.00    +0.000 Cl
ENDROOT
BRANCH   4   8
ATOM      8  C   UNL     1       0.179   1.451  -1.855  0.00  0.00    +0.000 C 
ATOM      9  C   UNL     1       0.387   2.711  -2.273  0.00  0.00    +0.000 C 
BRANCH   9  10
ATOM     10  C   UNL     1       0.409   3.096  -3.689  0.00  0.00    +0.000 A 
ATOM     11  C   UNL     1      -0.569   2.656  -4.590  0.00  0.00    +0.000 A 
ATOM     12  C   UNL     1      -0.535   3.061  -5.927  0.00  0.00    +0.000 A 
ATOM     13  C   UNL     1       0.472   3.915  -6.371  0.00  0.00    +0.000 A 
ATOM     14  C   UNL     1       1.442   4.370  -5.480  0.00  0.00    +0.000 A 
ATOM     15  C   UNL     1       1.407   3.967  -4.143  0.00  0.00    +0.000 A 
ENDBRANCH   9  10
ENDBRANCH   4   8
BRANCH   2  16
ATOM     16  C   UNL     1       1.079  -1.928  -1.236  0.00  0.00    +0.000 C 
ATOM     17 CL   UNL     1       0.554  -3.636  -1.143  0.00  0.00    +0.000 Cl
ENDBRANCH   2  16
TORSDOF 3
