REMARK  Name = *****
REMARK  4 active torsions:
REMARK  status: ('A' for Active; 'I' for Inactive)
REMARK    1  A    between atoms: C_1  and  C_2
REMARK    2  A    between atoms: C_3  and  C_16
REMARK    3  A    between atoms: C_7  and  C_8
REMARK    4  A    between atoms: C_8  and  C_10
REMARK                            x       y       z     vdW  Elec       q    Type
REMARK                         _______ _______ _______ _____ _____    ______ ____
ROOT
ATOM      1  C   UNL     1       1.321   0.351   0.644  0.00  0.00    +0.000 C 
ATOM      2  C   UNL     1       2.720   0.134   0.138  0.00  0.00    +0.000 C 
ATOM      3  C   UNL     1       3.203  -1.051  -0.299  0.00  0.00    +0.000 C 
ATOM      4  S   UNL     1       4.862  -1.068  -0.848  0.00  0.00    +0.000 S 
ATOM      5  S   UNL     1       5.056   0.962  -0.902  0.00  0.00    +0.000 S 
ATOM      6  C   UNL     1       3.641   1.281   0.067  0.00  0.00    +0.000 C 
ATOM      7  C   UNL     1       3.391   2.479   0.627  0.00  0.00    +0.000 C 
ATOM      8  C   UNL     1       2.489  -2.372  -0.312  0.00  0.00    +0.000 C 
ENDROOT
BRANCH   7   9
ATOM      9  C   UNL     1       4.291   3.666   0.598  0.00  0.00    +0.000 C 
ATOM     10  O   UNL     1       5.507   3.572   0.708  0.00  0.00    +0.000 OA
BRANCH   9  11
ATOM     11  C   UNL     1       3.646   5.008   0.549  0.00  0.00    +0.000 A 
ATOM     12  C   UNL     1       2.370   5.207   0.005  0.00  0.00    +0.000 A 
ATOM     13  C   UNL     1       1.810   6.487  -0.016  0.00  0.00    +0.000 A 
ATOM     14  C   UNL     1       2.521   7.571   0.498  0.00  0.00    +0.000 A 
ATOM     15  C   UNL     1       3.797   7.383   1.025  0.00  0.00    +0.000 A 
ATOM     16  C   UNL     1       4.361   6.106   1.047  0.00  0.00    +0.000 A 
ENDBRANCH   9  11
ENDBRANCH   7   9
TORSDOF 2
