REMARK  Name = *****
REMARK  5 active torsions:
REMARK  status: ('A' for Active; 'I' for Inactive)
REMARK    1  A    between atoms: C_1  and  C_2
REMARK    2  A    between atoms: C_4  and  C_16
REMARK    3  A    between atoms: C_6  and  C_8
REMARK    4  A    between atoms: C_8  and  O_10
REMARK    5  A    between atoms: O_10  and  C_11
REMARK                            x       y       z     vdW  Elec       q    Type
REMARK                         _______ _______ _______ _____ _____    ______ ____
ROOT
ATOM      1  C   UNL     1       2.456   1.029   0.448  0.00  0.00    +0.000 C 
ATOM      2  C   UNL     1       1.160   0.312   0.207  0.00  0.00    +0.000 A 
ATOM      3  C   UNL     1       1.143  -1.072  -0.007  0.00  0.00    +0.000 A 
ATOM      4  C   UNL     1      -0.057  -1.745  -0.274  0.00  0.00    +0.000 A 
ATOM      5  C   UNL     1      -1.255  -1.019  -0.311  0.00  0.00    +0.000 A 
ATOM      6  C   UNL     1      -1.253   0.369  -0.116  0.00  0.00    +0.000 A 
ATOM      7  C   UNL     1      -0.041   1.028   0.136  0.00  0.00    +0.000 A 
ATOM      8  C   UNL     1      -0.067  -3.235  -0.456  0.00  0.00    +0.000 C 
ENDROOT
BRANCH   6   9
ATOM      9  C   UNL     1      -2.498   1.184  -0.162  0.00  0.00    +0.000 C 
ATOM     10  O   UNL     1      -2.524   2.388   0.043  0.00  0.00    +0.000 OA
BRANCH   9  11
ATOM     11  O   UNL     1      -3.567   0.406  -0.462  0.00  0.00    +0.000 OA
BRANCH  11  12
ATOM     12  C   UNL     1      -4.820   1.087  -0.525  0.00  0.00    +0.000 C 
ATOM     13  C   UNL     1      -5.418   1.325   0.858  0.00  0.00    +0.000 C 
ATOM     14  C   UNL     1      -6.920   1.442   0.618  0.00  0.00    +0.000 C 
ATOM     15  C   UNL     1      -7.187   0.794  -0.741  0.00  0.00    +0.000 C 
ATOM     16  C   UNL     1      -5.862   0.184  -1.173  0.00  0.00    +0.000 C 
ENDBRANCH  11  12
ENDBRANCH   9  11
ENDBRANCH   6   9
TORSDOF 3
