REMARK  Name = *****
REMARK  4 active torsions:
REMARK  status: ('A' for Active; 'I' for Inactive)
REMARK    1  A    between atoms: C_4  and  O_7
REMARK    2  A    between atoms: O_7  and  C_8
REMARK    3  A    between atoms: C_8  and  S_10
REMARK    4  A    between atoms: S_10  and  C_11
REMARK                            x       y       z     vdW  Elec       q    Type
REMARK                         _______ _______ _______ _____ _____    ______ ____
ROOT
ATOM      1  C   UNL     1       3.590  -1.650   0.327  0.00  0.00    +0.000 C 
ATOM      2  O   UNL     1       3.236  -2.223   1.349  0.00  0.00    +0.000 OA
ENDROOT
BRANCH   1   3
ATOM      3  O   UNL     1       2.840  -0.729  -0.341  0.00  0.00    +0.000 OA
BRANCH   3   7
ATOM      4  C   UNL     1      -1.299   0.196  -0.352  0.00  0.00    +0.000 C 
ATOM      5  C   UNL     1      -0.887  -1.201   0.103  0.00  0.00    +0.000 C 
ATOM      6  C   UNL     1       0.546  -1.526  -0.306  0.00  0.00    +0.000 C 
ATOM      7  C   UNL     1       1.532  -0.466   0.195  0.00  0.00    +0.000 C 
ATOM      8  C   UNL     1       1.114   0.928  -0.278  0.00  0.00    +0.000 C 
ATOM      9  C   UNL     1      -0.317   1.259   0.133  0.00  0.00    +0.000 C 
ENDBRANCH   3   7
ENDBRANCH   1   3
BRANCH   1  10
ATOM     10  S   UNL     1       5.161  -1.991  -0.392  0.00  0.00    +0.000 S 
BRANCH  10  11
ATOM     11  C   UNL     1       4.657  -3.185  -1.616  0.00  0.00    +0.000 A 
ATOM     12  C   UNL     1       4.809  -2.890  -2.974  0.00  0.00    +0.000 A 
ATOM     13  C   UNL     1       4.422  -3.819  -3.943  0.00  0.00    +0.000 A 
ATOM     14  C   UNL     1       3.887  -5.047  -3.558  0.00  0.00    +0.000 A 
ATOM     15  C   UNL     1       3.742  -5.350  -2.206  0.00  0.00    +0.000 A 
ATOM     16  C   UNL     1       4.129  -4.423  -1.236  0.00  0.00    +0.000 A 
ENDBRANCH  10  11
ENDBRANCH   1  10
TORSDOF 4
