REMARK  Name = *****
REMARK  2 active torsions:
REMARK  status: ('A' for Active; 'I' for Inactive)
REMARK    1  A    between atoms: C_5  and  S_6
REMARK    2  A    between atoms: S_6  and  C_7
REMARK                            x       y       z     vdW  Elec       q    Type
REMARK                         _______ _______ _______ _____ _____    ______ ____
ROOT
ATOM      1  S   UNL     1       2.689  -1.920   1.245  0.00  0.00    +0.000 S 
ENDROOT
BRANCH   1   6
ATOM      2  C   UNL     1      -1.234   0.879  -0.211  0.00  0.00    +0.000 C 
ATOM      3  C   UNL     1      -1.465  -0.606  -0.440  0.00  0.00    +0.000 C 
ATOM      4  C   UNL     1      -0.318  -1.276   0.309  0.00  0.00    +0.000 C 
ATOM      5  C   UNL     1       0.801  -0.268   0.217  0.00  0.00    +0.000 C 
ATOM      6  C   UNL     1       2.080  -0.439   0.584  0.00  0.00    +0.000 C 
ATOM      7  C   UNL     1       0.275   1.032  -0.336  0.00  0.00    +0.000 C 
ENDBRANCH   1   6
BRANCH   1   8
ATOM      8  C   UNL     1       4.362  -1.412   1.591  0.00  0.00    +0.000 A 
ATOM      9  C   UNL     1       4.672  -0.781   2.800  0.00  0.00    +0.000 A 
ATOM     10  C   UNL     1       5.984  -0.387   3.072  0.00  0.00    +0.000 A 
ATOM     11  C   UNL     1       6.992  -0.628   2.138  0.00  0.00    +0.000 A 
ATOM     12  C   UNL     1       6.689  -1.263   0.934  0.00  0.00    +0.000 A 
ATOM     13  C   UNL     1       5.378  -1.657   0.662  0.00  0.00    +0.000 A 
ENDBRANCH   1   8
TORSDOF 2
