REMARK  Name = *****
REMARK  3 active torsions:
REMARK  status: ('A' for Active; 'I' for Inactive)
REMARK    1  A    between atoms: C_4  and  C_7
REMARK    2  A    between atoms: C_7  and  C_9
REMARK    3  A    between atoms: C_10  and  C_11
REMARK                            x       y       z     vdW  Elec       q    Type
REMARK                         _______ _______ _______ _____ _____    ______ ____
ROOT
ATOM      1  C   UNL     1      -3.622  -0.454  -0.863  0.00  0.00    +0.000 C 
ATOM      2  C   UNL     1      -4.953  -0.281  -0.848  0.00  0.00    +0.000 C 
ENDROOT
BRANCH   2   3
ATOM      3  C   UNL     1      -5.672   0.989  -0.745  0.00  0.00    +0.000 A 
ATOM      4  C   UNL     1      -5.877   1.786  -1.877  0.00  0.00    +0.000 A 
ATOM      5  C   UNL     1      -6.580   2.989  -1.773  0.00  0.00    +0.000 A 
ATOM      6  C   UNL     1      -7.080   3.393  -0.537  0.00  0.00    +0.000 A 
ATOM      7  C   UNL     1      -6.883   2.605   0.596  0.00  0.00    +0.000 A 
ATOM      8  C   UNL     1      -6.179   1.403   0.492  0.00  0.00    +0.000 A 
ATOM      9 CL   UNL     1      -7.948   4.873  -0.408  0.00  0.00    +0.000 Cl
ENDBRANCH   2   3
BRANCH   1  10
ATOM     10  C   UNL     1      -2.598   0.632  -0.814  0.00  0.00    +0.000 C 
ATOM     11  O   UNL     1      -2.828   1.776  -1.185  0.00  0.00    +0.000 OA
BRANCH  10  15
ATOM     12  C   UNL     1       1.391  -0.346   0.420  0.00  0.00    +0.000 A 
ATOM     13  C   UNL     1       0.323  -1.096   0.912  0.00  0.00    +0.000 A 
ATOM     14  C   UNL     1      -0.985  -0.793   0.524  0.00  0.00    +0.000 A 
ATOM     15  C   UNL     1      -1.226   0.260  -0.369  0.00  0.00    +0.000 A 
ATOM     16  C   UNL     1      -0.149   1.020  -0.844  0.00  0.00    +0.000 A 
ATOM     17  C   UNL     1       1.156   0.714  -0.454  0.00  0.00    +0.000 A 
ENDBRANCH  10  15
ENDBRANCH   1  10
TORSDOF 3
