REMARK  Name = *****
REMARK  4 active torsions:
REMARK  status: ('A' for Active; 'I' for Inactive)
REMARK    1  A    between atoms: C_4  and  C_7
REMARK    2  A    between atoms: C_7  and  S_8
REMARK    3  A    between atoms: S_8  and  C_9
REMARK    4  A    between atoms: C_9  and  C_10
REMARK                            x       y       z     vdW  Elec       q    Type
REMARK                         _______ _______ _______ _____ _____    ______ ____
ROOT
ATOM      1  S   UNL     1      -3.674  -0.078   1.354  0.00  0.00    +0.000 S 
ENDROOT
BRANCH   1   2
ATOM      2  C   UNL     1      -5.439   0.100   0.838  0.00  0.00    +0.000 C 
ATOM      3  F   UNL     1      -5.582  -0.580  -0.342  0.00  0.00    +0.000 F 
ATOM      4 CL   UNL     1      -6.438  -0.773   2.063  0.00  0.00    +0.000 Cl
BRANCH   2   5
ATOM      5  C   UNL     1      -5.908   1.576   0.635  0.00  0.00    +0.000 C 
ATOM      6  F   UNL     1      -5.110   2.183  -0.295  0.00  0.00    +0.000 F 
ATOM      7 CL   UNL     1      -7.591   1.663   0.004  0.00  0.00    +0.000 Cl
ATOM      8 CL   UNL     1      -5.826   2.567   2.132  0.00  0.00    +0.000 Cl
ENDBRANCH   2   5
ENDBRANCH   1   2
BRANCH   1   9
ATOM      9  C   UNL     1      -2.891   0.056  -0.280  0.00  0.00    +0.000 C 
BRANCH   9  13
ATOM     10  C   UNL     1       1.407  -0.066   0.069  0.00  0.00    +0.000 A 
ATOM     11  C   UNL     1       0.686  -1.249  -0.077  0.00  0.00    +0.000 A 
ATOM     12  C   UNL     1      -0.705  -1.211  -0.192  0.00  0.00    +0.000 A 
ATOM     13  C   UNL     1      -1.388   0.014  -0.167  0.00  0.00    +0.000 A 
ATOM     14  C   UNL     1      -0.651   1.198  -0.011  0.00  0.00    +0.000 A 
ATOM     15  C   UNL     1       0.740   1.157   0.104  0.00  0.00    +0.000 A 
ENDBRANCH   9  13
ENDBRANCH   1   9
TORSDOF 4
