REMARK  Name = *****
REMARK  3 active torsions:
REMARK  status: ('A' for Active; 'I' for Inactive)
REMARK    1  A    between atoms: C_3  and  S_9
REMARK    2  A    between atoms: S_9  and  C_10
REMARK    3  A    between atoms: C_10  and  C_12
REMARK                            x       y       z     vdW  Elec       q    Type
REMARK                         _______ _______ _______ _____ _____    ______ ____
ROOT
ATOM      1  C   UNL     1       1.208  -1.105   0.034  0.00  0.00    +0.000 A 
ATOM      2  C   UNL     1       0.071  -1.911  -0.062  0.00  0.00    +0.000 A 
ATOM      3  C   UNL     1      -1.204  -1.331  -0.064  0.00  0.00    +0.000 A 
ATOM      4  C   UNL     1      -1.312   0.065   0.012  0.00  0.00    +0.000 A 
ATOM      5  C   UNL     1      -0.184   0.873   0.108  0.00  0.00    +0.000 A 
ATOM      6  C   UNL     1       1.069   0.277   0.120  0.00  0.00    +0.000 A 
ATOM      7  F   UNL     1       2.163   1.044   0.210  0.00  0.00    +0.000 F 
ATOM      8  F   UNL     1      -2.518   0.652  -0.010  0.00  0.00    +0.000 F 
ENDROOT
BRANCH   3   9
ATOM      9  S   UNL     1      -2.638  -2.380  -0.206  0.00  0.00    +0.000 S 
BRANCH   9  10
ATOM     10  C   UNL     1      -3.597  -1.819   1.162  0.00  0.00    +0.000 C 
ATOM     11  O   UNL     1      -3.077  -1.514   2.231  0.00  0.00    +0.000 OA
BRANCH  10  12
ATOM     12  C   UNL     1      -5.036  -1.780   0.938  0.00  0.00    +0.000 A 
ATOM     13  C   UNL     1      -5.940  -1.345   1.898  0.00  0.00    +0.000 A 
ATOM     14  S   UNL     1      -7.512  -1.462   1.229  0.00  0.00    +0.000 S 
ATOM     15  N   UNL     1      -6.949  -2.055  -0.228  0.00  0.00    +0.000 NA
ATOM     16  N   UNL     1      -5.633  -2.177  -0.260  0.00  0.00    +0.000 NA
ENDBRANCH  10  12
ENDBRANCH   9  10
ENDBRANCH   3   9
TORSDOF 3
