REMARK  Name = *****
REMARK  3 active torsions:
REMARK  status: ('A' for Active; 'I' for Inactive)
REMARK    1  A    between atoms: C_1  and  C_9
REMARK    2  A    between atoms: C_2  and  C_3
REMARK    3  A    between atoms: C_9  and  C_11
REMARK                            x       y       z     vdW  Elec       q    Type
REMARK                         _______ _______ _______ _____ _____    ______ ____
ROOT
ATOM      1  C   UNL     1       2.091  -0.165   0.059  0.00  0.00    +0.000 C 
ATOM      2  C   UNL     1       2.622   0.799  -0.711  0.00  0.00    +0.000 C 
ENDROOT
BRANCH   2   3
ATOM      3  C   UNL     1       1.819   1.655  -1.658  0.00  0.00    +0.000 C 
ATOM      4  C   UNL     1       2.286   1.433  -3.105  0.00  0.00    +0.000 C 
ATOM      5  C   UNL     1       1.534   2.335  -4.082  0.00  0.00    +0.000 C 
ATOM      6  C   UNL     1       1.640   3.804  -3.687  0.00  0.00    +0.000 C 
ATOM      7  C   UNL     1       1.184   4.035  -2.250  0.00  0.00    +0.000 C 
ATOM      8  C   UNL     1       1.935   3.136  -1.269  0.00  0.00    +0.000 C 
ENDBRANCH   2   3
BRANCH   1   9
ATOM      9  C   UNL     1       2.967  -0.977   0.951  0.00  0.00    +0.000 C 
ATOM     10  O   UNL     1       4.191  -0.923   0.881  0.00  0.00    +0.000 OA
BRANCH   9  11
ATOM     11  C   UNL     1       2.315  -1.906   1.912  0.00  0.00    +0.000 A 
ATOM     12  C   UNL     1       1.056  -1.649   2.472  0.00  0.00    +0.000 A 
ATOM     13  C   UNL     1       0.494  -2.556   3.375  0.00  0.00    +0.000 A 
ATOM     14  C   UNL     1       1.188  -3.713   3.729  0.00  0.00    +0.000 A 
ATOM     15  C   UNL     1       2.448  -3.964   3.190  0.00  0.00    +0.000 A 
ATOM     16  C   UNL     1       3.013  -3.061   2.288  0.00  0.00    +0.000 A 
ENDBRANCH   9  11
ENDBRANCH   1   9
TORSDOF 3
