REMARK  Name = *****
REMARK  4 active torsions:
REMARK  status: ('A' for Active; 'I' for Inactive)
REMARK    1  A    between atoms: C_1  and  C_2
REMARK    2  A    between atoms: C_7  and  C_8
REMARK    3  A    between atoms: C_8  and  C_9
REMARK    4  A    between atoms: C_9  and  C_10
REMARK                            x       y       z     vdW  Elec       q    Type
REMARK                         _______ _______ _______ _____ _____    ______ ____
ROOT
ATOM      1  C   UNL     1       0.859  -2.262  -1.036  0.00  0.00    +0.000 C 
ENDROOT
BRANCH   1   8
ATOM      2  C   UNL     1       2.464   0.171  -0.216  0.00  0.00    +0.000 C 
ATOM      3  C   UNL     1       0.963   0.120  -0.116  0.00  0.00    +0.000 C 
ATOM      4  C   UNL     1       0.250   1.263  -0.082  0.00  0.00    +0.000 C 
ATOM      5  C   UNL     1      -1.233   1.324   0.119  0.00  0.00    +0.000 C 
ATOM      6  C   UNL     1      -1.800   0.019   0.667  0.00  0.00    +0.000 C 
ATOM      7  C   UNL     1      -1.237  -1.176  -0.092  0.00  0.00    +0.000 C 
ATOM      8  C   UNL     1       0.304  -1.256   0.001  0.00  0.00    +0.000 C 
ENDBRANCH   1   8
BRANCH   1   9
ATOM      9  C   UNL     1       0.265  -3.670  -0.906  0.00  0.00    +0.000 C 
BRANCH   9  10
ATOM     10  C   UNL     1       0.946  -4.647  -1.834  0.00  0.00    +0.000 A 
ATOM     11  C   UNL     1       2.042  -5.402  -1.392  0.00  0.00    +0.000 A 
ATOM     12  C   UNL     1       2.682  -6.292  -2.256  0.00  0.00    +0.000 A 
ATOM     13  C   UNL     1       2.236  -6.432  -3.569  0.00  0.00    +0.000 A 
ATOM     14  C   UNL     1       1.152  -5.682  -4.020  0.00  0.00    +0.000 A 
ATOM     15  C   UNL     1       0.511  -4.791  -3.158  0.00  0.00    +0.000 A 
ENDBRANCH   9  10
ENDBRANCH   1   9
TORSDOF 3
