REMARK  Name = *****
REMARK  3 active torsions:
REMARK  status: ('A' for Active; 'I' for Inactive)
REMARK    1  A    between atoms: C_4  and  N_7
REMARK    2  A    between atoms: N_7  and  N_8
REMARK    3  A    between atoms: N_8  and  C_9
REMARK                            x       y       z     vdW  Elec       q    Type
REMARK                         _______ _______ _______ _____ _____    ______ ____
ROOT
ATOM      1  N   UNL     1      -2.706   0.466  -0.273  0.00  0.00    +0.000 N 
ATOM      2  H   UNL     1      -3.071   1.327   0.034  0.00  0.00    +0.000 HD
ENDROOT
BRANCH   1   6
ATOM      3  C   UNL     1       1.471  -0.085   0.046  0.00  0.00    +0.000 A 
ATOM      4  C   UNL     1       0.643  -1.188  -0.146  0.00  0.00    +0.000 A 
ATOM      5  C   UNL     1      -0.738  -1.014  -0.266  0.00  0.00    +0.000 A 
ATOM      6  C   UNL     1      -1.308   0.265  -0.221  0.00  0.00    +0.000 A 
ATOM      7  C   UNL     1      -0.465   1.360   0.009  0.00  0.00    +0.000 A 
ATOM      8  C   UNL     1       0.917   1.190   0.130  0.00  0.00    +0.000 A 
ENDBRANCH   1   6
BRANCH   1   9
ATOM      9  N   UNL     1      -3.571  -0.488  -0.733  0.00  0.00    +0.000 N 
ATOM     10 CL   UNL     1      -3.908  -0.395  -2.431  0.00  0.00    +0.000 Cl
BRANCH   9  11
ATOM     11  C   UNL     1      -4.613  -1.012   0.090  0.00  0.00    +0.000 A 
ATOM     12  C   UNL     1      -4.678  -0.671   1.455  0.00  0.00    +0.000 A 
ATOM     13  C   UNL     1      -5.677  -1.178   2.292  0.00  0.00    +0.000 A 
ATOM     14  C   UNL     1      -6.633  -2.051   1.785  0.00  0.00    +0.000 A 
ATOM     15  C   UNL     1      -6.581  -2.425   0.446  0.00  0.00    +0.000 A 
ATOM     16  C   UNL     1      -5.580  -1.916  -0.389  0.00  0.00    +0.000 A 
ENDBRANCH   9  11
ENDBRANCH   1   9
TORSDOF 3
