REMARK  Name = *****
REMARK  4 active torsions:
REMARK  status: ('A' for Active; 'I' for Inactive)
REMARK    1  A    between atoms: C_4  and  C_6
REMARK    2  A    between atoms: C_6  and  O_8
REMARK    3  A    between atoms: O_8  and  C_9
REMARK    4  A    between atoms: C_9  and  C_10
REMARK                            x       y       z     vdW  Elec       q    Type
REMARK                         _______ _______ _______ _____ _____    ______ ____
ROOT
ATOM      1  O   UNL     1       0.742  -3.548   0.167  0.00  0.00    +0.000 OA
ENDROOT
BRANCH   1   2
ATOM      2  C   UNL     1       0.548  -3.009  -1.072  0.00  0.00    +0.000 C 
ATOM      3  O   UNL     1       0.181  -3.649  -2.051  0.00  0.00    +0.000 OA
BRANCH   2   7
ATOM      4  C   UNL     1       1.440   0.564  -0.337  0.00  0.00    +0.000 A 
ATOM      5  C   UNL     1       1.133   0.785  -1.660  0.00  0.00    +0.000 A 
ATOM      6  S   UNL     1       0.644  -0.647  -2.453  0.00  0.00    +0.000 S 
ATOM      7  C   UNL     1       0.836  -1.587  -1.030  0.00  0.00    +0.000 A 
ATOM      8  C   UNL     1       1.269  -0.804   0.027  0.00  0.00    +0.000 A 
ENDBRANCH   2   7
ENDBRANCH   1   2
BRANCH   1   9
ATOM      9  C   UNL     1       0.528  -4.960   0.269  0.00  0.00    +0.000 C 
BRANCH   9  10
ATOM     10  C   UNL     1       1.845  -5.678   0.121  0.00  0.00    +0.000 A 
ATOM     11  C   UNL     1       2.740  -5.750   1.199  0.00  0.00    +0.000 A 
ATOM     12  C   UNL     1       3.970  -6.395   1.055  0.00  0.00    +0.000 A 
ATOM     13  C   UNL     1       4.314  -6.965  -0.169  0.00  0.00    +0.000 A 
ATOM     14  C   UNL     1       3.441  -6.891  -1.251  0.00  0.00    +0.000 A 
ATOM     15  C   UNL     1       2.211  -6.245  -1.108  0.00  0.00    +0.000 A 
ATOM     16 CL   UNL     1       5.831  -7.759  -0.345  0.00  0.00    +0.000 Cl
ENDBRANCH   9  10
ENDBRANCH   1   9
TORSDOF 4
