REMARK  Name = *****
REMARK  2 active torsions:
REMARK  status: ('A' for Active; 'I' for Inactive)
REMARK    1  A    between atoms: C_3  and  C_10
REMARK    2  A    between atoms: C_11  and  C_12
REMARK                            x       y       z     vdW  Elec       q    Type
REMARK                         _______ _______ _______ _____ _____    ______ ____
ROOT
ATOM      1  C   UNL     1       0.815   1.237  -0.174  0.00  0.00    +0.000 C 
ATOM      2  C   UNL     1       1.528  -0.031   0.285  0.00  0.00    +0.000 C 
ATOM      3  C   UNL     1       0.778  -1.267  -0.222  0.00  0.00    +0.000 C 
ATOM      4  O   UNL     1      -0.587  -1.250   0.225  0.00  0.00    +0.000 OA
ATOM      5  C   UNL     1      -1.274  -0.130  -0.236  0.00  0.00    +0.000 C 
ATOM      6  C   UNL     1      -2.410  -0.272  -0.944  0.00  0.00    +0.000 C 
ATOM      7 CL   UNL     1      -3.339   1.070  -1.516  0.00  0.00    +0.000 Cl
ATOM      8 CL   UNL     1      -3.018  -1.845  -1.355  0.00  0.00    +0.000 Cl
ATOM      9  C   UNL     1      -0.665   1.183   0.195  0.00  0.00    +0.000 C 
ENDROOT
BRANCH   3  10
ATOM     10  C   UNL     1       1.419  -2.494   0.274  0.00  0.00    +0.000 C 
ATOM     11  C   UNL     1       1.943  -3.497   0.677  0.00  0.00    +0.000 C 
BRANCH  11  12
ATOM     12  C   UNL     1       2.565  -4.692   1.157  0.00  0.00    +0.000 A 
ATOM     13  C   UNL     1       3.810  -4.629   1.786  0.00  0.00    +0.000 A 
ATOM     14  C   UNL     1       4.417  -5.797   2.254  0.00  0.00    +0.000 A 
ATOM     15  C   UNL     1       3.779  -7.027   2.093  0.00  0.00    +0.000 A 
ATOM     16  C   UNL     1       2.535  -7.092   1.465  0.00  0.00    +0.000 A 
ATOM     17  C   UNL     1       1.928  -5.925   0.997  0.00  0.00    +0.000 A 
ENDBRANCH  11  12
ENDBRANCH   3  10
TORSDOF 2
