REMARK  Name = *****
REMARK  3 active torsions:
REMARK  status: ('A' for Active; 'I' for Inactive)
REMARK    1  A    between atoms: C_1  and  C_2
REMARK    2  A    between atoms: C_3  and  C_7
REMARK    3  A    between atoms: C_7  and  C_8
REMARK                            x       y       z     vdW  Elec       q    Type
REMARK                         _______ _______ _______ _____ _____    ______ ____
ROOT
ATOM      1  C   UNL     1       1.931  -2.602   0.120  0.00  0.00    +0.000 C 
ATOM      2  C   UNL     1       2.732  -2.085   1.075  0.00  0.00    +0.000 C 
ATOM      3  C   UNL     1       4.198  -2.377   1.174  0.00  0.00    +0.000 C 
ATOM      4  C   UNL     1       4.823  -2.705  -0.178  0.00  0.00    +0.000 C 
ATOM      5  C   UNL     1       3.936  -3.580  -1.027  0.00  0.00    +0.000 A 
ATOM      6  C   UNL     1       4.523  -4.407  -2.000  0.00  0.00    +0.000 A 
ATOM      7  C   UNL     1       3.728  -5.176  -2.844  0.00  0.00    +0.000 A 
ATOM      8  C   UNL     1       2.344  -5.112  -2.731  0.00  0.00    +0.000 A 
ATOM      9  C   UNL     1       1.753  -4.279  -1.775  0.00  0.00    +0.000 A 
ATOM     10  C   UNL     1       2.531  -3.501  -0.904  0.00  0.00    +0.000 A 
ENDROOT
BRANCH   1  11
ATOM     11  C   UNL     1       0.455  -2.249   0.083  0.00  0.00    +0.000 C 
BRANCH  11  14
ATOM     12  C   UNL     1       0.567  -4.300   2.606  0.00  0.00    +0.000 C 
ATOM     13  C   UNL     1      -0.523  -4.183   1.591  0.00  0.00    +0.000 A 
ATOM     14  C   UNL     1      -0.548  -3.301   0.516  0.00  0.00    +0.000 A 
ATOM     15  S   UNL     1      -2.008  -3.446  -0.387  0.00  0.00    +0.000 S 
ATOM     16  C   UNL     1      -2.580  -4.708   0.602  0.00  0.00    +0.000 A 
ATOM     17  C   UNL     1      -1.702  -5.001   1.617  0.00  0.00    +0.000 A 
ENDBRANCH  11  14
ENDBRANCH   1  11
TORSDOF 2
