REMARK  Name = *****
REMARK  2 active torsions:
REMARK  status: ('A' for Active; 'I' for Inactive)
REMARK    1  A    between atoms: C_2  and  C_11
REMARK    2  A    between atoms: C_11  and  C_12
REMARK                            x       y       z     vdW  Elec       q    Type
REMARK                         _______ _______ _______ _____ _____    ______ ____
ROOT
ATOM      1  C   UNL     1      -2.205  -0.385   0.342  0.00  0.00    +0.000 C 
ATOM      2  C   UNL     1      -1.198  -1.514   0.080  0.00  0.00    +0.000 C 
ATOM      3  C   UNL     1       0.046  -0.690   0.061  0.00  0.00    +0.000 A 
ATOM      4  C   UNL     1      -0.301   0.645  -0.109  0.00  0.00    +0.000 A 
ATOM      5  O   UNL     1      -1.653   0.859  -0.155  0.00  0.00    +0.000 OA
ATOM      6  C   UNL     1       0.646   1.642  -0.237  0.00  0.00    +0.000 A 
ATOM      7  C   UNL     1       1.991   1.275  -0.177  0.00  0.00    +0.000 A 
ATOM      8  C   UNL     1       2.342  -0.070  -0.005  0.00  0.00    +0.000 A 
ATOM      9  C   UNL     1       1.377  -1.069   0.107  0.00  0.00    +0.000 A 
ATOM     10  F   UNL     1       3.639  -0.404   0.042  0.00  0.00    +0.000 F 
ENDROOT
BRANCH   2  11
ATOM     11  C   UNL     1      -1.237  -2.634   1.124  0.00  0.00    +0.000 C 
ATOM     12  F   UNL     1      -0.303  -3.571   0.763  0.00  0.00    +0.000 F 
BRANCH  11  13
ATOM     13  C   UNL     1      -2.607  -3.267   1.243  0.00  0.00    +0.000 A 
ATOM     14  C   UNL     1      -3.060  -4.161   0.262  0.00  0.00    +0.000 A 
ATOM     15  C   UNL     1      -4.329  -4.732   0.355  0.00  0.00    +0.000 A 
ATOM     16  C   UNL     1      -5.158  -4.419   1.431  0.00  0.00    +0.000 A 
ATOM     17  C   UNL     1      -4.717  -3.538   2.416  0.00  0.00    +0.000 A 
ATOM     18  C   UNL     1      -3.447  -2.964   2.325  0.00  0.00    +0.000 A 
ENDBRANCH  11  13
ENDBRANCH   2  11
TORSDOF 2
