REMARK  Name = *****
REMARK  3 active torsions:
REMARK  status: ('A' for Active; 'I' for Inactive)
REMARK    1  A    between atoms: C_4  and  C_7
REMARK    2  A    between atoms: C_7  and  O_9
REMARK    3  A    between atoms: O_9  and  C_10
REMARK                            x       y       z     vdW  Elec       q    Type
REMARK                         _______ _______ _______ _____ _____    ______ ____
ROOT
ATOM      1  C   UNL     1       2.887  -0.419  -0.517  0.00  0.00    +0.000 C 
ATOM      2  O   UNL     1       3.418   0.353  -1.306  0.00  0.00    +0.000 OA
ENDROOT
BRANCH   1   6
ATOM      3  C   UNL     1      -1.294   0.683  -0.043  0.00  0.00    +0.000 C 
ATOM      4  C   UNL     1      -0.929  -0.798  -0.058  0.00  0.00    +0.000 C 
ATOM      5  C   UNL     1       0.470  -1.032  -0.621  0.00  0.00    +0.000 C 
ATOM      6  C   UNL     1       1.523  -0.201   0.119  0.00  0.00    +0.000 C 
ATOM      7  C   UNL     1       1.151   1.287   0.123  0.00  0.00    +0.000 C 
ATOM      8  C   UNL     1      -0.247   1.512   0.695  0.00  0.00    +0.000 C 
ENDBRANCH   1   6
BRANCH   1   9
ATOM      9  O   UNL     1       3.401  -1.612  -0.067  0.00  0.00    +0.000 OA
BRANCH   9  10
ATOM     10  C   UNL     1       4.649  -1.969  -0.612  0.00  0.00    +0.000 C 
ATOM     11  C   UNL     1       5.721  -2.068   0.187  0.00  0.00    +0.000 C 
ATOM     12  C   UNL     1       7.072  -2.499  -0.304  0.00  0.00    +0.000 C 
ATOM     13  C   UNL     1       7.170  -2.571  -1.830  0.00  0.00    +0.000 C 
ATOM     14  C   UNL     1       5.907  -3.175  -2.440  0.00  0.00    +0.000 C 
ATOM     15  C   UNL     1       4.671  -2.350  -2.070  0.00  0.00    +0.000 C 
ENDBRANCH   9  10
ENDBRANCH   1   9
TORSDOF 3
