REMARK  Name = *****
REMARK  3 active torsions:
REMARK  status: ('A' for Active; 'I' for Inactive)
REMARK    1  A    between atoms: C_4  and  C_7
REMARK    2  A    between atoms: C_7  and  N_9
REMARK    3  A    between atoms: N_9  and  C_10
REMARK                            x       y       z     vdW  Elec       q    Type
REMARK                         _______ _______ _______ _____ _____    ______ ____
ROOT
ATOM      1  C   UNL     1      -2.631   0.825  -0.791  0.00  0.00    +0.000 C 
ATOM      2  S   UNL     1      -2.764   2.412  -1.315  0.00  0.00    +0.000 S 
ENDROOT
BRANCH   1   6
ATOM      3  C   UNL     1       1.154  -0.733   0.457  0.00  0.00    +0.000 A 
ATOM      4  C   UNL     1       0.572   0.318   1.169  0.00  0.00    +0.000 A 
ATOM      5  C   UNL     1      -0.657   0.840   0.764  0.00  0.00    +0.000 A 
ATOM      6  C   UNL     1      -1.298   0.307  -0.360  0.00  0.00    +0.000 A 
ATOM      7  C   UNL     1      -0.717  -0.750  -1.072  0.00  0.00    +0.000 A 
ATOM      8  C   UNL     1       0.512  -1.267  -0.661  0.00  0.00    +0.000 A 
ENDBRANCH   1   6
BRANCH   1   9
ATOM      9  N   UNL     1      -3.617  -0.143  -0.645  0.00  0.00    +0.000 N 
ATOM     10  H   UNL     1      -3.300  -0.964  -0.203  0.00  0.00    +0.000 HD
BRANCH   9  11
ATOM     11  C   UNL     1      -4.985  -0.187  -1.004  0.00  0.00    +0.000 A 
ATOM     12  C   UNL     1      -5.642   0.731  -1.821  0.00  0.00    +0.000 A 
ATOM     13  C   UNL     1      -7.001   0.578  -2.123  0.00  0.00    +0.000 A 
ATOM     14  C   UNL     1      -7.719  -0.502  -1.617  0.00  0.00    +0.000 A 
ATOM     15  C   UNL     1      -7.075  -1.435  -0.812  0.00  0.00    +0.000 A 
ATOM     16  C   UNL     1      -5.718  -1.280  -0.513  0.00  0.00    +0.000 A 
ENDBRANCH   9  11
ENDBRANCH   1   9
TORSDOF 3
