REMARK  Name = *****
REMARK  3 active torsions:
REMARK  status: ('A' for Active; 'I' for Inactive)
REMARK    1  A    between atoms: C_1  and  C_2
REMARK    2  A    between atoms: C_5  and  N_8
REMARK    3  A    between atoms: C_9  and  C_10
REMARK                            x       y       z     vdW  Elec       q    Type
REMARK                         _______ _______ _______ _____ _____    ______ ____
ROOT
ATOM      1  N   UNL     1      -3.260   0.115   0.240  0.00  0.00    +0.000 NA
ATOM      2  C   UNL     1      -3.884   0.809  -0.662  0.00  0.00    +0.000 C 
ENDROOT
BRANCH   1   7
ATOM      3  C   UNL     1       2.444   0.023  -0.093  0.00  0.00    +0.000 C 
ATOM      4  C   UNL     1       0.946   0.064  -0.033  0.00  0.00    +0.000 A 
ATOM      5  C   UNL     1       0.292   1.107   0.635  0.00  0.00    +0.000 A 
ATOM      6  C   UNL     1      -1.103   1.126   0.722  0.00  0.00    +0.000 A 
ATOM      7  C   UNL     1      -1.862   0.106   0.144  0.00  0.00    +0.000 A 
ATOM      8  C   UNL     1      -1.211  -0.950  -0.495  0.00  0.00    +0.000 A 
ATOM      9  C   UNL     1       0.184  -0.974  -0.583  0.00  0.00    +0.000 A 
ENDBRANCH   1   7
BRANCH   2  10
ATOM     10  C   UNL     1      -5.361   0.908  -0.682  0.00  0.00    +0.000 A 
ATOM     11  C   UNL     1      -6.098   0.207   0.284  0.00  0.00    +0.000 A 
ATOM     12  C   UNL     1      -7.493   0.274   0.297  0.00  0.00    +0.000 A 
ATOM     13  C   UNL     1      -8.161   1.041  -0.654  0.00  0.00    +0.000 A 
ATOM     14  C   UNL     1      -7.435   1.741  -1.619  0.00  0.00    +0.000 A 
ATOM     15  C   UNL     1      -6.036   1.678  -1.638  0.00  0.00    +0.000 A 
ATOM     16 CL   UNL     1      -5.223   2.581  -2.867  0.00  0.00    +0.000 Cl
ENDBRANCH   2  10
TORSDOF 2
