REMARK  Name = *****
REMARK  7 active torsions:
REMARK  status: ('A' for Active; 'I' for Inactive)
REMARK    1  A    between atoms: C_1  and  C_2
REMARK    2  A    between atoms: C_5  and  S_8
REMARK    3  A    between atoms: S_8  and  C_9
REMARK    4  A    between atoms: C_9  and  C_10
REMARK    5  A    between atoms: C_10  and  C_18
REMARK    6  A    between atoms: C_14  and  O_16
REMARK    7  A    between atoms: O_16  and  C_17
REMARK                            x       y       z     vdW  Elec       q    Type
REMARK                         _______ _______ _______ _____ _____    ______ ____
ROOT
ATOM      1  C   UNL     1      -6.082   1.982   1.297  0.00  0.00    +0.000 C 
ENDROOT
BRANCH   1   2
ATOM      2  C   UNL     1      -5.362   1.966  -0.086  0.00  0.00    +0.000 C 
ATOM      3  C   UNL     1      -5.795   3.164  -0.974  0.00  0.00    +0.000 C 
ATOM      4  C   UNL     1      -7.168   3.014  -1.564  0.00  0.00    +0.000 C 
ATOM      5  C   UNL     1      -7.797   1.833  -1.660  0.00  0.00    +0.000 C 
ATOM      6  C   UNL     1      -7.196   0.524  -1.237  0.00  0.00    +0.000 C 
ATOM      7  C   UNL     1      -5.713   0.648  -0.843  0.00  0.00    +0.000 C 
ATOM      8  C   UNL     1      -3.829   2.004   0.097  0.00  0.00    +0.000 C 
BRANCH   6   9
ATOM      9  O   UNL     1      -7.975   0.053  -0.137  0.00  0.00    +0.000 OA
ATOM     10  C   UNL     1      -8.061  -1.365  -0.082  0.00  0.00    +0.000 C 
ENDBRANCH   6   9
ENDBRANCH   1   2
BRANCH   1  11
ATOM     11  S   UNL     1      -5.604   3.359   2.416  0.00  0.00    +0.000 S 
BRANCH  11  16
ATOM     12  C   UNL     1      -9.306   2.256   7.129  0.00  0.00    +0.000 C 
ATOM     13  C   UNL     1      -8.412   2.505   5.951  0.00  0.00    +0.000 A 
ATOM     14  C   UNL     1      -7.363   1.627   5.658  0.00  0.00    +0.000 A 
ATOM     15  C   UNL     1      -6.509   1.877   4.580  0.00  0.00    +0.000 A 
ATOM     16  C   UNL     1      -6.691   3.012   3.785  0.00  0.00    +0.000 A 
ATOM     17  C   UNL     1      -7.720   3.905   4.092  0.00  0.00    +0.000 A 
ATOM     18  C   UNL     1      -8.574   3.654   5.169  0.00  0.00    +0.000 A 
ENDBRANCH  11  16
ENDBRANCH   1  11
TORSDOF 4
