REMARK  Name = *****
REMARK  3 active torsions:
REMARK  status: ('A' for Active; 'I' for Inactive)
REMARK    1  A    between atoms: C_4  and  C_7
REMARK    2  A    between atoms: C_8  and  C_9
REMARK    3  A    between atoms: C_14  and  C_15
REMARK                            x       y       z     vdW  Elec       q    Type
REMARK                         _______ _______ _______ _____ _____    ______ ____
ROOT
ATOM      1  C   UNL     1      -2.814   0.408  -0.174  0.00  0.00    +0.000 C 
ATOM      2  C   UNL     1      -3.740  -0.540  -0.389  0.00  0.00    +0.000 C 
ENDROOT
BRANCH   1   6
ATOM      3  C   UNL     1       1.413  -0.226  -0.005  0.00  0.00    +0.000 A 
ATOM      4  C   UNL     1       0.641  -0.989  -0.878  0.00  0.00    +0.000 A 
ATOM      5  C   UNL     1      -0.743  -0.798  -0.940  0.00  0.00    +0.000 A 
ATOM      6  C   UNL     1      -1.369   0.151  -0.120  0.00  0.00    +0.000 A 
ATOM      7  C   UNL     1      -0.578   0.923   0.741  0.00  0.00    +0.000 A 
ATOM      8  C   UNL     1       0.805   0.732   0.803  0.00  0.00    +0.000 A 
ENDBRANCH   1   6
BRANCH   2   9
ATOM      9  C   UNL     1      -5.170  -0.215  -0.412  0.00  0.00    +0.000 A 
ATOM     10  C   UNL     1      -5.889  -0.370   0.783  0.00  0.00    +0.000 A 
ATOM     11  C   UNL     1      -7.250  -0.070   0.839  0.00  0.00    +0.000 A 
ATOM     12  C   UNL     1      -7.905   0.390  -0.298  0.00  0.00    +0.000 A 
ATOM     13  C   UNL     1      -7.200   0.549  -1.491  0.00  0.00    +0.000 A 
ATOM     14  C   UNL     1      -5.827   0.247  -1.569  0.00  0.00    +0.000 A 
BRANCH  14  15
ATOM     15  C   UNL     1      -5.117   0.442  -2.879  0.00  0.00    +0.000 C 
ATOM     16 BR   UNL     1      -4.589   2.304  -3.072  0.00  0.00    +0.000 Br
ENDBRANCH  14  15
ENDBRANCH   2   9
TORSDOF 3
