REMARK  Name = *****
REMARK  5 active torsions:
REMARK  status: ('A' for Active; 'I' for Inactive)
REMARK    1  A    between atoms: C_1  and  O_2
REMARK    2  A    between atoms: O_2  and  C_3
REMARK    3  A    between atoms: C_3  and  C_4
REMARK    4  A    between atoms: C_7  and  C_10
REMARK    5  A    between atoms: C_11  and  C_12
REMARK                            x       y       z     vdW  Elec       q    Type
REMARK                         _______ _______ _______ _____ _____    ______ ____
ROOT
ATOM      1  C   UNL     1       4.302   1.149  -0.787  0.00  0.00    +0.000 A 
ATOM      2  C   UNL     1       4.962   1.298   0.440  0.00  0.00    +0.000 A 
ATOM      3  C   UNL     1       6.358   1.241   0.514  0.00  0.00    +0.000 A 
ATOM      4  C   UNL     1       7.123   1.014  -0.635  0.00  0.00    +0.000 A 
ATOM      5  C   UNL     1       6.466   0.869  -1.862  0.00  0.00    +0.000 A 
ATOM      6  C   UNL     1       5.070   0.924  -1.937  0.00  0.00    +0.000 A 
ENDROOT
BRANCH   4   7
ATOM      7  C   UNL     1       8.592   0.985  -0.607  0.00  0.00    +0.000 C 
ATOM      8  C   UNL     1       9.309   0.420   0.379  0.00  0.00    +0.000 C 
BRANCH   8   9
ATOM      9  C   UNL     1      10.778   0.380   0.397  0.00  0.00    +0.000 A 
ATOM     10  C   UNL     1      11.560   1.469  -0.010  0.00  0.00    +0.000 A 
ATOM     11  C   UNL     1      12.955   1.405   0.052  0.00  0.00    +0.000 A 
ATOM     12  C   UNL     1      13.581   0.256   0.531  0.00  0.00    +0.000 A 
ATOM     13  C   UNL     1      12.813  -0.827   0.954  0.00  0.00    +0.000 A 
ATOM     14  C   UNL     1      11.419  -0.763   0.893  0.00  0.00    +0.000 A 
ENDBRANCH   8   9
ENDBRANCH   4   7
BRANCH   1  15
ATOM     15  C   UNL     1       2.796   1.170  -0.866  0.00  0.00    +0.000 C 
BRANCH  15  17
ATOM     16  C   UNL     1       0.860   2.268  -0.097  0.00  0.00    +0.000 C 
ATOM     17  O   UNL     1       2.279   2.220  -0.048  0.00  0.00    +0.000 OA
ENDBRANCH  15  17
ENDBRANCH   1  15
TORSDOF 4
