REMARK  Name = *****
REMARK  3 active torsions:
REMARK  status: ('A' for Active; 'I' for Inactive)
REMARK    1  A    between atoms: C_5  and  O_7
REMARK    2  A    between atoms: O_7  and  C_8
REMARK    3  A    between atoms: C_8  and  C_10
REMARK                            x       y       z     vdW  Elec       q    Type
REMARK                         _______ _______ _______ _____ _____    ______ ____
ROOT
ATOM      1  C   UNL     1      -1.617  -2.574   1.831  0.00  0.00    +0.000 C 
ATOM      2  O   UNL     1      -1.586  -3.536   1.079  0.00  0.00    +0.000 OA
ENDROOT
BRANCH   1   3
ATOM      3  C   UNL     1      -2.006  -2.667   3.265  0.00  0.00    +0.000 A 
ATOM      4  C   UNL     1      -2.372  -3.922   3.771  0.00  0.00    +0.000 A 
ATOM      5  C   UNL     1      -2.745  -4.061   5.110  0.00  0.00    +0.000 A 
ATOM      6  C   UNL     1      -2.755  -2.949   5.950  0.00  0.00    +0.000 A 
ATOM      7  C   UNL     1      -2.391  -1.697   5.455  0.00  0.00    +0.000 A 
ATOM      8  C   UNL     1      -2.017  -1.553   4.117  0.00  0.00    +0.000 A 
ENDBRANCH   1   3
BRANCH   1   9
ATOM      9  O   UNL     1      -1.313  -1.295   1.507  0.00  0.00    +0.000 OA
BRANCH   9  14
ATOM     10  C   UNL     1      -0.431   1.419   0.375  0.00  0.00    +0.000 C 
ATOM     11  C   UNL     1       1.021   1.222  -0.067  0.00  0.00    +0.000 C 
ATOM     12  C   UNL     1       1.450  -0.216  -0.048  0.00  0.00    +0.000 C 
ATOM     13  C   UNL     1       0.585  -1.236   0.068  0.00  0.00    +0.000 C 
ATOM     14  C   UNL     1      -0.908  -1.063   0.146  0.00  0.00    +0.000 C 
ATOM     15  C   UNL     1      -1.349   0.359  -0.237  0.00  0.00    +0.000 C 
ENDBRANCH   9  14
ENDBRANCH   1   9
TORSDOF 3
