REMARK  Name = *****
REMARK  5 active torsions:
REMARK  status: ('A' for Active; 'I' for Inactive)
REMARK    1  A    between atoms: C_4  and  C_7
REMARK    2  A    between atoms: C_7  and  C_8
REMARK    3  A    between atoms: C_7  and  P_16
REMARK    4  A    between atoms: C_8  and  C_9
REMARK    5  A    between atoms: C_8  and  P_15
REMARK                            x       y       z     vdW  Elec       q    Type
REMARK                         _______ _______ _______ _____ _____    ______ ____
ROOT
ATOM      1  C   UNL     1      -2.612   0.358  -0.510  0.00  0.00    +0.000 C 
ENDROOT
BRANCH   1   5
ATOM      2  C   UNL     1       1.304  -0.684   1.062  0.00  0.00    +0.000 A 
ATOM      3  C   UNL     1       0.869  -1.273  -0.121  0.00  0.00    +0.000 A 
ATOM      4  C   UNL     1      -0.391  -0.963  -0.640  0.00  0.00    +0.000 A 
ATOM      5  C   UNL     1      -1.246  -0.057   0.013  0.00  0.00    +0.000 A 
ATOM      6  C   UNL     1      -0.783   0.523   1.212  0.00  0.00    +0.000 A 
ATOM      7  C   UNL     1       0.477   0.213   1.730  0.00  0.00    +0.000 A 
ENDBRANCH   1   5
BRANCH   1   8
ATOM      8  P   UNL     1      -3.615  -1.210  -0.360  0.00  0.00    +0.000 P 
ATOM      9  H   UNL     1      -3.064  -2.187  -1.165  0.00  0.00    +0.000 HD
ATOM     10  H   UNL     1      -4.914  -0.966  -0.756  0.00  0.00    +0.000 HD
ENDBRANCH   1   8
BRANCH   1  11
ATOM     11  C   UNL     1      -2.769   1.092  -1.863  0.00  0.00    +0.000 C 
BRANCH  11  12
ATOM     12  C   UNL     1      -2.227   2.515  -1.898  0.00  0.00    +0.000 A 
ATOM     13  C   UNL     1      -0.896   2.840  -1.581  0.00  0.00    +0.000 A 
ATOM     14  C   UNL     1      -0.452   4.165  -1.607  0.00  0.00    +0.000 A 
ATOM     15  C   UNL     1      -1.328   5.191  -1.947  0.00  0.00    +0.000 A 
ATOM     16  C   UNL     1      -2.650   4.894  -2.264  0.00  0.00    +0.000 A 
ATOM     17  C   UNL     1      -3.096   3.571  -2.238  0.00  0.00    +0.000 A 
ENDBRANCH  11  12
BRANCH  11  18
ATOM     18  P   UNL     1      -2.112   0.334  -3.413  0.00  0.00    +0.000 P 
ATOM     19  H   UNL     1      -0.734   0.407  -3.413  0.00  0.00    +0.000 HD
ATOM     20  H   UNL     1      -2.608   1.016  -4.505  0.00  0.00    +0.000 HD
ENDBRANCH  11  18
ENDBRANCH   1  11
TORSDOF 5
