REMARK  Name = *****
REMARK  4 active torsions:
REMARK  status: ('A' for Active; 'I' for Inactive)
REMARK    1  A    between atoms: C_5  and  C_6
REMARK    2  A    between atoms: C_6  and  C_7
REMARK    3  A    between atoms: C_7  and  C_11
REMARK    4  A    between atoms: C_8  and  C_9
REMARK                            x       y       z     vdW  Elec       q    Type
REMARK                         _______ _______ _______ _____ _____    ______ ____
ROOT
ATOM      1  C   UNL     1       1.263  -3.419  -0.073  0.00  0.00    +0.000 C 
ATOM      2  C   UNL     1      -0.070  -3.621  -0.089  0.00  0.00    +0.000 C 
ENDROOT
BRANCH   1   3
ATOM      3  C   UNL     1       2.109  -4.633  -0.015  0.00  0.00    +0.000 A 
ATOM      4  C   UNL     1       2.197  -5.498  -1.116  0.00  0.00    +0.000 A 
ATOM      5  C   UNL     1       3.004  -6.635  -1.056  0.00  0.00    +0.000 A 
ATOM      6  C   UNL     1       3.732  -6.915   0.100  0.00  0.00    +0.000 A 
ATOM      7  C   UNL     1       3.658  -6.056   1.195  0.00  0.00    +0.000 A 
ATOM      8  C   UNL     1       2.852  -4.917   1.138  0.00  0.00    +0.000 A 
ENDBRANCH   1   3
BRANCH   2   9
ATOM      9  C   UNL     1      -1.051  -2.599  -0.227  0.00  0.00    +0.000 C 
ATOM     10  N   UNL     1      -1.890  -1.808  -0.353  0.00  0.00    +0.000 NA
ENDBRANCH   2   9
BRANCH   1  11
ATOM     11  C   UNL     1       1.892  -2.105  -0.173  0.00  0.00    +0.000 C 
BRANCH  11  16
ATOM     12  C   UNL     1       1.198   1.837   1.476  0.00  0.00    +0.000 C 
ATOM     13  C   UNL     1       0.424   1.138   2.316  0.00  0.00    +0.000 C 
ATOM     14  C   UNL     1       0.573  -0.246   2.700  0.00  0.00    +0.000 C 
ATOM     15  C   UNL     1       1.149  -1.226   1.990  0.00  0.00    +0.000 C 
ATOM     16  C   UNL     1       1.819  -1.074   0.700  0.00  0.00    +0.000 C 
ATOM     17  C   UNL     1       2.623   0.109   0.382  0.00  0.00    +0.000 C 
ATOM     18  C   UNL     1       2.359   1.369   0.757  0.00  0.00    +0.000 C 
ENDBRANCH  11  16
ENDBRANCH   1  11
TORSDOF 4
