REMARK  Name = *****
REMARK  5 active torsions:
REMARK  status: ('A' for Active; 'I' for Inactive)
REMARK    1  A    between atoms: C_1  and  N_2
REMARK    2  A    between atoms: N_2  and  C_3
REMARK    3  A    between atoms: N_2  and  P_9
REMARK    4  A    between atoms: P_9  and  C_10
REMARK    5  A    between atoms: P_9  and  C_12
REMARK                            x       y       z     vdW  Elec       q    Type
REMARK                         _______ _______ _______ _____ _____    ______ ____
ROOT
ATOM      1  P   UNL     1       3.387  -0.905  -1.236  0.00  0.00    +0.000 P 
ENDROOT
BRANCH   1   2
ATOM      2  C   UNL     1       5.203  -0.880  -1.260  0.00  0.00    +0.000 A 
ATOM      3  C   UNL     1       5.948  -0.588  -0.106  0.00  0.00    +0.000 A 
ATOM      4  C   UNL     1       7.347  -0.595  -0.121  0.00  0.00    +0.000 A 
ATOM      5  C   UNL     1       8.029  -0.916  -1.289  0.00  0.00    +0.000 A 
ATOM      6  C   UNL     1       7.314  -1.239  -2.438  0.00  0.00    +0.000 A 
ATOM      7  C   UNL     1       5.915  -1.229  -2.420  0.00  0.00    +0.000 A 
ENDBRANCH   1   2
BRANCH   1   9
ATOM      8  C   UNL     1       1.994  -0.315   0.892  0.00  0.00    +0.000 C 
ATOM      9  N   UNL     1       2.948   0.220  -0.096  0.00  0.00    +0.000 N 
BRANCH   9  10
ATOM     10  C   UNL     1       3.309   1.593   0.081  0.00  0.00    +0.000 A 
ATOM     11  C   UNL     1       2.904   2.345   1.204  0.00  0.00    +0.000 A 
ATOM     12  C   UNL     1       3.270   3.687   1.383  0.00  0.00    +0.000 A 
ATOM     13  C   UNL     1       4.061   4.327   0.439  0.00  0.00    +0.000 A 
ATOM     14  C   UNL     1       4.483   3.623  -0.679  0.00  0.00    +0.000 A 
ATOM     15  C   UNL     1       4.113   2.281  -0.849  0.00  0.00    +0.000 A 
ENDBRANCH   9  10
ENDBRANCH   1   9
BRANCH   1  16
ATOM     16  C   UNL     1       2.855  -0.118  -2.767  0.00  0.00    +0.000 C 
ATOM     17  C   UNL     1       1.620   0.380  -2.908  0.00  0.00    +0.000 C 
ENDBRANCH   1  16
TORSDOF 4
