REMARK  Name = *****
REMARK  4 active torsions:
REMARK  status: ('A' for Active; 'I' for Inactive)
REMARK    1  A    between atoms: C_1  and  C_2
REMARK    2  A    between atoms: C_6  and  O_8
REMARK    3  A    between atoms: O_8  and  C_9
REMARK    4  A    between atoms: C_9  and  C_11
REMARK                            x       y       z     vdW  Elec       q    Type
REMARK                         _______ _______ _______ _____ _____    ______ ____
ROOT
ATOM      1  O   UNL     1      -3.917   0.415   0.384  0.00  0.00    +0.000 OA
ENDROOT
BRANCH   1   7
ATOM      2  C   UNL     1       0.715   2.057   0.667  0.00  0.00    +0.000 C 
ATOM      3  C   UNL     1      -0.268   0.992   0.273  0.00  0.00    +0.000 A 
ATOM      4  C   UNL     1       0.141  -0.218  -0.316  0.00  0.00    +0.000 A 
ATOM      5  C   UNL     1      -0.796  -1.196  -0.671  0.00  0.00    +0.000 A 
ATOM      6  C   UNL     1      -2.154  -0.980  -0.448  0.00  0.00    +0.000 A 
ATOM      7  C   UNL     1      -2.561   0.224   0.118  0.00  0.00    +0.000 A 
ATOM      8  C   UNL     1      -1.638   1.201   0.495  0.00  0.00    +0.000 A 
ATOM      9 CL   UNL     1       1.809  -0.553  -0.619  0.00  0.00    +0.000 Cl
ENDBRANCH   1   7
BRANCH   1  10
ATOM     10  C   UNL     1      -4.567   1.176  -0.581  0.00  0.00    +0.000 C 
ATOM     11  O   UNL     1      -4.059   1.674  -1.578  0.00  0.00    +0.000 OA
BRANCH  10  12
ATOM     12  C   UNL     1      -6.033   1.341  -0.220  0.00  0.00    +0.000 C 
ATOM     13  C   UNL     1      -6.191   2.204   1.034  0.00  0.00    +0.000 C 
ATOM     14  C   UNL     1      -7.661   2.368   1.415  0.00  0.00    +0.000 C 
ATOM     15  C   UNL     1      -8.359   1.019   1.565  0.00  0.00    +0.000 C 
ATOM     16  C   UNL     1      -8.201   0.159   0.314  0.00  0.00    +0.000 C 
ATOM     17  C   UNL     1      -6.732  -0.014  -0.068  0.00  0.00    +0.000 C 
ENDBRANCH  10  12
ENDBRANCH   1  10
TORSDOF 3
