REMARK  Name = *****
REMARK  3 active torsions:
REMARK  status: ('A' for Active; 'I' for Inactive)
REMARK    1  A    between atoms: C_1  and  C_2
REMARK    2  A    between atoms: C_5  and  C_8
REMARK    3  A    between atoms: N_10  and  C_11
REMARK                            x       y       z     vdW  Elec       q    Type
REMARK                         _______ _______ _______ _____ _____    ______ ____
ROOT
ATOM      1  C   UNL     1      -4.584   2.171   1.371  0.00  0.00    +0.000 A 
ATOM      2  C   UNL     1      -5.506   2.531   2.373  0.00  0.00    +0.000 A 
ATOM      3  C   UNL     1      -5.502   3.797   2.952  0.00  0.00    +0.000 A 
ATOM      4  C   UNL     1      -4.575   4.741   2.546  0.00  0.00    +0.000 A 
ATOM      5  C   UNL     1      -3.653   4.419   1.564  0.00  0.00    +0.000 A 
ATOM      6  C   UNL     1      -3.655   3.151   0.983  0.00  0.00    +0.000 A 
ATOM      7  F   UNL     1      -2.736   2.893   0.038  0.00  0.00    +0.000 F 
ATOM      8  F   UNL     1      -2.752   5.330   1.169  0.00  0.00    +0.000 F 
ATOM      9  F   UNL     1      -4.568   5.961   3.102  0.00  0.00    +0.000 F 
ATOM     10  F   UNL     1      -6.396   4.101   3.904  0.00  0.00    +0.000 F 
ATOM     11  F   UNL     1      -6.416   1.636   2.793  0.00  0.00    +0.000 F 
ENDROOT
BRANCH   1  14
ATOM     12  C   UNL     1      -3.446   0.102   0.534  0.00  0.00    +0.000 C 
ATOM     13  C   UNL     1      -4.367   0.584  -0.553  0.00  0.00    +0.000 C 
ATOM     14  N   UNL     1      -4.678   0.853   0.848  0.00  0.00    +0.000 N 
BRANCH  12  19
ATOM     15  C   UNL     1      -3.220  -5.585   1.877  0.00  0.00    +0.000 C 
ATOM     16  C   UNL     1      -3.307  -4.131   1.521  0.00  0.00    +0.000 A 
ATOM     17  C   UNL     1      -2.747  -3.655   0.332  0.00  0.00    +0.000 A 
ATOM     18  C   UNL     1      -2.803  -2.293   0.019  0.00  0.00    +0.000 A 
ATOM     19  C   UNL     1      -3.410  -1.365   0.881  0.00  0.00    +0.000 A 
ATOM     20  C   UNL     1      -3.949  -1.859   2.080  0.00  0.00    +0.000 A 
ATOM     21  C   UNL     1      -3.897  -3.219   2.400  0.00  0.00    +0.000 A 
ENDBRANCH  12  19
ENDBRANCH   1  14
TORSDOF 2
