REMARK  Name = *****
REMARK  5 active torsions:
REMARK  status: ('A' for Active; 'I' for Inactive)
REMARK    1  A    between atoms: C_1  and  O_2
REMARK    2  A    between atoms: O_2  and  C_3
REMARK    3  A    between atoms: C_8  and  C_9
REMARK    4  A    between atoms: C_9  and  C_10
REMARK    5  A    between atoms: C_10  and  C_11
REMARK                            x       y       z     vdW  Elec       q    Type
REMARK                         _______ _______ _______ _____ _____    ______ ____
ROOT
ATOM      1  C   UNL     1       3.548   2.587   0.823  0.00  0.00    +0.000 A 
ATOM      2  C   UNL     1       3.158   2.584   2.167  0.00  0.00    +0.000 A 
ATOM      3  C   UNL     1       3.485   1.509   2.998  0.00  0.00    +0.000 A 
ATOM      4  C   UNL     1       4.201   0.428   2.494  0.00  0.00    +0.000 A 
ATOM      5  C   UNL     1       4.593   0.420   1.157  0.00  0.00    +0.000 A 
ATOM      6  C   UNL     1       4.276   1.497   0.311  0.00  0.00    +0.000 A 
ENDROOT
BRANCH   1   8
ATOM      7  C   UNL     1       2.615   4.748   0.435  0.00  0.00    +0.000 C 
ATOM      8  O   UNL     1       3.264   3.589  -0.069  0.00  0.00    +0.000 OA
ENDBRANCH   1   8
BRANCH   6   9
ATOM      9  C   UNL     1       4.702   1.441  -1.140  0.00  0.00    +0.000 C 
BRANCH   9  10
ATOM     10  C   UNL     1       3.580   0.912  -2.038  0.00  0.00    +0.000 C 
BRANCH  10  11
ATOM     11  C   UNL     1       4.011   0.837  -3.482  0.00  0.00    +0.000 A 
ATOM     12  C   UNL     1       4.634  -0.315  -3.980  0.00  0.00    +0.000 A 
ATOM     13  C   UNL     1       5.050  -0.374  -5.311  0.00  0.00    +0.000 A 
ATOM     14  C   UNL     1       4.850   0.718  -6.154  0.00  0.00    +0.000 A 
ATOM     15  C   UNL     1       4.237   1.871  -5.666  0.00  0.00    +0.000 A 
ATOM     16  C   UNL     1       3.822   1.932  -4.335  0.00  0.00    +0.000 A 
ENDBRANCH  10  11
ENDBRANCH   9  10
ENDBRANCH   6   9
TORSDOF 4
