REMARK  Name = *****
REMARK  1 active torsions:
REMARK  status: ('A' for Active; 'I' for Inactive)
REMARK    1  A    between atoms: C_4  and  C_7
REMARK                            x       y       z     vdW  Elec       q    Type
REMARK                         _______ _______ _______ _____ _____    ______ ____
ROOT
ATOM      1  C   UNL     1      -2.905   0.572  -0.153  0.00  0.00    +0.000 A 
ATOM      2  C   UNL     1      -3.913  -0.128   0.513  0.00  0.00    +0.000 A 
ATOM      3  C   UNL     1      -5.155   0.436   0.206  0.00  0.00    +0.000 A 
ATOM      4  C   UNL     1      -5.115   1.478  -0.632  0.00  0.00    +0.000 A 
ATOM      5  S   UNL     1      -3.568   1.866  -1.123  0.00  0.00    +0.000 S 
ATOM      6  S   UNL     1      -6.625   2.111  -0.966  0.00  0.00    +0.000 S 
ATOM      7  C   UNL     1      -7.364   0.924   0.070  0.00  0.00    +0.000 A 
ATOM      8  C   UNL     1      -6.432   0.070   0.645  0.00  0.00    +0.000 A 
ENDROOT
BRANCH   1  12
ATOM      9  C   UNL     1       1.308  -0.196  -0.100  0.00  0.00    +0.000 A 
ATOM     10  C   UNL     1       0.402  -1.248  -0.211  0.00  0.00    +0.000 A 
ATOM     11  C   UNL     1      -0.972  -0.990  -0.230  0.00  0.00    +0.000 A 
ATOM     12  C   UNL     1      -1.457   0.324  -0.144  0.00  0.00    +0.000 A 
ATOM     13  C   UNL     1      -0.532   1.372  -0.027  0.00  0.00    +0.000 A 
ATOM     14  C   UNL     1       0.842   1.113  -0.007  0.00  0.00    +0.000 A 
ENDBRANCH   1  12
TORSDOF 1
