REMARK  Name = *****
REMARK  2 active torsions:
REMARK  status: ('A' for Active; 'I' for Inactive)
REMARK    1  A    between atoms: C_5  and  C_7
REMARK    2  A    between atoms: C_8  and  C_9
REMARK                            x       y       z     vdW  Elec       q    Type
REMARK                         _______ _______ _______ _____ _____    ______ ____
ROOT
ATOM      1  C   UNL     1       1.708  -2.315  -0.054  0.00  0.00    +0.000 C 
ATOM      2  C   UNL     1       3.049  -2.303  -0.134  0.00  0.00    +0.000 C 
ENDROOT
BRANCH   1   7
ATOM      3  C   UNL     1      -1.493  -0.186   0.123  0.00  0.00    +0.000 C 
ATOM      4  C   UNL     1      -0.868   1.176   0.070  0.00  0.00    +0.000 C 
ATOM      5  C   UNL     1       0.456   1.369  -0.013  0.00  0.00    +0.000 C 
ATOM      6  C   UNL     1       1.454   0.244  -0.063  0.00  0.00    +0.000 C 
ATOM      7  C   UNL     1       0.838  -1.142  -0.011  0.00  0.00    +0.000 C 
ATOM      8  C   UNL     1      -0.498  -1.312   0.073  0.00  0.00    +0.000 C 
ENDBRANCH   1   7
BRANCH   2   9
ATOM      9  C   UNL     1       3.874  -3.520  -0.168  0.00  0.00    +0.000 A 
ATOM     10  C   UNL     1       3.516  -4.642  -0.927  0.00  0.00    +0.000 A 
ATOM     11  C   UNL     1       4.342  -5.769  -0.961  0.00  0.00    +0.000 A 
ATOM     12  C   UNL     1       5.538  -5.781  -0.246  0.00  0.00    +0.000 A 
ATOM     13  C   UNL     1       5.912  -4.664   0.498  0.00  0.00    +0.000 A 
ATOM     14  C   UNL     1       5.087  -3.537   0.532  0.00  0.00    +0.000 A 
ENDBRANCH   2   9
TORSDOF 2
