REMARK  Name = *****
REMARK  2 active torsions:
REMARK  status: ('A' for Active; 'I' for Inactive)
REMARK    1  A    between atoms: C_4  and  C_7
REMARK    2  A    between atoms: C_7  and  C_8
REMARK                            x       y       z     vdW  Elec       q    Type
REMARK                         _______ _______ _______ _____ _____    ______ ____
ROOT
ATOM      1  C   UNL     1      -4.694   2.045  -2.230  0.00  0.00    +0.000 C 
ATOM      2  C   UNL     1      -5.367   1.265  -1.107  0.00  0.00    +0.000 C 
ATOM      3  C   UNL     1      -5.982   0.188  -1.611  0.00  0.00    +0.000 A 
ATOM      4  C   UNL     1      -6.750  -0.839  -0.955  0.00  0.00    +0.000 A 
ATOM      5  C   UNL     1      -7.255  -1.833  -1.715  0.00  0.00    +0.000 A 
ATOM      6  C   UNL     1      -7.037  -1.891  -3.166  0.00  0.00    +0.000 A 
ATOM      7  C   UNL     1      -6.319  -0.956  -3.823  0.00  0.00    +0.000 A 
ATOM      8  C   UNL     1      -5.762   0.130  -3.052  0.00  0.00    +0.000 A 
ATOM      9  C   UNL     1      -5.011   1.170  -3.435  0.00  0.00    +0.000 C 
ATOM     10 CL   UNL     1      -2.921   1.986  -1.949  0.00  0.00    +0.000 Cl
ENDROOT
BRANCH   1  11
ATOM     11  C   UNL     1      -5.259   3.496  -2.367  0.00  0.00    +0.000 C 
ATOM     12 CL   UNL     1      -4.995   4.490  -0.878  0.00  0.00    +0.000 Cl
BRANCH  11  16
ATOM     13  C   UNL     1      -4.007   5.654  -5.918  0.00  0.00    +0.000 A 
ATOM     14  C   UNL     1      -5.263   5.056  -5.859  0.00  0.00    +0.000 A 
ATOM     15  C   UNL     1      -5.658   4.370  -4.708  0.00  0.00    +0.000 A 
ATOM     16  C   UNL     1      -4.802   4.272  -3.597  0.00  0.00    +0.000 A 
ATOM     17  C   UNL     1      -3.539   4.880  -3.677  0.00  0.00    +0.000 A 
ATOM     18  C   UNL     1      -3.146   5.567  -4.828  0.00  0.00    +0.000 A 
ENDBRANCH  11  16
ENDBRANCH   1  11
TORSDOF 2
