REMARK  Name = *****
REMARK  4 active torsions:
REMARK  status: ('A' for Active; 'I' for Inactive)
REMARK    1  A    between atoms: C_1  and  C_2
REMARK    2  A    between atoms: C_2  and  C_4
REMARK    3  A    between atoms: C_9  and  C_10
REMARK    4  A    between atoms: C_11  and  C_12
REMARK                            x       y       z     vdW  Elec       q    Type
REMARK                         _______ _______ _______ _____ _____    ______ ____
ROOT
ATOM      1  C   UNL     1       3.425  -1.024   0.571  0.00  0.00    +0.000 A 
ATOM      2  C   UNL     1       3.108  -2.375   0.347  0.00  0.00    +0.000 A 
ATOM      3  C   UNL     1       3.775  -3.381   1.044  0.00  0.00    +0.000 A 
ATOM      4  C   UNL     1       4.757  -3.044   1.969  0.00  0.00    +0.000 A 
ATOM      5  C   UNL     1       5.079  -1.702   2.192  0.00  0.00    +0.000 A 
ATOM      6  C   UNL     1       4.436  -0.669   1.486  0.00  0.00    +0.000 A 
ENDROOT
BRANCH   1   8
ATOM      7  C   UNL     1       1.177  -0.144  -0.293  0.00  0.00    +0.000 C 
ATOM      8  C   UNL     1       2.675  -0.001  -0.208  0.00  0.00    +0.000 C 
ATOM      9  O   UNL     1       3.266   0.907  -0.783  0.00  0.00    +0.000 OA
ENDBRANCH   1   8
BRANCH   6  10
ATOM     10  C   UNL     1       4.771   0.736   1.793  0.00  0.00    +0.000 C 
ATOM     11  C   UNL     1       6.022   1.176   2.012  0.00  0.00    +0.000 C 
BRANCH  11  12
ATOM     12  C   UNL     1       6.364   2.577   2.303  0.00  0.00    +0.000 A 
ATOM     13  C   UNL     1       5.549   3.403   3.087  0.00  0.00    +0.000 A 
ATOM     14  C   UNL     1       5.930   4.718   3.371  0.00  0.00    +0.000 A 
ATOM     15  C   UNL     1       7.135   5.216   2.882  0.00  0.00    +0.000 A 
ATOM     16  C   UNL     1       7.962   4.401   2.114  0.00  0.00    +0.000 A 
ATOM     17  C   UNL     1       7.581   3.087   1.830  0.00  0.00    +0.000 A 
ENDBRANCH  11  12
ENDBRANCH   6  10
TORSDOF 3
