REMARK  Name = *****
REMARK  2 active torsions:
REMARK  status: ('A' for Active; 'I' for Inactive)
REMARK    1  A    between atoms: C_4  and  C_7
REMARK    2  A    between atoms: C_8  and  C_10
REMARK                            x       y       z     vdW  Elec       q    Type
REMARK                         _______ _______ _______ _____ _____    ______ ____
ROOT
ATOM      1  C   UNL     1       2.526  -0.056  -0.429  0.00  0.00    +0.000 C 
ATOM      2  C   UNL     1       3.121  -0.040  -1.816  0.00  0.00    +0.000 C 
ATOM      3  O   UNL     1       3.008  -1.253  -1.058  0.00  0.00    +0.000 OA
ENDROOT
BRANCH   1   7
ATOM      4  C   UNL     1       3.502   1.649   3.436  0.00  0.00    +0.000 C 
ATOM      5  C   UNL     1       3.638   0.140   3.260  0.00  0.00    +0.000 C 
ATOM      6  C   UNL     1       2.890  -0.353   2.023  0.00  0.00    +0.000 C 
ATOM      7  C   UNL     1       3.331   0.396   0.757  0.00  0.00    +0.000 C 
ATOM      8  C   UNL     1       3.190   1.913   0.944  0.00  0.00    +0.000 C 
ATOM      9  C   UNL     1       3.937   2.402   2.182  0.00  0.00    +0.000 C 
ENDBRANCH   1   7
BRANCH   2  10
ATOM     10  C   UNL     1       2.237   0.023  -3.030  0.00  0.00    +0.000 C 
ATOM     11  C   UNL     1       2.901  -0.688  -4.218  0.00  0.00    +0.000 C 
ATOM     12  C   UNL     1       2.061  -0.575  -5.487  0.00  0.00    +0.000 C 
ATOM     13  C   UNL     1       1.742   0.879  -5.823  0.00  0.00    +0.000 C 
ATOM     14  C   UNL     1       1.082   1.595  -4.649  0.00  0.00    +0.000 C 
ATOM     15  C   UNL     1       1.921   1.485  -3.379  0.00  0.00    +0.000 C 
ENDBRANCH   2  10
TORSDOF 2
