REMARK  Name = *****
REMARK  3 active torsions:
REMARK  status: ('A' for Active; 'I' for Inactive)
REMARK    1  A    between atoms: C_4  and  C_7
REMARK    2  A    between atoms: N_9  and  C_10
REMARK    3  A    between atoms: N_9  and  O_18
REMARK                            x       y       z     vdW  Elec       q    Type
REMARK                         _______ _______ _______ _____ _____    ______ ____
ROOT
ATOM      1  C   UNL     1      -2.707   0.451  -0.298  0.00  0.00    +0.000 C 
ATOM      2  O   UNL     1      -1.502   0.332  -0.087  0.00  0.00    +0.000 OA
ATOM      3  N   UNL     1      -3.656  -0.568  -0.230  0.00  0.00    +0.000 N 
ENDROOT
BRANCH   3   4
ATOM      4  C   UNL     1      -3.320  -1.934  -0.026  0.00  0.00    +0.000 A 
ATOM      5  C   UNL     1      -2.510  -2.371   1.041  0.00  0.00    +0.000 A 
ATOM      6  C   UNL     1      -2.178  -3.726   1.170  0.00  0.00    +0.000 A 
ATOM      7  C   UNL     1      -2.666  -4.662   0.259  0.00  0.00    +0.000 A 
ATOM      8  C   UNL     1      -3.505  -4.245  -0.769  0.00  0.00    +0.000 A 
ATOM      9  C   UNL     1      -3.841  -2.898  -0.908  0.00  0.00    +0.000 A 
ATOM     10 CL   UNL     1      -4.130  -5.400  -1.881  0.00  0.00    +0.000 Cl
ATOM     11 CL   UNL     1      -2.048  -1.340   2.355  0.00  0.00    +0.000 Cl
ENDBRANCH   3   4
BRANCH   1  15
ATOM     12  C   UNL     1      -4.025   4.416  -1.165  0.00  0.00    +0.000 A 
ATOM     13  C   UNL     1      -4.180   3.418  -2.129  0.00  0.00    +0.000 A 
ATOM     14  C   UNL     1      -3.756   2.116  -1.859  0.00  0.00    +0.000 A 
ATOM     15  C   UNL     1      -3.191   1.815  -0.615  0.00  0.00    +0.000 A 
ATOM     16  C   UNL     1      -3.013   2.820   0.341  0.00  0.00    +0.000 A 
ATOM     17  C   UNL     1      -3.438   4.120   0.066  0.00  0.00    +0.000 A 
ENDBRANCH   1  15
BRANCH   3  18
ATOM     18  O   UNL     1      -4.887  -0.356  -0.895  0.00  0.00    +0.000 OA
ATOM     19  H   UNL     1      -5.040   0.597  -0.994  0.00  0.00    +0.000 HD
ENDBRANCH   3  18
TORSDOF 3
