REMARK  Name = *****
REMARK  5 active torsions:
REMARK  status: ('A' for Active; 'I' for Inactive)
REMARK    1  A    between atoms: C_1  and  O_2
REMARK    2  A    between atoms: O_2  and  P_3
REMARK    3  A    between atoms: P_3  and  C_5
REMARK    4  A    between atoms: P_3  and  C_11
REMARK    5  A    between atoms: C_11  and  C_12
REMARK                            x       y       z     vdW  Elec       q    Type
REMARK                         _______ _______ _______ _____ _____    ______ ____
ROOT
ATOM      1  P   UNL     1       3.013   1.478  -0.600  0.00  0.00    +0.000 P 
ATOM      2  O   UNL     1       3.538   1.727   0.835  0.00  0.00    +0.000 OA
ENDROOT
BRANCH   1   3
ATOM      3  C   UNL     1       4.332   0.536  -1.635  0.00  0.00    +0.000 A 
ATOM      4  C   UNL     1       4.084   0.154  -2.962  0.00  0.00    +0.000 A 
ATOM      5  C   UNL     1       5.076  -0.508  -3.694  0.00  0.00    +0.000 A 
ATOM      6  C   UNL     1       6.310  -0.803  -3.107  0.00  0.00    +0.000 A 
ATOM      7  C   UNL     1       6.552  -0.440  -1.784  0.00  0.00    +0.000 A 
ATOM      8  C   UNL     1       5.570   0.223  -1.047  0.00  0.00    +0.000 A 
ENDBRANCH   1   3
BRANCH   1   9
ATOM      9  C   UNL     1       3.623   3.111  -1.158  0.00  0.00    +0.000 C 
ATOM     10  F   UNL     1       3.128   3.952  -0.203  0.00  0.00    +0.000 F 
ATOM     11  F   UNL     1       4.973   3.106  -1.028  0.00  0.00    +0.000 F 
BRANCH   9  12
ATOM     12  C   UNL     1       3.098   3.532  -2.525  0.00  0.00    +0.000 A 
ATOM     13  C   UNL     1       1.849   3.073  -2.995  0.00  0.00    +0.000 A 
ATOM     14  C   UNL     1       1.334   3.514  -4.216  0.00  0.00    +0.000 A 
ATOM     15  C   UNL     1       2.043   4.440  -4.966  0.00  0.00    +0.000 A 
ATOM     16  C   UNL     1       3.274   4.915  -4.517  0.00  0.00    +0.000 A 
ATOM     17  C   UNL     1       3.802   4.462  -3.302  0.00  0.00    +0.000 A 
ATOM     18 CL   UNL     1       1.381   5.020  -6.445  0.00  0.00    +0.000 Cl
ENDBRANCH   9  12
ENDBRANCH   1   9
BRANCH   1  20
ATOM     19  C   UNL     1       1.131  -0.016   0.475  0.00  0.00    +0.000 C 
ATOM     20  O   UNL     1       2.436  -0.066  -0.073  0.00  0.00    +0.000 OA
ENDBRANCH   1  20
TORSDOF 4
