REMARK  Name = *****
REMARK  3 active torsions:
REMARK  status: ('A' for Active; 'I' for Inactive)
REMARK    1  A    between atoms: C_1  and  C_2
REMARK    2  A    between atoms: C_5  and  C_8
REMARK    3  A    between atoms: C_9  and  C_10
REMARK                            x       y       z     vdW  Elec       q    Type
REMARK                         _______ _______ _______ _____ _____    ______ ____
ROOT
ATOM      1  C   UNL     1       6.826   0.079  -0.727  0.00  0.00    +0.000 C 
ATOM      2  C   UNL     1       8.004   0.096  -0.961  0.00  0.00    +0.000 C 
ENDROOT
BRANCH   1   7
ATOM      3  C   UNL     1       1.195  -0.050   0.362  0.00  0.00    +0.000 C 
ATOM      4  C   UNL     1       2.673  -0.013   0.106  0.00  0.00    +0.000 A 
ATOM      5  C   UNL     1       3.329   1.208  -0.095  0.00  0.00    +0.000 A 
ATOM      6  C   UNL     1       4.699   1.240  -0.366  0.00  0.00    +0.000 A 
ATOM      7  C   UNL     1       5.423   0.049  -0.449  0.00  0.00    +0.000 A 
ATOM      8  C   UNL     1       4.774  -1.172  -0.265  0.00  0.00    +0.000 A 
ATOM      9  C   UNL     1       3.403  -1.203   0.006  0.00  0.00    +0.000 A 
ENDBRANCH   1   7
BRANCH   2  10
ATOM     10  C   UNL     1       9.407   0.112  -1.239  0.00  0.00    +0.000 A 
ATOM     11  C   UNL     1      10.079   1.330  -1.369  0.00  0.00    +0.000 A 
ATOM     12  C   UNL     1      11.450   1.349  -1.641  0.00  0.00    +0.000 A 
ATOM     13  C   UNL     1      12.154   0.151  -1.783  0.00  0.00    +0.000 A 
ATOM     14  C   UNL     1      11.486  -1.067  -1.653  0.00  0.00    +0.000 A 
ATOM     15  C   UNL     1      10.120  -1.080  -1.382  0.00  0.00    +0.000 A 
ATOM     16  F   UNL     1       9.500  -2.264  -1.262  0.00  0.00    +0.000 F 
ENDBRANCH   2  10
TORSDOF 2
