REMARK  Name = *****
REMARK  1 active torsions:
REMARK  status: ('A' for Active; 'I' for Inactive)
REMARK    1  A    between atoms: C_3  and  C_4
REMARK                            x       y       z     vdW  Elec       q    Type
REMARK                         _______ _______ _______ _____ _____    ______ ____
ROOT
ATOM      1  C   UNL     1       0.044   2.520  -0.009  0.00  0.00    +0.000 C 
ATOM      2  C   UNL     1       1.253   3.340  -0.014  0.00  0.00    +0.000 C 
ATOM      3  C   UNL     1       0.854   4.621  -0.019  0.00  0.00    +0.000 C 
ATOM      4  C   UNL     1       1.617   5.845  -0.025  0.00  0.00    +0.000 C 
ATOM      5  C   UNL     1       0.941   7.012  -0.029  0.00  0.00    +0.000 C 
ATOM      6  C   UNL     1      -0.527   7.065  -0.028  0.00  0.00    +0.000 C 
ATOM      7  C   UNL     1      -1.288   5.950  -0.022  0.00  0.00    +0.000 C 
ATOM      8  C   UNL     1      -0.614   4.673  -0.018  0.00  0.00    +0.000 C 
ATOM      9  C   UNL     1      -1.104   3.424  -0.012  0.00  0.00    +0.000 C 
ENDROOT
BRANCH   1  12
ATOM     10  C   UNL     1       0.646  -0.983   0.003  0.00  0.00    +0.000 C 
ATOM     11  C   UNL     1       1.138   0.270  -0.002  0.00  0.00    +0.000 C 
ATOM     12  C   UNL     1      -0.003   1.179  -0.004  0.00  0.00    +0.000 C 
ATOM     13  C   UNL     1      -1.201   0.354  -0.000  0.00  0.00    +0.000 C 
ATOM     14  C   UNL     1      -0.803  -0.928   0.004  0.00  0.00    +0.000 C 
ENDBRANCH   1  12
TORSDOF 1
