REMARK  Name = *****
REMARK  3 active torsions:
REMARK  status: ('A' for Active; 'I' for Inactive)
REMARK    1  A    between atoms: C_4  and  C_7
REMARK    2  A    between atoms: C_8  and  C_9
REMARK    3  A    between atoms: C_14  and  N_15
REMARK                            x       y       z     vdW  Elec       q    Type
REMARK                         _______ _______ _______ _____ _____    ______ ____
ROOT
ATOM      1  C   UNL     1       1.932  -0.025  -0.027  0.00  0.00    +0.000 A 
ATOM      2  C   UNL     1       2.655   1.165   0.125  0.00  0.00    +0.000 A 
ATOM      3  C   UNL     1       4.050   1.145   0.133  0.00  0.00    +0.000 A 
ATOM      4  C   UNL     1       4.729  -0.061  -0.018  0.00  0.00    +0.000 A 
ATOM      5  C   UNL     1       4.014  -1.250  -0.170  0.00  0.00    +0.000 A 
ATOM      6  C   UNL     1       2.610  -1.255  -0.157  0.00  0.00    +0.000 A 
ENDROOT
BRANCH   6   7
ATOM      7  N   UNL     1       1.939  -2.481  -0.348  0.00  0.00    +0.000 NA
ATOM      8  C   UNL     1       1.563  -2.939   0.666  0.00  0.00    +0.000 C 
ATOM      9  O   UNL     1       1.188  -3.409   1.677  0.00  0.00    +0.000 OA
ENDBRANCH   6   7
BRANCH   1  11
ATOM     10  C   UNL     1      -0.701   0.080  -0.052  0.00  0.00    +0.000 C 
ATOM     11  C   UNL     1       0.499   0.041  -0.044  0.00  0.00    +0.000 C 
BRANCH  10  15
ATOM     12  C   UNL     1      -4.924   0.157  -0.055  0.00  0.00    +0.000 A 
ATOM     13  C   UNL     1      -4.248  -1.060   0.030  0.00  0.00    +0.000 A 
ATOM     14  C   UNL     1      -2.852  -1.085   0.031  0.00  0.00    +0.000 A 
ATOM     15  C   UNL     1      -2.131   0.108  -0.054  0.00  0.00    +0.000 A 
ATOM     16  C   UNL     1      -2.809   1.326  -0.139  0.00  0.00    +0.000 A 
ATOM     17  C   UNL     1      -4.205   1.350  -0.139  0.00  0.00    +0.000 A 
ENDBRANCH  10  15
ENDBRANCH   1  11
TORSDOF 3
