REMARK  Name = *****
REMARK  2 active torsions:
REMARK  status: ('A' for Active; 'I' for Inactive)
REMARK    1  A    between atoms: C_6  and  C_7
REMARK    2  A    between atoms: C_8  and  C_9
REMARK                            x       y       z     vdW  Elec       q    Type
REMARK                         _______ _______ _______ _____ _____    ______ ____
ROOT
ATOM      1  C   UNL     1      -3.424   0.053  -0.056  0.00  0.00    +0.000 C 
ATOM      2  C   UNL     1      -4.191   1.147   0.079  0.00  0.00    +0.000 C 
ENDROOT
BRANCH   1   8
ATOM      3  C   UNL     1      -1.207   1.092  -0.631  0.00  0.00    +0.000 A 
ATOM      4  C   UNL     1       0.190   1.064  -0.597  0.00  0.00    +0.000 A 
ATOM      5  C   UNL     1       0.838   0.016   0.044  0.00  0.00    +0.000 A 
ATOM      6  C   UNL     1       0.118  -1.008   0.646  0.00  0.00    +0.000 A 
ATOM      7  C   UNL     1      -1.278  -0.980   0.611  0.00  0.00    +0.000 A 
ATOM      8  C   UNL     1      -1.955   0.077  -0.015  0.00  0.00    +0.000 A 
ATOM      9  F   UNL     1       2.177  -0.012   0.075  0.00  0.00    +0.000 F 
ENDBRANCH   1   8
BRANCH   2  10
ATOM     10  C   UNL     1      -5.660   1.126   0.040  0.00  0.00    +0.000 A 
ATOM     11  C   UNL     1      -6.410   0.102   0.636  0.00  0.00    +0.000 A 
ATOM     12  C   UNL     1      -7.808   0.134   0.606  0.00  0.00    +0.000 A 
ATOM     13  C   UNL     1      -8.463   1.196  -0.011  0.00  0.00    +0.000 A 
ATOM     14  C   UNL     1      -7.734   2.229  -0.594  0.00  0.00    +0.000 A 
ATOM     15  C   UNL     1      -6.336   2.196  -0.562  0.00  0.00    +0.000 A 
ATOM     16 CL   UNL     1     -10.183   1.237  -0.047  0.00  0.00    +0.000 Cl
ENDBRANCH   2  10
TORSDOF 2
