REMARK  Name = *****
REMARK  4 active torsions:
REMARK  status: ('A' for Active; 'I' for Inactive)
REMARK    1  A    between atoms: C_1  and  C_2
REMARK    2  A    between atoms: C_5  and  C_8
REMARK    3  A    between atoms: C_10  and  C_11
REMARK    4  A    between atoms: C_14  and  C_17
REMARK                            x       y       z     vdW  Elec       q    Type
REMARK                         _______ _______ _______ _____ _____    ______ ____
ROOT
ATOM      1  C   UNL     1      -3.177   0.366   0.001  0.00  0.00    +0.000 C 
ATOM      2  C   UNL     1      -3.964   1.234  -0.947  0.00  0.00    +0.000 C 
ATOM      3  C   UNL     1      -3.685   1.730   0.449  0.00  0.00    +0.000 C 
ENDROOT
BRANCH   1   8
ATOM      4  C   UNL     1       2.548  -0.502  -0.828  0.00  0.00    +0.000 C 
ATOM      5  C   UNL     1       1.079  -0.304  -0.607  0.00  0.00    +0.000 A 
ATOM      6  C   UNL     1       0.606   0.210   0.603  0.00  0.00    +0.000 A 
ATOM      7  C   UNL     1      -0.763   0.424   0.795  0.00  0.00    +0.000 A 
ATOM      8  C   UNL     1      -1.697   0.150  -0.216  0.00  0.00    +0.000 A 
ATOM      9  C   UNL     1      -1.204  -0.361  -1.426  0.00  0.00    +0.000 A 
ATOM     10  C   UNL     1       0.163  -0.578  -1.626  0.00  0.00    +0.000 A 
ENDBRANCH   1   8
BRANCH   3  11
ATOM     11  C   UNL     1      -4.802   1.818   1.462  0.00  0.00    +0.000 A 
ATOM     12  C   UNL     1      -4.701   1.194   2.716  0.00  0.00    +0.000 A 
ATOM     13  C   UNL     1      -5.726   1.286   3.663  0.00  0.00    +0.000 A 
ATOM     14  C   UNL     1      -6.889   2.005   3.378  0.00  0.00    +0.000 A 
ATOM     15  C   UNL     1      -6.995   2.653   2.145  0.00  0.00    +0.000 A 
ATOM     16  C   UNL     1      -5.966   2.557   1.204  0.00  0.00    +0.000 A 
ATOM     17  C   UNL     1      -7.977   2.136   4.402  0.00  0.00    +0.000 C 
ENDBRANCH   3  11
TORSDOF 2
