REMARK  Name = *****
REMARK  4 active torsions:
REMARK  status: ('A' for Active; 'I' for Inactive)
REMARK    1  A    between atoms: C_1  and  C_2
REMARK    2  A    between atoms: C_5  and  C_8
REMARK    3  A    between atoms: N_9  and  C_10
REMARK    4  A    between atoms: C_13  and  C_16
REMARK                            x       y       z     vdW  Elec       q    Type
REMARK                         _______ _______ _______ _____ _____    ______ ____
ROOT
ATOM      1  C   UNL     1      -3.260  -0.112  -0.280  0.00  0.00    +0.000 C 
ATOM      2  N   UNL     1      -3.910  -1.225  -0.116  0.00  0.00    +0.000 NA
ATOM      3 CL   UNL     1      -4.274   1.248  -0.667  0.00  0.00    +0.000 Cl
ENDROOT
BRANCH   1   8
ATOM      4  C   UNL     1       2.449   0.756   0.102  0.00  0.00    +0.000 C 
ATOM      5  C   UNL     1       0.964   0.555   0.014  0.00  0.00    +0.000 A 
ATOM      6  C   UNL     1       0.271   0.885  -1.157  0.00  0.00    +0.000 A 
ATOM      7  C   UNL     1      -1.106   0.667  -1.250  0.00  0.00    +0.000 A 
ATOM      8  C   UNL     1      -1.793   0.097  -0.174  0.00  0.00    +0.000 A 
ATOM      9  C   UNL     1      -1.110  -0.236   0.999  0.00  0.00    +0.000 A 
ATOM     10  C   UNL     1       0.266  -0.017   1.086  0.00  0.00    +0.000 A 
ENDBRANCH   1   8
BRANCH   2  11
ATOM     11  C   UNL     1      -3.243  -2.431   0.132  0.00  0.00    +0.000 A 
ATOM     12  C   UNL     1      -3.389  -3.050   1.374  0.00  0.00    +0.000 A 
ATOM     13  C   UNL     1      -2.753  -4.265   1.643  0.00  0.00    +0.000 A 
ATOM     14  C   UNL     1      -1.982  -4.893   0.658  0.00  0.00    +0.000 A 
ATOM     15  C   UNL     1      -1.848  -4.279  -0.593  0.00  0.00    +0.000 A 
ATOM     16  C   UNL     1      -2.487  -3.065  -0.857  0.00  0.00    +0.000 A 
ATOM     17  C   UNL     1      -1.273  -6.181   0.953  0.00  0.00    +0.000 C 
ENDBRANCH   2  11
TORSDOF 2
