REMARK  Name = *****
REMARK  2 active torsions:
REMARK  status: ('A' for Active; 'I' for Inactive)
REMARK    1  A    between atoms: C_4  and  C_7
REMARK    2  A    between atoms: C_8  and  C_9
REMARK                            x       y       z     vdW  Elec       q    Type
REMARK                         _______ _______ _______ _____ _____    ______ ____
ROOT
ATOM      1  C   UNL     1      -2.831   0.396  -0.630  0.00  0.00    +0.000 C 
ATOM      2  C   UNL     1      -3.429   1.493  -0.126  0.00  0.00    +0.000 C 
ATOM      3  I   UNL     1      -3.798  -1.050  -1.770  0.00  0.00    +0.000 I 
ENDROOT
BRANCH   1   7
ATOM      4  C   UNL     1       1.327  -0.131   0.219  0.00  0.00    +0.000 A 
ATOM      5  C   UNL     1       0.372  -0.833   0.953  0.00  0.00    +0.000 A 
ATOM      6  C   UNL     1      -0.986  -0.664   0.674  0.00  0.00    +0.000 A 
ATOM      7  C   UNL     1      -1.396   0.208  -0.343  0.00  0.00    +0.000 A 
ATOM      8  C   UNL     1      -0.429   0.911  -1.075  0.00  0.00    +0.000 A 
ATOM      9  C   UNL     1       0.928   0.740  -0.794  0.00  0.00    +0.000 A 
ENDBRANCH   1   7
BRANCH   2  10
ATOM     10  C   UNL     1      -4.836   1.866  -0.289  0.00  0.00    +0.000 A 
ATOM     11  C   UNL     1      -5.764   1.547   0.701  0.00  0.00    +0.000 A 
ATOM     12  C   UNL     1      -7.083   1.923   0.507  0.00  0.00    +0.000 A 
ATOM     13  N   UNL     1      -7.523   2.584  -0.585  0.00  0.00    +0.000 NA
ATOM     14  C   UNL     1      -6.604   2.878  -1.529  0.00  0.00    +0.000 A 
ATOM     15  C   UNL     1      -5.263   2.547  -1.428  0.00  0.00    +0.000 A 
ENDBRANCH   2  10
TORSDOF 2
