REMARK  Name = *****
REMARK  2 active torsions:
REMARK  status: ('A' for Active; 'I' for Inactive)
REMARK    1  A    between atoms: C_1  and  C_2
REMARK    2  A    between atoms: C_7  and  N_8
REMARK                            x       y       z     vdW  Elec       q    Type
REMARK                         _______ _______ _______ _____ _____    ______ ____
ROOT
ATOM      1  N   UNL     1       1.486  -2.564   0.011  0.00  0.00    +0.000 N 
ATOM      2  C   UNL     1       1.104  -3.986  -0.014  0.00  0.00    +0.000 C 
ATOM      3  C   UNL     1       2.362  -4.813  -0.013  0.00  0.00    +0.000 A 
ATOM      4  C   UNL     1       2.423  -6.204  -0.032  0.00  0.00    +0.000 A 
ATOM      5  C   UNL     1       3.674  -6.825  -0.033  0.00  0.00    +0.000 A 
ATOM      6  C   UNL     1       4.847  -6.058  -0.015  0.00  0.00    +0.000 A 
ATOM      7  C   UNL     1       4.777  -4.664   0.005  0.00  0.00    +0.000 A 
ATOM      8  C   UNL     1       3.529  -4.059   0.006  0.00  0.00    +0.000 A 
ATOM      9  S   UNL     1       3.170  -2.335   0.028  0.00  0.00    +0.000 S 
ENDROOT
BRANCH   1  16
ATOM     10  C   UNL     1      -1.624  -2.900  -0.058  0.00  0.00    +0.000 C 
ATOM     11  C   UNL     1      -0.851  -1.606  -0.037  0.00  0.00    +0.000 A 
ATOM     12  C   UNL     1      -1.667  -0.442  -0.057  0.00  0.00    +0.000 A 
ATOM     13  C   UNL     1      -1.130   0.838  -0.039  0.00  0.00    +0.000 A 
ATOM     14  C   UNL     1       0.240   0.984   0.000  0.00  0.00    +0.000 A 
ATOM     15  C   UNL     1       1.059  -0.152   0.018  0.00  0.00    +0.000 A 
ATOM     16  C   UNL     1       0.567  -1.487  -0.003  0.00  0.00    +0.000 A 
ENDBRANCH   1  16
TORSDOF 1
