REMARK  Name = *****
REMARK  4 active torsions:
REMARK  status: ('A' for Active; 'I' for Inactive)
REMARK    1  A    between atoms: C_1  and  C_2
REMARK    2  A    between atoms: C_5  and  C_8
REMARK    3  A    between atoms: C_8  and  P_9
REMARK    4  A    between atoms: P_9  and  C_11
REMARK                            x       y       z     vdW  Elec       q    Type
REMARK                         _______ _______ _______ _____ _____    ______ ____
ROOT
ATOM      1  P   UNL     1      -4.138   1.437   0.310  0.00  0.00    +0.000 P 
ATOM      2  O   UNL     1      -3.739   2.756  -0.302  0.00  0.00    +0.000 OA
ATOM      3 CL   UNL     1      -3.554   1.394   2.238  0.00  0.00    +0.000 Cl
ENDROOT
BRANCH   1   4
ATOM      4  C   UNL     1      -5.879   1.110   0.405  0.00  0.00    +0.000 A 
ATOM      5  C   UNL     1      -6.387  -0.033   1.040  0.00  0.00    +0.000 A 
ATOM      6  C   UNL     1      -7.763  -0.271   1.084  0.00  0.00    +0.000 A 
ATOM      7  C   UNL     1      -8.646   0.629   0.493  0.00  0.00    +0.000 A 
ATOM      8  C   UNL     1      -8.157   1.770  -0.140  0.00  0.00    +0.000 A 
ATOM      9  C   UNL     1      -6.782   2.008  -0.183  0.00  0.00    +0.000 A 
ENDBRANCH   1   4
BRANCH   1  10
ATOM     10  C   UNL     1      -3.297   0.030  -0.453  0.00  0.00    +0.000 C 
BRANCH  10  15
ATOM     11  C   UNL     1       2.528   0.037  -0.364  0.00  0.00    +0.000 C 
ATOM     12  C   UNL     1       1.029   0.012  -0.412  0.00  0.00    +0.000 A 
ATOM     13  C   UNL     1       0.310  -0.954   0.298  0.00  0.00    +0.000 A 
ATOM     14  C   UNL     1      -1.087  -0.954   0.283  0.00  0.00    +0.000 A 
ATOM     15  C   UNL     1      -1.789   0.022  -0.436  0.00  0.00    +0.000 A 
ATOM     16  C   UNL     1      -1.069   0.997  -1.134  0.00  0.00    +0.000 A 
ATOM     17  C   UNL     1       0.328   0.996  -1.117  0.00  0.00    +0.000 A 
ENDBRANCH  10  15
ENDBRANCH   1  10
TORSDOF 3
