REMARK  Name = *****
REMARK  4 active torsions:
REMARK  status: ('A' for Active; 'I' for Inactive)
REMARK    1  A    between atoms: C_1  and  C_2
REMARK    2  A    between atoms: C_5  and  C_8
REMARK    3  A    between atoms: C_8  and  S_10
REMARK    4  A    between atoms: S_10  and  C_11
REMARK                            x       y       z     vdW  Elec       q    Type
REMARK                         _______ _______ _______ _____ _____    ______ ____
ROOT
ATOM      1  C   UNL     1      -3.383  -0.329   0.051  0.00  0.00    +0.000 C 
ATOM      2  O   UNL     1      -3.858  -1.438  -0.163  0.00  0.00    +0.000 OA
ENDROOT
BRANCH   1   7
ATOM      3  C   UNL     1       2.407   0.222   0.138  0.00  0.00    +0.000 C 
ATOM      4  C   UNL     1       0.912   0.107   0.090  0.00  0.00    +0.000 A 
ATOM      5  C   UNL     1       0.105   1.236   0.268  0.00  0.00    +0.000 A 
ATOM      6  C   UNL     1      -1.291   1.126   0.255  0.00  0.00    +0.000 A 
ATOM      7  C   UNL     1      -1.903  -0.122   0.075  0.00  0.00    +0.000 A 
ATOM      8  C   UNL     1      -1.089  -1.253  -0.088  0.00  0.00    +0.000 A 
ATOM      9  C   UNL     1       0.304  -1.141  -0.075  0.00  0.00    +0.000 A 
ENDBRANCH   1   7
BRANCH   1  10
ATOM     10  S   UNL     1      -4.436   1.060   0.313  0.00  0.00    +0.000 S 
BRANCH  10  11
ATOM     11  C   UNL     1      -5.243   0.577   1.827  0.00  0.00    +0.000 A 
ATOM     12  C   UNL     1      -5.036   1.333   2.986  0.00  0.00    +0.000 A 
ATOM     13  C   UNL     1      -5.673   0.983   4.181  0.00  0.00    +0.000 A 
ATOM     14  C   UNL     1      -6.523  -0.120   4.214  0.00  0.00    +0.000 A 
ATOM     15  C   UNL     1      -6.744  -0.874   3.064  0.00  0.00    +0.000 A 
ATOM     16  C   UNL     1      -6.108  -0.522   1.871  0.00  0.00    +0.000 A 
ATOM     17 CL   UNL     1      -7.307  -0.551   5.684  0.00  0.00    +0.000 Cl
ENDBRANCH  10  11
ENDBRANCH   1  10
TORSDOF 3
