REMARK  Name = *****
REMARK  5 active torsions:
REMARK  status: ('A' for Active; 'I' for Inactive)
REMARK    1  A    between atoms: C_1  and  C_2
REMARK    2  A    between atoms: C_5  and  S_8
REMARK    3  A    between atoms: S_8  and  N_10
REMARK    4  A    between atoms: N_10  and  C_11
REMARK    5  A    between atoms: N_10  and  C_12
REMARK                            x       y       z     vdW  Elec       q    Type
REMARK                         _______ _______ _______ _____ _____    ______ ____
ROOT
ATOM      1  S   UNL     1      -3.733   0.352   1.624  0.00  0.00    +0.000 S 
ATOM      2  O   UNL     1      -3.550   0.616   3.091  0.00  0.00    +0.000 OA
ENDROOT
BRANCH   1   7
ATOM      3  C   UNL     1       1.995  -0.066  -0.562  0.00  0.00    +0.000 C 
ATOM      4  C   UNL     1       0.591   0.036  -0.042  0.00  0.00    +0.000 A 
ATOM      5  C   UNL     1      -0.491   0.193  -0.915  0.00  0.00    +0.000 A 
ATOM      6  C   UNL     1      -1.794   0.296  -0.417  0.00  0.00    +0.000 A 
ATOM      7  C   UNL     1      -2.033   0.257   0.962  0.00  0.00    +0.000 A 
ATOM      8  C   UNL     1      -0.950   0.096   1.833  0.00  0.00    +0.000 A 
ATOM      9  C   UNL     1       0.352  -0.008   1.336  0.00  0.00    +0.000 A 
ENDBRANCH   1   7
BRANCH   1  10
ATOM     10  N   UNL     1      -4.099   1.802   0.811  0.00  0.00    +0.000 N 
ATOM     11  C   UNL     1      -3.725   3.018   1.538  0.00  0.00    +0.000 C 
BRANCH  10  12
ATOM     12  C   UNL     1      -5.270   1.849   0.008  0.00  0.00    +0.000 A 
ATOM     13  C   UNL     1      -6.066   3.003  -0.113  0.00  0.00    +0.000 A 
ATOM     14  C   UNL     1      -7.206   3.025  -0.925  0.00  0.00    +0.000 A 
ATOM     15  C   UNL     1      -7.584   1.903  -1.651  0.00  0.00    +0.000 A 
ATOM     16  C   UNL     1      -6.813   0.751  -1.567  0.00  0.00    +0.000 A 
ATOM     17  C   UNL     1      -5.673   0.730  -0.753  0.00  0.00    +0.000 A 
ATOM     18 CL   UNL     1      -8.152   4.461  -1.027  0.00  0.00    +0.000 Cl
ENDBRANCH  10  12
ENDBRANCH   1  10
TORSDOF 3
