REMARK  Name = *****
REMARK  5 active torsions:
REMARK  status: ('A' for Active; 'I' for Inactive)
REMARK    1  A    between atoms: C_1  and  O_2
REMARK    2  A    between atoms: O_2  and  C_3
REMARK    3  A    between atoms: C_3  and  C_13
REMARK    4  A    between atoms: N_4  and  C_5
REMARK    5  A    between atoms: C_5  and  C_11
REMARK                            x       y       z     vdW  Elec       q    Type
REMARK                         _______ _______ _______ _____ _____    ______ ____
ROOT
ATOM      1  C   UNL     1       2.875   1.040  -0.806  0.00  0.00    +0.000 C 
ATOM      2  N   UNL     1       2.248   1.705  -1.708  0.00  0.00    +0.000 NA
ENDROOT
BRANCH   2   3
ATOM      3  C   UNL     1       0.770   1.777  -1.736  0.00  0.00    +0.000 C 
ATOM      4  C   UNL     1       0.433   2.756  -2.888  0.00  0.00    +0.000 C 
ATOM      5  C   UNL     1      -1.055   2.802  -3.236  0.00  0.00    +0.000 C 
ATOM      6  C   UNL     1      -1.599   1.412  -3.538  0.00  0.00    +0.000 C 
ATOM      7  C   UNL     1      -1.323   0.444  -2.394  0.00  0.00    +0.000 C 
ATOM      8  C   UNL     1       0.164   0.392  -2.037  0.00  0.00    +0.000 C 
BRANCH   3   9
ATOM      9  C   UNL     1       0.268   2.344  -0.455  0.00  0.00    +0.000 C 
ATOM     10  N   UNL     1      -0.128   2.790   0.543  0.00  0.00    +0.000 NA
ENDBRANCH   3   9
ENDBRANCH   2   3
BRANCH   1  11
ATOM     11  C   UNL     1       4.356   0.952  -0.793  0.00  0.00    +0.000 A 
ATOM     12  C   UNL     1       5.106   2.059  -1.203  0.00  0.00    +0.000 A 
ATOM     13  C   UNL     1       6.500   1.993  -1.210  0.00  0.00    +0.000 A 
ATOM     14  C   UNL     1       7.145   0.818  -0.819  0.00  0.00    +0.000 A 
ATOM     15  C   UNL     1       6.399  -0.293  -0.426  0.00  0.00    +0.000 A 
ATOM     16  C   UNL     1       5.004  -0.231  -0.418  0.00  0.00    +0.000 A 
ENDBRANCH   1  11
BRANCH   1  18
ATOM     17  C   UNL     1       2.585   0.666   1.524  0.00  0.00    +0.000 C 
ATOM     18  O   UNL     1       2.250   0.337   0.165  0.00  0.00    +0.000 OA
ENDBRANCH   1  18
TORSDOF 4
