REMARK  Name = *****
REMARK  3 active torsions:
REMARK  status: ('A' for Active; 'I' for Inactive)
REMARK    1  A    between atoms: C_1  and  C_2
REMARK    2  A    between atoms: N_10  and  C_11
REMARK    3  A    between atoms: C_11  and  C_12
REMARK                            x       y       z     vdW  Elec       q    Type
REMARK                         _______ _______ _______ _____ _____    ______ ____
ROOT
ATOM      1  C   UNL     1       1.012  -0.453   1.179  0.00  0.00    +0.000 C 
ATOM      2  C   UNL     1       2.208  -0.190   0.266  0.00  0.00    +0.000 C 
ATOM      3  C   UNL     1       3.252  -1.320   0.350  0.00  0.00    +0.000 C 
ATOM      4  C   UNL     1       4.326  -0.711   1.186  0.00  0.00    +0.000 A 
ATOM      5  C   UNL     1       5.442  -1.349   1.706  0.00  0.00    +0.000 A 
ATOM      6  C   UNL     1       6.369  -0.586   2.417  0.00  0.00    +0.000 A 
ATOM      7  C   UNL     1       6.178   0.793   2.589  0.00  0.00    +0.000 A 
ATOM      8  C   UNL     1       5.054   1.431   2.054  0.00  0.00    +0.000 A 
ATOM      9  C   UNL     1       4.134   0.659   1.357  0.00  0.00    +0.000 A 
ATOM     10  N   UNL     1       2.931   1.054   0.732  0.00  0.00    +0.000 N 
ENDROOT
BRANCH  10  11
ATOM     11  C   UNL     1       2.575   2.295   0.655  0.00  0.00    +0.000 C 
BRANCH  11  12
ATOM     12  C   UNL     1       1.361   2.787  -0.013  0.00  0.00    +0.000 A 
ATOM     13  C   UNL     1       0.487   3.584   0.730  0.00  0.00    +0.000 A 
ATOM     14  C   UNL     1      -0.666   4.086   0.126  0.00  0.00    +0.000 A 
ATOM     15  C   UNL     1      -0.930   3.806  -1.215  0.00  0.00    +0.000 A 
ATOM     16  C   UNL     1      -0.039   3.034  -1.961  0.00  0.00    +0.000 A 
ATOM     17  C   UNL     1       1.116   2.527  -1.365  0.00  0.00    +0.000 A 
ENDBRANCH  11  12
ENDBRANCH  10  11
TORSDOF 2
