REMARK  Name = *****
REMARK  5 active torsions:
REMARK  status: ('A' for Active; 'I' for Inactive)
REMARK    1  A    between atoms: C_1  and  C_2
REMARK    2  A    between atoms: C_2  and  C_4
REMARK    3  A    between atoms: C_9  and  C_10
REMARK    4  A    between atoms: C_10  and  C_11
REMARK    5  A    between atoms: C_11  and  C_12
REMARK                            x       y       z     vdW  Elec       q    Type
REMARK                         _______ _______ _______ _____ _____    ______ ____
ROOT
ATOM      1  C   UNL     1       3.456  -2.573   1.465  0.00  0.00    +0.000 A 
ATOM      2  C   UNL     1       3.271  -3.495   0.418  0.00  0.00    +0.000 A 
ATOM      3  C   UNL     1       3.801  -3.257  -0.851  0.00  0.00    +0.000 A 
ATOM      4  C   UNL     1       4.519  -2.093  -1.094  0.00  0.00    +0.000 A 
ATOM      5  C   UNL     1       4.706  -1.168  -0.069  0.00  0.00    +0.000 A 
ATOM      6  C   UNL     1       4.184  -1.389   1.223  0.00  0.00    +0.000 A 
ENDROOT
BRANCH   1   8
ATOM      7  C   UNL     1       2.667  -4.329   3.187  0.00  0.00    +0.000 C 
ATOM      8  C   UNL     1       2.844  -2.882   2.798  0.00  0.00    +0.000 C 
ATOM      9  O   UNL     1       2.461  -1.987   3.545  0.00  0.00    +0.000 OA
ENDBRANCH   1   8
BRANCH   6  10
ATOM     10  C   UNL     1       4.432  -0.311   2.258  0.00  0.00    +0.000 C 
BRANCH  10  11
ATOM     11  C   UNL     1       3.352   0.777   2.206  0.00  0.00    +0.000 C 
BRANCH  11  12
ATOM     12  C   UNL     1       3.685   1.989   3.088  0.00  0.00    +0.000 C 
ATOM     13  C   UNL     1       2.492   3.003   3.140  0.00  0.00    +0.000 C 
ATOM     14  C   UNL     1       3.131   4.323   2.656  0.00  0.00    +0.000 C 
ATOM     15  C   UNL     1       4.081   3.812   1.572  0.00  0.00    +0.000 C 
ATOM     16  C   UNL     1       4.832   2.879   2.530  0.00  0.00    +0.000 C 
ATOM     17  C   UNL     1       5.178   3.891   3.603  0.00  0.00    +0.000 C 
ATOM     18  C   UNL     1       4.154   4.754   3.680  0.00  0.00    +0.000 C 
ENDBRANCH  11  12
ENDBRANCH  10  11
ENDBRANCH   6  10
TORSDOF 4
