REMARK  Name = *****
REMARK  3 active torsions:
REMARK  status: ('A' for Active; 'I' for Inactive)
REMARK    1  A    between atoms: C_6  and  S_8
REMARK    2  A    between atoms: S_8  and  C_10
REMARK    3  A    between atoms: C_10  and  C_11
REMARK                            x       y       z     vdW  Elec       q    Type
REMARK                         _______ _______ _______ _____ _____    ______ ____
ROOT
ATOM      1  S   UNL     1      -2.691   1.503   1.190  0.00  0.00    +0.000 S 
ATOM      2  O   UNL     1      -2.884   0.894   2.550  0.00  0.00    +0.000 OA
ENDROOT
BRANCH   1   8
ATOM      3  C   UNL     1      -0.350  -0.482  -1.261  0.00  0.00    +0.000 C 
ATOM      4  C   UNL     1       0.413  -0.769   0.043  0.00  0.00    +0.000 C 
ATOM      5  C   UNL     1       1.412   0.374  -0.053  0.00  0.00    +0.000 C 
ATOM      6  C   UNL     1       0.767   1.421  -0.610  0.00  0.00    +0.000 C 
ATOM      7  C   UNL     1      -0.662   0.971  -0.871  0.00  0.00    +0.000 C 
ATOM      8  C   UNL     1      -1.326   0.677   0.463  0.00  0.00    +0.000 C 
ATOM      9  C   UNL     1      -0.683  -0.374   1.013  0.00  0.00    +0.000 C 
ENDBRANCH   1   8
BRANCH   1  10
ATOM     10  C   UNL     1      -1.899   3.132   1.403  0.00  0.00    +0.000 C 
BRANCH  10  11
ATOM     11  C   UNL     1      -2.875   4.178   1.877  0.00  0.00    +0.000 A 
ATOM     12  C   UNL     1      -3.281   4.214   3.219  0.00  0.00    +0.000 A 
ATOM     13  C   UNL     1      -4.188   5.177   3.661  0.00  0.00    +0.000 A 
ATOM     14  C   UNL     1      -4.701   6.114   2.767  0.00  0.00    +0.000 A 
ATOM     15  C   UNL     1      -4.310   6.086   1.429  0.00  0.00    +0.000 A 
ATOM     16  C   UNL     1      -3.403   5.123   0.985  0.00  0.00    +0.000 A 
ENDBRANCH  10  11
ENDBRANCH   1  10
TORSDOF 3
