REMARK  Name = *****
REMARK  2 active torsions:
REMARK  status: ('A' for Active; 'I' for Inactive)
REMARK    1  A    between atoms: C_8  and  C_9
REMARK    2  A    between atoms: C_10  and  C_11
REMARK                            x       y       z     vdW  Elec       q    Type
REMARK                         _______ _______ _______ _____ _____    ______ ____
ROOT
ATOM      1  C   UNL     1       2.369   0.618  -0.579  0.00  0.00    +0.000 C 
ATOM      2  C   UNL     1       0.861   0.854  -0.793  0.00  0.00    +0.000 C 
ATOM      3  C   UNL     1       0.624   1.654   0.482  0.00  0.00    +0.000 C 
ATOM      4  C   UNL     1       1.400   1.108   1.437  0.00  0.00    +0.000 C 
ATOM      5  C   UNL     1       2.147  -0.052   0.791  0.00  0.00    +0.000 C 
ATOM      6  C   UNL     1       1.136  -1.163   0.470  0.00  0.00    +0.000 C 
ATOM      7  C   UNL     1       0.263  -0.549  -0.605  0.00  0.00    +0.000 C 
ATOM      8  C   UNL     1       0.991  -1.851  -0.872  0.00  0.00    +0.000 C 
ENDROOT
BRANCH   8   9
ATOM      9  C   UNL     1       0.193  -3.083  -0.940  0.00  0.00    +0.000 C 
ATOM     10  C   UNL     1       0.539  -4.258  -0.388  0.00  0.00    +0.000 C 
BRANCH  10  11
ATOM     11  C   UNL     1      -0.271  -5.481  -0.463  0.00  0.00    +0.000 A 
ATOM     12  C   UNL     1      -0.957  -5.854  -1.627  0.00  0.00    +0.000 A 
ATOM     13  C   UNL     1      -1.692  -7.041  -1.670  0.00  0.00    +0.000 A 
ATOM     14  C   UNL     1      -1.741  -7.873  -0.553  0.00  0.00    +0.000 A 
ATOM     15  C   UNL     1      -1.051  -7.520   0.605  0.00  0.00    +0.000 A 
ATOM     16  C   UNL     1      -0.315  -6.334   0.647  0.00  0.00    +0.000 A 
ENDBRANCH  10  11
ENDBRANCH   8   9
TORSDOF 2
