REMARK  Name = *****
REMARK  2 active torsions:
REMARK  status: ('A' for Active; 'I' for Inactive)
REMARK    1  A    between atoms: C_2  and  C_11
REMARK    2  A    between atoms: C_3  and  C_4
REMARK                            x       y       z     vdW  Elec       q    Type
REMARK                         _______ _______ _______ _____ _____    ______ ____
ROOT
ATOM      1  C   UNL     1      -0.010   0.650   0.014  0.00  0.00    +0.000 C 
ATOM      2  C   UNL     1       0.753  -0.632   0.208  0.00  0.00    +0.000 C 
ATOM      3  C   UNL     1      -0.704  -0.664  -0.243  0.00  0.00    +0.000 C 
ENDROOT
BRANCH   3   4
ATOM      4  C   UNL     1      -1.793  -1.148   0.699  0.00  0.00    +0.000 A 
ATOM      5  C   UNL     1      -1.583  -2.291   1.496  0.00  0.00    +0.000 A 
ATOM      6  C   UNL     1      -2.562  -2.777   2.368  0.00  0.00    +0.000 A 
ATOM      7  C   UNL     1      -3.791  -2.135   2.459  0.00  0.00    +0.000 A 
ATOM      8  C   UNL     1      -4.042  -1.014   1.672  0.00  0.00    +0.000 A 
ATOM      9  C   UNL     1      -3.057  -0.532   0.800  0.00  0.00    +0.000 A 
ATOM     10 BR   UNL     1      -3.511   0.978  -0.266  0.00  0.00    +0.000 Br
ENDBRANCH   3   4
BRANCH   2  11
ATOM     11  C   UNL     1       1.844  -1.023  -0.761  0.00  0.00    +0.000 A 
ATOM     12  C   UNL     1       2.933  -0.174  -1.012  0.00  0.00    +0.000 A 
ATOM     13  C   UNL     1       3.942  -0.550  -1.894  0.00  0.00    +0.000 A 
ATOM     14  C   UNL     1       3.905  -1.775  -2.546  0.00  0.00    +0.000 A 
ATOM     15  C   UNL     1       2.841  -2.639  -2.308  0.00  0.00    +0.000 A 
ATOM     16  C   UNL     1       1.825  -2.265  -1.422  0.00  0.00    +0.000 A 
ATOM     17  F   UNL     1       4.968   0.283  -2.115  0.00  0.00    +0.000 F 
ENDBRANCH   2  11
TORSDOF 2
