REMARK  Name = *****
REMARK  5 active torsions:
REMARK  status: ('A' for Active; 'I' for Inactive)
REMARK    1  A    between atoms: C_1  and  C_2
REMARK    2  A    between atoms: C_5  and  N_8
REMARK    3  A    between atoms: N_8  and  C_9
REMARK    4  A    between atoms: C_10  and  C_12
REMARK    5  A    between atoms: C_17  and  S_18
REMARK                            x       y       z     vdW  Elec       q    Type
REMARK                         _______ _______ _______ _____ _____    ______ ____
ROOT
ATOM      1  N   UNL     1      -3.369   0.168  -0.220  0.00  0.00    +0.000 N 
ATOM      2  C   UNL     1      -3.994  -1.034  -0.786  0.00  0.00    +0.000 C 
ATOM      3  C   UNL     1      -4.157   1.268   0.176  0.00  0.00    +0.000 C 
ATOM      4  O   UNL     1      -3.774   2.372   0.556  0.00  0.00    +0.000 OA
ENDROOT
BRANCH   1   9
ATOM      5  C   UNL     1       2.413   0.033   0.277  0.00  0.00    +0.000 C 
ATOM      6  C   UNL     1       0.922   0.082   0.132  0.00  0.00    +0.000 A 
ATOM      7  C   UNL     1       0.224   1.279   0.277  0.00  0.00    +0.000 A 
ATOM      8  C   UNL     1      -1.175   1.314   0.160  0.00  0.00    +0.000 A 
ATOM      9  C   UNL     1      -1.924   0.158  -0.096  0.00  0.00    +0.000 A 
ATOM     10  C   UNL     1      -1.200  -1.042  -0.226  0.00  0.00    +0.000 A 
ATOM     11  C   UNL     1       0.197  -1.082  -0.112  0.00  0.00    +0.000 A 
ENDBRANCH   1   9
BRANCH   3  12
ATOM     12  C   UNL     1      -5.626   1.101   0.196  0.00  0.00    +0.000 A 
ATOM     13  C   UNL     1      -6.182   0.338   1.234  0.00  0.00    +0.000 A 
ATOM     14  C   UNL     1      -7.563   0.165   1.304  0.00  0.00    +0.000 A 
ATOM     15  C   UNL     1      -8.385   0.760   0.348  0.00  0.00    +0.000 A 
ATOM     16  C   UNL     1      -7.830   1.537  -0.674  0.00  0.00    +0.000 A 
ATOM     17  C   UNL     1      -6.445   1.729  -0.756  0.00  0.00    +0.000 A 
BRANCH  17  18
ATOM     18  S   UNL     1      -5.816   2.728  -2.096  0.00  0.00    +0.000 S 
ATOM     19  H   UNL     1      -4.460   2.799  -2.010  0.00  0.00    +0.000 HD
ENDBRANCH  17  18
ENDBRANCH   3  12
TORSDOF 3
