REMARK  Name = *****
REMARK  5 active torsions:
REMARK  status: ('A' for Active; 'I' for Inactive)
REMARK    1  A    between atoms: C_1  and  C_2
REMARK    2  A    between atoms: C_5  and  C_8
REMARK    3  A    between atoms: C_8  and  C_10
REMARK    4  A    between atoms: C_10  and  C_11
REMARK    5  A    between atoms: C_11  and  C_12
REMARK                            x       y       z     vdW  Elec       q    Type
REMARK                         _______ _______ _______ _____ _____    ______ ____
ROOT
ATOM      1  C   UNL     1      -3.097   0.119  -0.565  0.00  0.00    +0.000 C 
ATOM      2  O   UNL     1      -3.625  -0.904  -1.002  0.00  0.00    +0.000 OA
ENDROOT
BRANCH   1   7
ATOM      3  C   UNL     1       2.594  -0.064   0.605  0.00  0.00    +0.000 C 
ATOM      4  C   UNL     1       1.130   0.004   0.282  0.00  0.00    +0.000 A 
ATOM      5  C   UNL     1       0.425  -1.157  -0.050  0.00  0.00    +0.000 A 
ATOM      6  C   UNL     1      -0.945  -1.099  -0.322  0.00  0.00    +0.000 A 
ATOM      7  C   UNL     1      -1.634   0.119  -0.253  0.00  0.00    +0.000 A 
ATOM      8  C   UNL     1      -0.932   1.279   0.091  0.00  0.00    +0.000 A 
ATOM      9  C   UNL     1       0.440   1.218   0.363  0.00  0.00    +0.000 A 
ENDBRANCH   1   7
BRANCH   1  10
ATOM     10  C   UNL     1      -3.912   1.378  -0.373  0.00  0.00    +0.000 C 
BRANCH  10  11
ATOM     11  C   UNL     1      -3.916   2.197  -1.658  0.00  0.00    +0.000 C 
BRANCH  11  12
ATOM     12  C   UNL     1      -4.649   3.492  -1.482  0.00  0.00    +0.000 A 
ATOM     13  C   UNL     1      -5.987   3.752  -1.706  0.00  0.00    +0.000 A 
ATOM     14  C   UNL     1      -6.328   5.107  -1.429  0.00  0.00    +0.000 A 
ATOM     15  C   UNL     1      -5.240   5.836  -1.005  0.00  0.00    +0.000 A 
ATOM     16  S   UNL     1      -3.818   4.890  -0.942  0.00  0.00    +0.000 S 
ENDBRANCH  11  12
ENDBRANCH  10  11
ENDBRANCH   1  10
TORSDOF 4
