REMARK  Name = *****
REMARK  5 active torsions:
REMARK  status: ('A' for Active; 'I' for Inactive)
REMARK    1  A    between atoms: C_1  and  O_2
REMARK    2  A    between atoms: O_2  and  C_3
REMARK    3  A    between atoms: C_6  and  C_9
REMARK    4  A    between atoms: C_9  and  C_10
REMARK    5  A    between atoms: C_10  and  C_11
REMARK                            x       y       z     vdW  Elec       q    Type
REMARK                         _______ _______ _______ _____ _____    ______ ____
ROOT
ATOM      1  C   UNL     1       2.887   1.016   0.841  0.00  0.00    +0.000 A 
ATOM      2  C   UNL     1       2.432   2.300   0.540  0.00  0.00    +0.000 A 
ATOM      3  C   UNL     1       3.143   3.421   0.984  0.00  0.00    +0.000 A 
ATOM      4  C   UNL     1       4.318   3.273   1.731  0.00  0.00    +0.000 A 
ATOM      5  C   UNL     1       4.766   1.984   2.036  0.00  0.00    +0.000 A 
ATOM      6  C   UNL     1       4.056   0.867   1.590  0.00  0.00    +0.000 A 
ENDROOT
BRANCH   1   8
ATOM      7  C   UNL     1       1.089  -0.057  -0.282  0.00  0.00    +0.000 C 
ATOM      8  O   UNL     1       2.291  -0.158   0.470  0.00  0.00    +0.000 OA
ENDBRANCH   1   8
BRANCH   4   9
ATOM      9  C   UNL     1       5.071   4.483   2.227  0.00  0.00    +0.000 C 
BRANCH   9  10
ATOM     10  C   UNL     1       4.608   4.899   3.627  0.00  0.00    +0.000 C 
BRANCH  10  11
ATOM     11  C   UNL     1       5.246   6.219   4.118  0.00  0.00    +0.000 C 
ATOM     12  C   UNL     1       6.780   6.162   4.225  0.00  0.00    +0.000 C 
ATOM     13  C   UNL     1       7.259   5.181   5.300  0.00  0.00    +0.000 C 
ATOM     14  C   UNL     1       6.453   5.261   6.563  0.00  0.00    +0.000 C 
ATOM     15  C   UNL     1       5.291   5.925   6.651  0.00  0.00    +0.000 C 
ATOM     16  C   UNL     1       4.658   6.631   5.485  0.00  0.00    +0.000 C 
ENDBRANCH  10  11
ENDBRANCH   9  10
ENDBRANCH   4   9
TORSDOF 4
