REMARK  Name = *****
REMARK  2 active torsions:
REMARK  status: ('A' for Active; 'I' for Inactive)
REMARK    1  A    between atoms: C_1  and  C_2
REMARK    2  A    between atoms: C_9  and  C_11
REMARK                            x       y       z     vdW  Elec       q    Type
REMARK                         _______ _______ _______ _____ _____    ______ ____
ROOT
ATOM      1  C   UNL     1       0.998   0.133  -0.109  0.00  0.00    +0.000 C 
ATOM      2  C   UNL     1       2.491   0.079  -0.113  0.00  0.00    +0.000 A 
ATOM      3  C   UNL     1       3.177  -1.151  -0.146  0.00  0.00    +0.000 A 
ATOM      4  C   UNL     1       4.577  -1.215  -0.153  0.00  0.00    +0.000 A 
ATOM      5  C   UNL     1       5.365  -0.060  -0.129  0.00  0.00    +0.000 A 
ATOM      6  C   UNL     1       4.705   1.173  -0.098  0.00  0.00    +0.000 A 
ATOM      7  C   UNL     1       3.319   1.203  -0.091  0.00  0.00    +0.000 A 
ATOM      8  O   UNL     1       2.935   2.512  -0.061  0.00  0.00    +0.000 OA
ATOM      9  C   UNL     1       4.117   3.211  -0.050  0.00  0.00    +0.000 A 
ATOM     10  N   UNL     1       5.200   2.452  -0.071  0.00  0.00    +0.000 NA
ATOM     11 CL   UNL     1       5.348  -2.756  -0.193  0.00  0.00    +0.000 Cl
ENDROOT
BRANCH   9  12
ATOM     12  C   UNL     1       4.018   4.669  -0.018  0.00  0.00    +0.000 A 
ATOM     13  C   UNL     1       2.780   5.330   0.003  0.00  0.00    +0.000 A 
ATOM     14  C   UNL     1       2.716   6.726   0.033  0.00  0.00    +0.000 A 
ATOM     15  C   UNL     1       3.888   7.478   0.043  0.00  0.00    +0.000 A 
ATOM     16  C   UNL     1       5.125   6.838   0.023  0.00  0.00    +0.000 A 
ATOM     17  C   UNL     1       5.188   5.443  -0.007  0.00  0.00    +0.000 A 
ENDBRANCH   9  12
TORSDOF 1
