REMARK  Name = *****
REMARK  5 active torsions:
REMARK  status: ('A' for Active; 'I' for Inactive)
REMARK    1  A    between atoms: C_1  and  C_2
REMARK    2  A    between atoms: C_7  and  C_8
REMARK    3  A    between atoms: C_8  and  O_10
REMARK    4  A    between atoms: O_10  and  C_11
REMARK    5  A    between atoms: C_12  and  C_18
REMARK                            x       y       z     vdW  Elec       q    Type
REMARK                         _______ _______ _______ _____ _____    ______ ____
ROOT
ATOM      1  C   UNL     1       0.969  -2.392  -0.360  0.00  0.00    +0.000 C 
ATOM      2  O   UNL     1       0.493  -3.470  -0.039  0.00  0.00    +0.000 OA
ENDROOT
BRANCH   1   9
ATOM      3  C   UNL     1       2.560   0.012   0.647  0.00  0.00    +0.000 C 
ATOM      4  C   UNL     1       1.071   0.028   0.448  0.00  0.00    +0.000 A 
ATOM      5  C   UNL     1       0.369   1.216   0.715  0.00  0.00    +0.000 A 
ATOM      6  C   UNL     1      -1.020   1.277   0.574  0.00  0.00    +0.000 A 
ATOM      7  C   UNL     1      -1.731   0.154   0.165  0.00  0.00    +0.000 A 
ATOM      8  C   UNL     1      -1.051  -1.029  -0.119  0.00  0.00    +0.000 A 
ATOM      9  C   UNL     1       0.347  -1.094  -0.001  0.00  0.00    +0.000 A 
ENDBRANCH   1   9
BRANCH   1  10
ATOM     10  O   UNL     1       2.046  -2.154  -1.192  0.00  0.00    +0.000 OA
BRANCH  10  11
ATOM     11  C   UNL     1       2.568  -3.320  -1.764  0.00  0.00    +0.000 A 
ATOM     12  C   UNL     1       3.776  -3.848  -1.288  0.00  0.00    +0.000 A 
ATOM     13  C   UNL     1       4.295  -4.987  -1.921  0.00  0.00    +0.000 A 
ATOM     14  C   UNL     1       3.625  -5.561  -3.005  0.00  0.00    +0.000 A 
ATOM     15  C   UNL     1       2.435  -5.011  -3.479  0.00  0.00    +0.000 A 
ATOM     16  C   UNL     1       1.906  -3.879  -2.862  0.00  0.00    +0.000 A 
ATOM     17 CL   UNL     1       4.281  -6.957  -3.769  0.00  0.00    +0.000 Cl
ATOM     18  C   UNL     1       4.498  -3.228  -0.131  0.00  0.00    +0.000 C 
ENDBRANCH  10  11
ENDBRANCH   1  10
TORSDOF 3
