REMARK  Name = *****
REMARK  3 active torsions:
REMARK  status: ('A' for Active; 'I' for Inactive)
REMARK    1  A    between atoms: C_1  and  C_2
REMARK    2  A    between atoms: C_4  and  C_7
REMARK    3  A    between atoms: C_8  and  C_9
REMARK                            x       y       z     vdW  Elec       q    Type
REMARK                         _______ _______ _______ _____ _____    ______ ____
ROOT
ATOM      1  C   UNL     1       2.022  -2.391  -0.092  0.00  0.00    +0.000 C 
ATOM      2  C   UNL     1       1.608  -3.668  -0.026  0.00  0.00    +0.000 C 
ENDROOT
BRANCH   2   3
ATOM      3  C   UNL     1       2.503  -4.832  -0.053  0.00  0.00    +0.000 A 
ATOM      4  C   UNL     1       3.727  -4.852   0.630  0.00  0.00    +0.000 A 
ATOM      5  C   UNL     1       4.538  -5.991   0.602  0.00  0.00    +0.000 A 
ATOM      6  C   UNL     1       4.123  -7.120  -0.100  0.00  0.00    +0.000 A 
ATOM      7  C   UNL     1       2.902  -7.122  -0.769  0.00  0.00    +0.000 A 
ATOM      8  C   UNL     1       2.092  -5.983  -0.740  0.00  0.00    +0.000 A 
ATOM      9 CL   UNL     1       5.120  -8.521  -0.133  0.00  0.00    +0.000 Cl
ENDBRANCH   2   3
BRANCH   1  13
ATOM     10  C   UNL     1      -2.284  -0.069   0.068  0.00  0.00    +0.000 C 
ATOM     11  C   UNL     1      -0.811  -0.261  -0.005  0.00  0.00    +0.000 A 
ATOM     12  N   UNL     1      -0.212  -1.433   0.000  0.00  0.00    +0.000 NA
ATOM     13  C   UNL     1       1.155  -1.257  -0.079  0.00  0.00    +0.000 A 
ATOM     14  C   UNL     1       1.584   0.051  -0.143  0.00  0.00    +0.000 A 
ATOM     15  S   UNL     1       0.231   1.104  -0.102  0.00  0.00    +0.000 S 
ENDBRANCH   1  13
TORSDOF 2
