REMARK  Name = *****
REMARK  2 active torsions:
REMARK  status: ('A' for Active; 'I' for Inactive)
REMARK    1  A    between atoms: C_4  and  O_7
REMARK    2  A    between atoms: O_7  and  P_8
REMARK                            x       y       z     vdW  Elec       q    Type
REMARK                         _______ _______ _______ _____ _____    ______ ____
ROOT
ATOM      1  P   UNL     1      -3.623  -1.118  -1.573  0.00  0.00    +0.000 P 
ATOM      2  O   UNL     1      -4.356  -2.482  -1.023  0.00  0.00    +0.000 OA
ATOM      3  C   UNL     1      -5.707  -2.285  -0.941  0.00  0.00    +0.000 A 
ATOM      4  C   UNL     1      -6.635  -3.215  -0.523  0.00  0.00    +0.000 A 
ATOM      5  C   UNL     1      -7.978  -2.825  -0.506  0.00  0.00    +0.000 A 
ATOM      6  C   UNL     1      -8.355  -1.527  -0.902  0.00  0.00    +0.000 A 
ATOM      7  C   UNL     1      -7.396  -0.600  -1.320  0.00  0.00    +0.000 A 
ATOM      8  C   UNL     1      -6.078  -1.007  -1.330  0.00  0.00    +0.000 A 
ATOM      9  O   UNL     1      -5.007  -0.243  -1.703  0.00  0.00    +0.000 OA
ENDROOT
BRANCH   1  10
ATOM     10  O   UNL     1      -3.119  -0.533  -0.153  0.00  0.00    +0.000 OA
BRANCH  10  14
ATOM     11  C   UNL     1       0.346  -1.321   2.025  0.00  0.00    +0.000 A 
ATOM     12  C   UNL     1       0.114  -2.053   0.862  0.00  0.00    +0.000 A 
ATOM     13  C   UNL     1      -1.036  -1.821   0.101  0.00  0.00    +0.000 A 
ATOM     14  C   UNL     1      -1.958  -0.851   0.504  0.00  0.00    +0.000 A 
ATOM     15  C   UNL     1      -1.720  -0.124   1.674  0.00  0.00    +0.000 A 
ATOM     16  C   UNL     1      -0.572  -0.356   2.433  0.00  0.00    +0.000 A 
ENDBRANCH  10  14
ENDBRANCH   1  10
TORSDOF 2
