REMARK  Name = *****
REMARK  5 active torsions:
REMARK  status: ('A' for Active; 'I' for Inactive)
REMARK    1  A    between atoms: C_1  and  C_2
REMARK    2  A    between atoms: C_5  and  C_8
REMARK    3  A    between atoms: C_8  and  O_10
REMARK    4  A    between atoms: O_10  and  C_11
REMARK    5  A    between atoms: C_14  and  C_16
REMARK                            x       y       z     vdW  Elec       q    Type
REMARK                         _______ _______ _______ _____ _____    ______ ____
ROOT
ATOM      1  C   UNL     1      -2.792  -0.687   1.077  0.00  0.00    +0.000 C 
ATOM      2  O   UNL     1      -3.253  -1.816   1.012  0.00  0.00    +0.000 OA
ENDROOT
BRANCH   1   7
ATOM      3  C   UNL     1       2.536   0.450  -0.934  0.00  0.00    +0.000 C 
ATOM      4  C   UNL     1       1.143   0.180  -0.448  0.00  0.00    +0.000 A 
ATOM      5  C   UNL     1       0.376   1.208   0.114  0.00  0.00    +0.000 A 
ATOM      6  C   UNL     1      -0.908   0.951   0.605  0.00  0.00    +0.000 A 
ATOM      7  C   UNL     1      -1.438  -0.345   0.551  0.00  0.00    +0.000 A 
ATOM      8  C   UNL     1      -0.666  -1.376  -0.002  0.00  0.00    +0.000 A 
ATOM      9  C   UNL     1       0.616  -1.116  -0.492  0.00  0.00    +0.000 A 
ENDBRANCH   1   7
BRANCH   1  10
ATOM     10  O   UNL     1      -3.362   0.418   1.610  0.00  0.00    +0.000 OA
BRANCH  10  11
ATOM     11  C   UNL     1      -4.558   0.336   2.220  0.00  0.00    +0.000 A 
ATOM     12  N   UNL     1      -5.071   1.503   2.619  0.00  0.00    +0.000 NA
ATOM     13  O   UNL     1      -6.271   1.184   3.235  0.00  0.00    +0.000 OA
ATOM     14  C   UNL     1      -6.451  -0.165   3.200  0.00  0.00    +0.000 A 
ATOM     15  C   UNL     1      -5.383  -0.750   2.563  0.00  0.00    +0.000 A 
ATOM     16  C   UNL     1      -7.677  -0.687   3.828  0.00  0.00    +0.000 C 
ENDBRANCH  10  11
ENDBRANCH   1  10
TORSDOF 3
