REMARK  Name = *****
REMARK  4 active torsions:
REMARK  status: ('A' for Active; 'I' for Inactive)
REMARK    1  A    between atoms: C_2  and  C_3
REMARK    2  A    between atoms: C_6  and  N_9
REMARK    3  A    between atoms: N_9  and  C_10
REMARK    4  A    between atoms: C_10  and  C_11
REMARK                            x       y       z     vdW  Elec       q    Type
REMARK                         _______ _______ _______ _____ _____    ______ ____
ROOT
ATOM      1  N   UNL     1       5.164   2.235   4.348  0.00  0.00    +0.000 NA
ENDROOT
BRANCH   1   5
ATOM      2  C   UNL     1       2.817   1.041   1.048  0.00  0.00    +0.000 A 
ATOM      3  C   UNL     1       2.288   1.897   2.023  0.00  0.00    +0.000 A 
ATOM      4  C   UNL     1       3.063   2.294   3.117  0.00  0.00    +0.000 A 
ATOM      5  C   UNL     1       4.367   1.821   3.274  0.00  0.00    +0.000 A 
ATOM      6  C   UNL     1       4.899   0.975   2.301  0.00  0.00    +0.000 A 
ATOM      7  C   UNL     1       4.129   0.576   1.203  0.00  0.00    +0.000 A 
BRANCH   2   9
ATOM      8  C   UNL     1       2.392   0.379  -1.311  0.00  0.00    +0.000 C 
ATOM      9  C   UNL     1       1.958   0.620  -0.068  0.00  0.00    +0.000 C 
ENDBRANCH   2   9
ENDBRANCH   1   5
BRANCH   1  10
ATOM     10  C   UNL     1       5.002   1.736   5.539  0.00  0.00    +0.000 C 
ATOM     11  O   UNL     1       5.606   2.004   6.595  0.00  0.00    +0.000 OA
BRANCH  10  12
ATOM     12  C   UNL     1       4.007   0.666   5.875  0.00  0.00    +0.000 A 
ATOM     13  C   UNL     1       4.238  -0.649   5.453  0.00  0.00    +0.000 A 
ATOM     14  C   UNL     1       3.292  -1.641   5.713  0.00  0.00    +0.000 A 
ATOM     15  C   UNL     1       2.114  -1.321   6.392  0.00  0.00    +0.000 A 
ATOM     16  C   UNL     1       1.879  -0.010   6.813  0.00  0.00    +0.000 A 
ATOM     17  C   UNL     1       2.823   0.985   6.553  0.00  0.00    +0.000 A 
ENDBRANCH  10  12
ENDBRANCH   1  10
TORSDOF 4
