REMARK  Name = *****
REMARK  3 active torsions:
REMARK  status: ('A' for Active; 'I' for Inactive)
REMARK    1  A    between atoms: C_4  and  C_6
REMARK    2  A    between atoms: C_6  and  C_15
REMARK    3  A    between atoms: C_7  and  C_8
REMARK                            x       y       z     vdW  Elec       q    Type
REMARK                         _______ _______ _______ _____ _____    ______ ____
ROOT
ATOM      1  C   UNL     1      -0.062  -2.763   0.233  0.00  0.00    +0.000 C 
ATOM      2  C   UNL     1      -1.262  -3.263  -0.133  0.00  0.00    +0.000 C 
ENDROOT
BRANCH   2   3
ATOM      3  C   UNL     1      -1.650  -4.679  -0.086  0.00  0.00    +0.000 A 
ATOM      4  C   UNL     1      -1.759  -5.362   1.132  0.00  0.00    +0.000 A 
ATOM      5  C   UNL     1      -2.143  -6.706   1.153  0.00  0.00    +0.000 A 
ATOM      6  C   UNL     1      -2.425  -7.365  -0.042  0.00  0.00    +0.000 A 
ATOM      7  C   UNL     1      -2.329  -6.691  -1.258  0.00  0.00    +0.000 A 
ATOM      8  C   UNL     1      -1.945  -5.348  -1.280  0.00  0.00    +0.000 A 
ATOM      9 CL   UNL     1      -2.900  -9.018  -0.016  0.00  0.00    +0.000 Cl
ENDBRANCH   2   3
BRANCH   1  13
ATOM     10  C   UNL     1       1.235   0.709  -0.310  0.00  0.00    +0.000 A 
ATOM     11  C   UNL     1       0.048   1.129   0.239  0.00  0.00    +0.000 A 
ATOM     12  S   UNL     1      -0.953  -0.180   0.683  0.00  0.00    +0.000 S 
ATOM     13  C   UNL     1       0.187  -1.352   0.118  0.00  0.00    +0.000 A 
ATOM     14  C   UNL     1       1.318  -0.713  -0.371  0.00  0.00    +0.000 A 
ENDBRANCH   1  13
BRANCH   1  15
ATOM     15  C   UNL     1       1.000  -3.616   0.679  0.00  0.00    +0.000 C 
ATOM     16  N   UNL     1       1.870  -4.295   1.040  0.00  0.00    +0.000 NA
ENDBRANCH   1  15
TORSDOF 3
