REMARK  Name = *****
REMARK  4 active torsions:
REMARK  status: ('A' for Active; 'I' for Inactive)
REMARK    1  A    between atoms: C_1  and  C_2
REMARK    2  A    between atoms: C_7  and  C_8
REMARK    3  A    between atoms: C_8  and  C_9
REMARK    4  A    between atoms: C_10  and  C_11
REMARK                            x       y       z     vdW  Elec       q    Type
REMARK                         _______ _______ _______ _____ _____    ______ ____
ROOT
ATOM      1  C   UNL     1       1.002  -2.462   0.203  0.00  0.00    +0.000 C 
ENDROOT
BRANCH   1   8
ATOM      2  C   UNL     1      -0.549  -1.364  -2.153  0.00  0.00    +0.000 C 
ATOM      3  C   UNL     1      -0.378  -0.584  -0.878  0.00  0.00    +0.000 A 
ATOM      4  C   UNL     1      -0.963   0.690  -0.780  0.00  0.00    +0.000 A 
ATOM      5  C   UNL     1      -0.833   1.451   0.381  0.00  0.00    +0.000 A 
ATOM      6  C   UNL     1      -0.117   0.951   1.463  0.00  0.00    +0.000 A 
ATOM      7  C   UNL     1       0.464  -0.314   1.384  0.00  0.00    +0.000 A 
ATOM      8  C   UNL     1       0.335  -1.102   0.225  0.00  0.00    +0.000 A 
ENDBRANCH   1   8
BRANCH   1   9
ATOM      9  C   UNL     1       2.460  -2.372  -0.155  0.00  0.00    +0.000 C 
ATOM     10  C   UNL     1       3.452  -2.804   0.640  0.00  0.00    +0.000 C 
BRANCH  10  11
ATOM     11  C   UNL     1       4.878  -2.715   0.296  0.00  0.00    +0.000 A 
ATOM     12  C   UNL     1       5.420  -1.596  -0.350  0.00  0.00    +0.000 A 
ATOM     13  C   UNL     1       6.787  -1.530  -0.630  0.00  0.00    +0.000 A 
ATOM     14  C   UNL     1       7.627  -2.577  -0.258  0.00  0.00    +0.000 A 
ATOM     15  C   UNL     1       7.103  -3.688   0.399  0.00  0.00    +0.000 A 
ATOM     16  C   UNL     1       5.735  -3.753   0.680  0.00  0.00    +0.000 A 
ENDBRANCH  10  11
ENDBRANCH   1   9
TORSDOF 3
