REMARK  Name = *****
REMARK  3 active torsions:
REMARK  status: ('A' for Active; 'I' for Inactive)
REMARK    1  A    between atoms: C_4  and  C_7
REMARK    2  A    between atoms: C_8  and  C_9
REMARK    3  A    between atoms: C_10  and  C_14
REMARK                            x       y       z     vdW  Elec       q    Type
REMARK                         _______ _______ _______ _____ _____    ______ ____
ROOT
ATOM      1  C   UNL     1      -2.808   0.448  -0.308  0.00  0.00    +0.000 C 
ATOM      2  C   UNL     1      -3.744  -0.514  -0.324  0.00  0.00    +0.000 C 
ENDROOT
BRANCH   1   6
ATOM      3  C   UNL     1       1.391  -0.193   0.211  0.00  0.00    +0.000 A 
ATOM      4  C   UNL     1       0.645  -1.107  -0.530  0.00  0.00    +0.000 A 
ATOM      5  C   UNL     1      -0.728  -0.915  -0.703  0.00  0.00    +0.000 A 
ATOM      6  C   UNL     1      -1.371   0.189  -0.127  0.00  0.00    +0.000 A 
ATOM      7  C   UNL     1      -0.607   1.111   0.601  0.00  0.00    +0.000 A 
ATOM      8  C   UNL     1       0.766   0.918   0.774  0.00  0.00    +0.000 A 
ENDBRANCH   1   6
BRANCH   2   9
ATOM      9  C   UNL     1      -5.120  -0.193  -0.492  0.00  0.00    +0.000 A 
ATOM     10  C   UNL     1      -6.245  -1.008  -0.561  0.00  0.00    +0.000 A 
ATOM     11  N   UNL     1      -7.398  -0.277  -0.731  0.00  0.00    +0.000 NA
ATOM     12  C   UNL     1      -6.959   0.957  -0.761  0.00  0.00    +0.000 A 
ATOM     13  O   UNL     1      -5.616   1.096  -0.627  0.00  0.00    +0.000 OA
BRANCH  10  14
ATOM     14  C   UNL     1      -6.277  -2.434  -0.480  0.00  0.00    +0.000 C 
ATOM     15  N   UNL     1      -6.263  -3.593  -0.411  0.00  0.00    +0.000 NA
ENDBRANCH  10  14
ENDBRANCH   2   9
TORSDOF 3
