REMARK  Name = *****
REMARK  2 active torsions:
REMARK  status: ('A' for Active; 'I' for Inactive)
REMARK    1  A    between atoms: C_1  and  C_2
REMARK    2  A    between atoms: C_7  and  C_8
REMARK                            x       y       z     vdW  Elec       q    Type
REMARK                         _______ _______ _______ _____ _____    ______ ____
ROOT
ATOM      1  C   UNL     1       0.999  -2.556  -0.143  0.00  0.00    +0.000 A 
ATOM      2  N   UNL     1       2.291  -2.835  -0.102  0.00  0.00    +0.000 NA
ATOM      3  C   UNL     1       2.347  -4.200  -0.217  0.00  0.00    +0.000 A 
ATOM      4  C   UNL     1       1.066  -4.711  -0.325  0.00  0.00    +0.000 A 
ATOM      5  O   UNL     1       0.195  -3.666  -0.278  0.00  0.00    +0.000 OA
ATOM      6  C   UNL     1       0.759  -6.060  -0.457  0.00  0.00    +0.000 A 
ATOM      7  C   UNL     1       1.857  -6.929  -0.477  0.00  0.00    +0.000 A 
ATOM      8  C   UNL     1       3.168  -6.444  -0.369  0.00  0.00    +0.000 A 
ATOM      9  C   UNL     1       3.438  -5.076  -0.237  0.00  0.00    +0.000 A 
ATOM     10 CL   UNL     1       4.481  -7.560  -0.399  0.00  0.00    +0.000 Cl
ENDROOT
BRANCH   1  17
ATOM     11  C   UNL     1       2.514   0.045  -0.015  0.00  0.00    +0.000 C 
ATOM     12  C   UNL     1       1.009  -0.030  -0.006  0.00  0.00    +0.000 A 
ATOM     13  C   UNL     1       0.288   1.178   0.067  0.00  0.00    +0.000 A 
ATOM     14  C   UNL     1      -1.105   1.185   0.078  0.00  0.00    +0.000 A 
ATOM     15  C   UNL     1      -1.801  -0.014   0.017  0.00  0.00    +0.000 A 
ATOM     16  C   UNL     1      -1.101  -1.221  -0.055  0.00  0.00    +0.000 A 
ATOM     17  C   UNL     1       0.309  -1.259  -0.068  0.00  0.00    +0.000 A 
ENDBRANCH   1  17
TORSDOF 1
