REMARK  Name = *****
REMARK  2 active torsions:
REMARK  status: ('A' for Active; 'I' for Inactive)
REMARK    1  A    between atoms: C_8  and  C_9
REMARK    2  A    between atoms: C_10  and  C_11
REMARK                            x       y       z     vdW  Elec       q    Type
REMARK                         _______ _______ _______ _____ _____    ______ ____
ROOT
ATOM      1  C   UNL     1      -0.640   5.040   1.170  0.00  0.00    +0.000 C 
ATOM      2  C   UNL     1      -0.787   6.250   0.605  0.00  0.00    +0.000 C 
ENDROOT
BRANCH   1  10
ATOM      3  C   UNL     1      -2.817   1.135  -1.123  0.00  0.00    +0.000 C 
ATOM      4  C   UNL     1      -1.957   0.486  -0.031  0.00  0.00    +0.000 C 
ATOM      5  C   UNL     1      -2.071   1.326   1.036  0.00  0.00    +0.000 C 
ATOM      6  C   UNL     1      -3.521   1.825   0.995  0.00  0.00    +0.000 C 
ATOM      7  C   UNL     1      -3.249   2.435  -0.378  0.00  0.00    +0.000 C 
ATOM      8  C   UNL     1      -1.995   3.315  -0.147  0.00  0.00    +0.000 C 
ATOM      9  C   UNL     1      -1.192   2.557   0.922  0.00  0.00    +0.000 C 
ATOM     10  C   UNL     1      -1.656   3.975   1.168  0.00  0.00    +0.000 C 
ENDBRANCH   1  10
BRANCH   2  11
ATOM     11  C   UNL     1       0.242   7.298   0.606  0.00  0.00    +0.000 A 
ATOM     12  C   UNL     1       0.368   8.120  -0.524  0.00  0.00    +0.000 A 
ATOM     13  C   UNL     1       1.319   9.143  -0.554  0.00  0.00    +0.000 A 
ATOM     14  C   UNL     1       2.136   9.352   0.549  0.00  0.00    +0.000 A 
ATOM     15  C   UNL     1       2.016   8.561   1.685  0.00  0.00    +0.000 A 
ATOM     16  C   UNL     1       1.066   7.537   1.716  0.00  0.00    +0.000 A 
ATOM     17  F   UNL     1       3.047  10.333   0.521  0.00  0.00    +0.000 F 
ENDBRANCH   2  11
TORSDOF 2
