REMARK  Name = *****
REMARK  3 active torsions:
REMARK  status: ('A' for Active; 'I' for Inactive)
REMARK    1  A    between atoms: C_1  and  N_2
REMARK    2  A    between atoms: C_4  and  S_11
REMARK    3  A    between atoms: S_11  and  C_12
REMARK                            x       y       z     vdW  Elec       q    Type
REMARK                         _______ _______ _______ _____ _____    ______ ____
ROOT
ATOM      1  C   UNL     1       0.910   0.148   0.005  0.00  0.00    +0.000 C 
ATOM      2  N   UNL     1       2.371   0.068  -0.005  0.00  0.00    +0.000 N 
ATOM      3  C   UNL     1       3.114  -0.988   0.076  0.00  0.00    +0.000 C 
ATOM      4  C   UNL     1       4.590  -0.649   0.041  0.00  0.00    +0.000 C 
ATOM      5  C   UNL     1       4.518   0.836  -0.101  0.00  0.00    +0.000 A 
ATOM      6  C   UNL     1       5.524   1.780  -0.216  0.00  0.00    +0.000 A 
ATOM      7  C   UNL     1       5.150   3.120  -0.339  0.00  0.00    +0.000 A 
ATOM      8  C   UNL     1       3.794   3.495  -0.350  0.00  0.00    +0.000 A 
ATOM      9  C   UNL     1       2.784   2.535  -0.238  0.00  0.00    +0.000 A 
ATOM     10  C   UNL     1       3.175   1.213  -0.117  0.00  0.00    +0.000 A 
ENDROOT
BRANCH   4  11
ATOM     11  S   UNL     1       5.353  -1.160   1.606  0.00  0.00    +0.000 S 
BRANCH  11  12
ATOM     12  C   UNL     1       5.249  -2.933   1.450  0.00  0.00    +0.000 A 
ATOM     13  C   UNL     1       5.863  -3.612   0.392  0.00  0.00    +0.000 A 
ATOM     14  C   UNL     1       5.743  -4.999   0.284  0.00  0.00    +0.000 A 
ATOM     15  C   UNL     1       5.019  -5.714   1.236  0.00  0.00    +0.000 A 
ATOM     16  C   UNL     1       4.425  -5.046   2.305  0.00  0.00    +0.000 A 
ATOM     17  C   UNL     1       4.544  -3.659   2.415  0.00  0.00    +0.000 A 
ENDBRANCH  11  12
ENDBRANCH   4  11
TORSDOF 2
