REMARK  Name = *****
REMARK  2 active torsions:
REMARK  status: ('A' for Active; 'I' for Inactive)
REMARK    1  A    between atoms: C_4  and  O_7
REMARK    2  A    between atoms: O_7  and  C_8
REMARK                            x       y       z     vdW  Elec       q    Type
REMARK                         _______ _______ _______ _____ _____    ______ ____
ROOT
ATOM      1  C   UNL     1      -4.122  -0.831   0.035  0.00  0.00    +0.000 A 
ATOM      2  N   UNL     1      -4.483  -2.059   0.334  0.00  0.00    +0.000 NA
ATOM      3  C   UNL     1      -5.655  -2.380  -0.326  0.00  0.00    +0.000 A 
ATOM      4  C   UNL     1      -6.334  -3.613  -0.251  0.00  0.00    +0.000 A 
ATOM      5  C   UNL     1      -7.515  -3.802  -0.976  0.00  0.00    +0.000 A 
ATOM      6  C   UNL     1      -8.025  -2.781  -1.771  0.00  0.00    +0.000 A 
ATOM      7  C   UNL     1      -7.371  -1.548  -1.862  0.00  0.00    +0.000 A 
ATOM      8  C   UNL     1      -6.185  -1.370  -1.130  0.00  0.00    +0.000 A 
ATOM      9  S   UNL     1      -5.165   0.012  -1.031  0.00  0.00    +0.000 S 
ENDROOT
BRANCH   1  10
ATOM     10  O   UNL     1      -3.041  -0.222   0.533  0.00  0.00    +0.000 OA
BRANCH  10  14
ATOM     11  C   UNL     1      -0.043  -2.126   2.703  0.00  0.00    +0.000 A 
ATOM     12  C   UNL     1      -0.529  -2.734   1.546  0.00  0.00    +0.000 A 
ATOM     13  C   UNL     1      -1.542  -2.122   0.806  0.00  0.00    +0.000 A 
ATOM     14  C   UNL     1      -2.081  -0.908   1.236  0.00  0.00    +0.000 A 
ATOM     15  C   UNL     1      -1.579  -0.289   2.382  0.00  0.00    +0.000 A 
ATOM     16  C   UNL     1      -0.565  -0.901   3.120  0.00  0.00    +0.000 A 
ENDBRANCH  10  14
ENDBRANCH   1  10
TORSDOF 2
