REMARK  Name = *****
REMARK  4 active torsions:
REMARK  status: ('A' for Active; 'I' for Inactive)
REMARK    1  A    between atoms: C_1  and  C_2
REMARK    2  A    between atoms: C_5  and  C_8
REMARK    3  A    between atoms: C_8  and  C_16
REMARK    4  A    between atoms: C_9  and  C_10
REMARK                            x       y       z     vdW  Elec       q    Type
REMARK                         _______ _______ _______ _____ _____    ______ ____
ROOT
ATOM      1  C   UNL     1      -3.331   0.152   0.014  0.00  0.00    +0.000 C 
ATOM      2  C   UNL     1      -4.050  -0.955  -0.257  0.00  0.00    +0.000 C 
ENDROOT
BRANCH   1   7
ATOM      3  C   UNL     1       2.437  -0.289  -0.112  0.00  0.00    +0.000 C 
ATOM      4  C   UNL     1       0.940  -0.198  -0.087  0.00  0.00    +0.000 A 
ATOM      5  C   UNL     1       0.212  -0.079  -1.276  0.00  0.00    +0.000 A 
ATOM      6  C   UNL     1      -1.180   0.038  -1.245  0.00  0.00    +0.000 A 
ATOM      7  C   UNL     1      -1.863   0.051  -0.023  0.00  0.00    +0.000 A 
ATOM      8  C   UNL     1      -1.134  -0.051   1.167  0.00  0.00    +0.000 A 
ATOM      9  C   UNL     1       0.258  -0.172   1.135  0.00  0.00    +0.000 A 
ENDBRANCH   1   7
BRANCH   2  10
ATOM     10  C   UNL     1      -5.510  -1.052  -0.249  0.00  0.00    +0.000 A 
ATOM     11  C   UNL     1      -6.228  -0.902  -1.439  0.00  0.00    +0.000 A 
ATOM     12  C   UNL     1      -7.622  -0.979  -1.430  0.00  0.00    +0.000 A 
ATOM     13  C   UNL     1      -8.301  -1.205  -0.233  0.00  0.00    +0.000 A 
ATOM     14  C   UNL     1      -7.588  -1.357   0.956  0.00  0.00    +0.000 A 
ATOM     15  C   UNL     1      -6.194  -1.281   0.950  0.00  0.00    +0.000 A 
ENDBRANCH   2  10
BRANCH   1  16
ATOM     16  C   UNL     1      -3.983   1.451   0.358  0.00  0.00    +0.000 C 
ATOM     17  O   UNL     1      -3.353   2.461   0.652  0.00  0.00    +0.000 OA
ENDBRANCH   1  16
TORSDOF 3
