REMARK  Name = *****
REMARK  4 active torsions:
REMARK  status: ('A' for Active; 'I' for Inactive)
REMARK    1  A    between atoms: C_4  and  C_7
REMARK    2  A    between atoms: C_7  and  C_8
REMARK    3  A    between atoms: C_8  and  O_9
REMARK    4  A    between atoms: O_9  and  C_10
REMARK                            x       y       z     vdW  Elec       q    Type
REMARK                         _______ _______ _______ _____ _____    ______ ____
ROOT
ATOM      1  C   UNL     1      -3.251   1.016   1.202  0.00  0.00    +0.000 C 
ATOM      2  F   UNL     1      -4.582   1.143   1.463  0.00  0.00    +0.000 F 
ATOM      3  F   UNL     1      -2.737   0.154   2.125  0.00  0.00    +0.000 F 
ENDROOT
BRANCH   1   4
ATOM      4  C   UNL     1      -3.026   0.472  -0.233  0.00  0.00    +0.000 C 
ATOM      5  F   UNL     1      -1.679   0.414  -0.487  0.00  0.00    +0.000 F 
ATOM      6  F   UNL     1      -3.506   1.383  -1.141  0.00  0.00    +0.000 F 
BRANCH   4  10
ATOM      7  C   UNL     1      -4.891  -3.401  -0.715  0.00  0.00    +0.000 A 
ATOM      8  C   UNL     1      -5.578  -2.246  -1.086  0.00  0.00    +0.000 A 
ATOM      9  C   UNL     1      -4.976  -0.996  -0.941  0.00  0.00    +0.000 A 
ATOM     10  C   UNL     1      -3.676  -0.889  -0.421  0.00  0.00    +0.000 A 
ATOM     11  C   UNL     1      -2.993  -2.061  -0.056  0.00  0.00    +0.000 A 
ATOM     12  C   UNL     1      -3.599  -3.309  -0.202  0.00  0.00    +0.000 A 
ENDBRANCH   4  10
ENDBRANCH   1   4
BRANCH   1  13
ATOM     13  O   UNL     1      -2.628   2.294   1.368  0.00  0.00    +0.000 OA
BRANCH  13  14
ATOM     14  C   UNL     1      -2.678   2.891   2.595  0.00  0.00    +0.000 A 
ATOM     15  C   UNL     1      -3.354   2.419   3.720  0.00  0.00    +0.000 A 
ATOM     16  C   UNL     1      -3.315   3.138   4.919  0.00  0.00    +0.000 A 
ATOM     17  C   UNL     1      -2.603   4.333   5.000  0.00  0.00    +0.000 A 
ATOM     18  C   UNL     1      -1.930   4.812   3.880  0.00  0.00    +0.000 A 
ATOM     19  C   UNL     1      -1.970   4.094   2.683  0.00  0.00    +0.000 A 
ENDBRANCH  13  14
ENDBRANCH   1  13
TORSDOF 4
