REMARK  Name = *****
REMARK  4 active torsions:
REMARK  status: ('A' for Active; 'I' for Inactive)
REMARK    1  A    between atoms: C_1  and  C_2
REMARK    2  A    between atoms: C_7  and  C_8
REMARK    3  A    between atoms: C_8  and  O_10
REMARK    4  A    between atoms: O_10  and  C_11
REMARK                            x       y       z     vdW  Elec       q    Type
REMARK                         _______ _______ _______ _____ _____    ______ ____
ROOT
ATOM      1  C   UNL     1       0.724  -2.384  -0.636  0.00  0.00    +0.000 C 
ATOM      2  O   UNL     1       0.335  -3.448  -0.181  0.00  0.00    +0.000 OA
ENDROOT
BRANCH   1   9
ATOM      3  C   UNL     1       2.539  -0.004  -0.070  0.00  0.00    +0.000 C 
ATOM      4  C   UNL     1       1.045   0.041   0.080  0.00  0.00    +0.000 A 
ATOM      5  C   UNL     1       0.443   1.247   0.480  0.00  0.00    +0.000 A 
ATOM      6  C   UNL     1      -0.939   1.336   0.658  0.00  0.00    +0.000 A 
ATOM      7  C   UNL     1      -1.746   0.223   0.440  0.00  0.00    +0.000 A 
ATOM      8  C   UNL     1      -1.171  -0.978   0.027  0.00  0.00    +0.000 A 
ATOM      9  C   UNL     1       0.216  -1.069  -0.175  0.00  0.00    +0.000 A 
ENDBRANCH   1   9
BRANCH   1  10
ATOM     10  O   UNL     1       1.584  -2.177  -1.696  0.00  0.00    +0.000 OA
BRANCH  10  11
ATOM     11  C   UNL     1       2.062  -3.364  -2.256  0.00  0.00    +0.000 A 
ATOM     12  C   UNL     1       1.263  -4.084  -3.143  0.00  0.00    +0.000 A 
ATOM     13  C   UNL     1       1.783  -5.237  -3.725  0.00  0.00    +0.000 A 
ATOM     14  C   UNL     1       3.086  -5.653  -3.440  0.00  0.00    +0.000 A 
ATOM     15  C   UNL     1       3.881  -4.908  -2.565  0.00  0.00    +0.000 A 
ATOM     16  C   UNL     1       3.371  -3.752  -1.974  0.00  0.00    +0.000 A 
ATOM     17 CL   UNL     1       0.816  -6.153  -4.816  0.00  0.00    +0.000 Cl
ENDBRANCH  10  11
ENDBRANCH   1  10
TORSDOF 3
