REMARK  Name = *****
REMARK  5 active torsions:
REMARK  status: ('A' for Active; 'I' for Inactive)
REMARK    1  A    between atoms: C_1  and  C_2
REMARK    2  A    between atoms: C_4  and  C_9
REMARK    3  A    between atoms: C_5  and  C_8
REMARK    4  A    between atoms: C_9  and  N_10
REMARK    5  A    between atoms: N_10  and  C_11
REMARK                            x       y       z     vdW  Elec       q    Type
REMARK                         _______ _______ _______ _____ _____    ______ ____
ROOT
ATOM      1  C   UNL     1       2.912   0.027   0.197  0.00  0.00    +0.000 C 
ATOM      2  C   UNL     1       1.414   0.025   0.138  0.00  0.00    +0.000 A 
ATOM      3  C   UNL     1       0.704   1.231   0.102  0.00  0.00    +0.000 A 
ATOM      4  C   UNL     1      -0.697   1.240   0.014  0.00  0.00    +0.000 A 
ATOM      5  C   UNL     1      -1.410   0.029  -0.051  0.00  0.00    +0.000 A 
ATOM      6  C   UNL     1      -0.688  -1.175  -0.031  0.00  0.00    +0.000 A 
ATOM      7  C   UNL     1       0.707  -1.177   0.057  0.00  0.00    +0.000 A 
ATOM      8  C   UNL     1      -2.909  -0.026  -0.146  0.00  0.00    +0.000 C 
ENDROOT
BRANCH   4   9
ATOM      9  C   UNL     1      -1.399   2.547  -0.012  0.00  0.00    +0.000 C 
BRANCH   9  10
ATOM     10  N   UNL     1      -0.761   3.667   0.057  0.00  0.00    +0.000 NA
BRANCH  10  11
ATOM     11  C   UNL     1      -1.610   4.866   0.016  0.00  0.00    +0.000 C 
ATOM     12  C   UNL     1      -0.800   5.992  -0.638  0.00  0.00    +0.000 C 
ATOM     13  C   UNL     1      -1.554   7.319  -0.605  0.00  0.00    +0.000 C 
ATOM     14  C   UNL     1      -1.973   7.691   0.814  0.00  0.00    +0.000 C 
ATOM     15  C   UNL     1      -2.771   6.573   1.478  0.00  0.00    +0.000 C 
ATOM     16  C   UNL     1      -2.017   5.246   1.443  0.00  0.00    +0.000 C 
ENDBRANCH  10  11
ENDBRANCH   9  10
ENDBRANCH   4   9
TORSDOF 3
