REMARK  Name = *****
REMARK  3 active torsions:
REMARK  status: ('A' for Active; 'I' for Inactive)
REMARK    1  A    between atoms: C_1  and  C_2
REMARK    2  A    between atoms: C_2  and  C_10
REMARK    3  A    between atoms: C_3  and  C_4
REMARK                            x       y       z     vdW  Elec       q    Type
REMARK                         _______ _______ _______ _____ _____    ______ ____
ROOT
ATOM      1  C   UNL     1       0.995   0.074  -0.142  0.00  0.00    +0.000 C 
ATOM      2  C   UNL     1       2.493  -0.068  -0.021  0.00  0.00    +0.000 C 
ATOM      3  C   UNL     1       3.110  -0.739   0.974  0.00  0.00    +0.000 C 
ENDROOT
BRANCH   3   4
ATOM      4  C   UNL     1       2.432  -1.461   2.052  0.00  0.00    +0.000 A 
ATOM      5  C   UNL     1       1.880  -2.726   1.821  0.00  0.00    +0.000 A 
ATOM      6  C   UNL     1       1.235  -3.408   2.854  0.00  0.00    +0.000 A 
ATOM      7  C   UNL     1       1.138  -2.830   4.119  0.00  0.00    +0.000 A 
ATOM      8  C   UNL     1       1.688  -1.570   4.354  0.00  0.00    +0.000 A 
ATOM      9  C   UNL     1       2.335  -0.886   3.323  0.00  0.00    +0.000 A 
ENDBRANCH   3   4
BRANCH   2  10
ATOM     10  C   UNL     1       3.233   0.621  -1.050  0.00  0.00    +0.000 A 
ATOM     11  C   UNL     1       2.902   0.586  -2.390  0.00  0.00    +0.000 A 
ATOM     12  S   UNL     1       3.977   1.503  -3.357  0.00  0.00    +0.000 S 
ATOM     13  C   UNL     1       4.902   1.956  -1.994  0.00  0.00    +0.000 A 
ATOM     14  C   UNL     1       4.401   1.419  -0.828  0.00  0.00    +0.000 A 
ENDBRANCH   2  10
TORSDOF 2
