REMARK  Name = *****
REMARK  3 active torsions:
REMARK  status: ('A' for Active; 'I' for Inactive)
REMARK    1  A    between atoms: C_3  and  O_8
REMARK    2  A    between atoms: O_8  and  C_9
REMARK    3  A    between atoms: C_9  and  C_10
REMARK                            x       y       z     vdW  Elec       q    Type
REMARK                         _______ _______ _______ _____ _____    ______ ____
ROOT
ATOM      1  C   UNL     1       2.695   4.797  -0.077  0.00  0.00    +0.000 A 
ATOM      2  C   UNL     1       3.202   5.257  -1.296  0.00  0.00    +0.000 A 
ATOM      3  C   UNL     1       4.180   6.247  -1.338  0.00  0.00    +0.000 A 
ATOM      4  C   UNL     1       4.672   6.788  -0.159  0.00  0.00    +0.000 A 
ATOM      5  C   UNL     1       4.186   6.339   1.061  0.00  0.00    +0.000 A 
ATOM      6  C   UNL     1       3.207   5.349   1.099  0.00  0.00    +0.000 A 
ATOM      7  F   UNL     1       2.746   4.927   2.285  0.00  0.00    +0.000 F 
ATOM      8  F   UNL     1       4.656   6.860   2.203  0.00  0.00    +0.000 F 
ATOM      9  F   UNL     1       5.611   7.743  -0.198  0.00  0.00    +0.000 F 
ATOM     10  F   UNL     1       4.644   6.679  -2.519  0.00  0.00    +0.000 F 
ATOM     11  F   UNL     1       2.735   4.745  -2.443  0.00  0.00    +0.000 F 
ENDROOT
BRANCH   1  12
ATOM     12  C   UNL     1       1.674   3.698  -0.034  0.00  0.00    +0.000 C 
BRANCH  12  13
ATOM     13  O   UNL     1       2.384   2.463   0.003  0.00  0.00    +0.000 OA
BRANCH  13  16
ATOM     14  C   UNL     1       1.771  -1.111   0.084  0.00  0.00    +0.000 A 
ATOM     15  C   UNL     1       2.396   0.137   0.055  0.00  0.00    +0.000 A 
ATOM     16  C   UNL     1       1.642   1.315   0.031  0.00  0.00    +0.000 A 
ATOM     17  C   UNL     1       0.249   1.235   0.038  0.00  0.00    +0.000 A 
ATOM     18  C   UNL     1      -0.372  -0.016   0.067  0.00  0.00    +0.000 A 
ATOM     19  C   UNL     1       0.381  -1.188   0.089  0.00  0.00    +0.000 A 
ATOM     20 CL   UNL     1      -2.092  -0.110   0.074  0.00  0.00    +0.000 Cl
ENDBRANCH  13  16
ENDBRANCH  12  13
ENDBRANCH   1  12
TORSDOF 3
