REMARK  Name = *****
REMARK  5 active torsions:
REMARK  status: ('A' for Active; 'I' for Inactive)
REMARK    1  A    between atoms: C_1  and  C_2
REMARK    2  A    between atoms: C_2  and  N_3
REMARK    3  A    between atoms: N_3  and  C_4
REMARK    4  A    between atoms: C_8  and  C_10
REMARK    5  A    between atoms: C_11  and  C_13
REMARK                            x       y       z     vdW  Elec       q    Type
REMARK                         _______ _______ _______ _____ _____    ______ ____
ROOT
ATOM      1  N   UNL     1       3.062  -0.222  -1.561  0.00  0.00    +0.000 N 
ATOM      2  C   UNL     1       4.389  -0.676  -1.725  0.00  0.00    +0.000 C 
ATOM      3  O   UNL     1       4.855  -1.231  -2.717  0.00  0.00    +0.000 OA
ENDROOT
BRANCH   1   4
ATOM      4  C   UNL     1       2.011  -0.675  -2.452  0.00  0.00    +0.000 A 
ATOM      5  C   UNL     1       0.805   0.030  -2.600  0.00  0.00    +0.000 A 
ATOM      6  C   UNL     1      -0.217  -0.430  -3.440  0.00  0.00    +0.000 A 
ATOM      7  C   UNL     1      -0.061  -1.612  -4.153  0.00  0.00    +0.000 A 
ATOM      8  C   UNL     1       1.122  -2.340  -4.036  0.00  0.00    +0.000 A 
ATOM      9  C   UNL     1       2.134  -1.875  -3.176  0.00  0.00    +0.000 A 
ATOM     10  C   UNL     1       1.294  -3.641  -4.764  0.00  0.00    +0.000 C 
ENDBRANCH   1   4
BRANCH   2  11
ATOM     11  C   UNL     1       5.353  -0.460  -0.624  0.00  0.00    +0.000 A 
ATOM     12  C   UNL     1       5.175  -1.104   0.605  0.00  0.00    +0.000 A 
ATOM     13  C   UNL     1       6.108  -0.910   1.627  0.00  0.00    +0.000 A 
ATOM     14  C   UNL     1       7.217  -0.091   1.407  0.00  0.00    +0.000 A 
ATOM     15  C   UNL     1       7.410   0.529   0.172  0.00  0.00    +0.000 A 
ATOM     16  C   UNL     1       6.480   0.339  -0.852  0.00  0.00    +0.000 A 
ATOM     17 CL   UNL     1       8.363   0.145   2.668  0.00  0.00    +0.000 Cl
ENDBRANCH   2  11
BRANCH   1  19
ATOM     18  C   UNL     1       1.871   0.357   0.568  0.00  0.00    +0.000 C 
ATOM     19  C   UNL     1       2.748   0.837  -0.582  0.00  0.00    +0.000 C 
ENDBRANCH   1  19
TORSDOF 3
