REMARK  Name = *****
REMARK  5 active torsions:
REMARK  status: ('A' for Active; 'I' for Inactive)
REMARK    1  A    between atoms: C_1  and  C_2
REMARK    2  A    between atoms: C_3  and  O_9
REMARK    3  A    between atoms: C_4  and  C_8
REMARK    4  A    between atoms: O_9  and  C_10
REMARK    5  A    between atoms: C_10  and  C_11
REMARK                            x       y       z     vdW  Elec       q    Type
REMARK                         _______ _______ _______ _____ _____    ______ ____
ROOT
ATOM      1  C   UNL     1       2.769   0.700   0.724  0.00  0.00    +0.000 C 
ATOM      2  C   UNL     1       1.420   0.184   0.312  0.00  0.00    +0.000 A 
ATOM      3  C   UNL     1       0.297   1.024   0.238  0.00  0.00    +0.000 A 
ATOM      4  C   UNL     1      -0.972   0.515  -0.089  0.00  0.00    +0.000 A 
ATOM      5  C   UNL     1      -1.085  -0.836  -0.441  0.00  0.00    +0.000 A 
ATOM      6  C   UNL     1       0.034  -1.668  -0.425  0.00  0.00    +0.000 A 
ATOM      7  C   UNL     1       1.277  -1.163  -0.046  0.00  0.00    +0.000 A 
ATOM      8  C   UNL     1      -2.191   1.393  -0.102  0.00  0.00    +0.000 C 
ENDROOT
BRANCH   3   9
ATOM      9  O   UNL     1       0.421   2.352   0.566  0.00  0.00    +0.000 OA
BRANCH   9  10
ATOM     10  C   UNL     1       0.735   3.125  -0.602  0.00  0.00    +0.000 C 
BRANCH  10  11
ATOM     11  C   UNL     1       0.671   4.601  -0.279  0.00  0.00    +0.000 A 
ATOM     12  C   UNL     1      -0.317   5.116   0.574  0.00  0.00    +0.000 A 
ATOM     13  C   UNL     1      -0.394   6.486   0.829  0.00  0.00    +0.000 A 
ATOM     14  C   UNL     1       0.508   7.360   0.224  0.00  0.00    +0.000 A 
ATOM     15  C   UNL     1       1.485   6.864  -0.637  0.00  0.00    +0.000 A 
ATOM     16  C   UNL     1       1.563   5.493  -0.891  0.00  0.00    +0.000 A 
ENDBRANCH  10  11
ENDBRANCH   9  10
ENDBRANCH   3   9
TORSDOF 3
