REMARK  Name = *****
REMARK  4 active torsions:
REMARK  status: ('A' for Active; 'I' for Inactive)
REMARK    1  A    between atoms: C_1  and  C_2
REMARK    2  A    between atoms: C_4  and  C_8
REMARK    3  A    between atoms: C_8  and  O_9
REMARK    4  A    between atoms: O_9  and  C_10
REMARK                            x       y       z     vdW  Elec       q    Type
REMARK                         _______ _______ _______ _____ _____    ______ ____
ROOT
ATOM      1  C   UNL     1      -1.842   2.544   0.004  0.00  0.00    +0.000 C 
ENDROOT
BRANCH   1   5
ATOM      2  C   UNL     1       2.288  -0.197   1.039  0.00  0.00    +0.000 C 
ATOM      3  C   UNL     1       0.901  -0.090   0.479  0.00  0.00    +0.000 A 
ATOM      4  C   UNL     1       0.211   1.130   0.492  0.00  0.00    +0.000 A 
ATOM      5  C   UNL     1      -1.080   1.238  -0.051  0.00  0.00    +0.000 A 
ATOM      6  C   UNL     1      -1.684   0.093  -0.589  0.00  0.00    +0.000 A 
ATOM      7  C   UNL     1      -1.003  -1.125  -0.607  0.00  0.00    +0.000 A 
ATOM      8  C   UNL     1       0.284  -1.215  -0.079  0.00  0.00    +0.000 A 
ENDBRANCH   1   5
BRANCH   1   9
ATOM      9  O   UNL     1      -0.960   3.635  -0.263  0.00  0.00    +0.000 OA
BRANCH   9  10
ATOM     10  C   UNL     1      -1.486   4.895  -0.181  0.00  0.00    +0.000 A 
ATOM     11  C   UNL     1      -2.821   5.215   0.067  0.00  0.00    +0.000 A 
ATOM     12  C   UNL     1      -3.223   6.554   0.123  0.00  0.00    +0.000 A 
ATOM     13  C   UNL     1      -2.294   7.575  -0.069  0.00  0.00    +0.000 A 
ATOM     14  C   UNL     1      -0.961   7.260  -0.320  0.00  0.00    +0.000 A 
ATOM     15  C   UNL     1      -0.561   5.924  -0.376  0.00  0.00    +0.000 A 
ENDBRANCH   9  10
ENDBRANCH   1   9
TORSDOF 3
