REMARK  Name = *****
REMARK  5 active torsions:
REMARK  status: ('A' for Active; 'I' for Inactive)
REMARK    1  A    between atoms: C_1  and  C_2
REMARK    2  A    between atoms: C_4  and  C_17
REMARK    3  A    between atoms: C_5  and  N_8
REMARK    4  A    between atoms: C_9  and  C_10
REMARK    5  A    between atoms: C_9  and  C_11
REMARK                            x       y       z     vdW  Elec       q    Type
REMARK                         _______ _______ _______ _____ _____    ______ ____
ROOT
ATOM      1  N   UNL     1      -2.329  -1.913   0.399  0.00  0.00    +0.000 NA
ATOM      2  C   UNL     1      -2.554  -2.855  -0.472  0.00  0.00    +0.000 C 
ATOM      3  C   UNL     1      -1.604  -3.213  -1.600  0.00  0.00    +0.000 C 
ENDROOT
BRANCH   1   8
ATOM      4  C   UNL     1       2.536   1.087   0.225  0.00  0.00    +0.000 C 
ATOM      5  C   UNL     1       1.251   0.317   0.294  0.00  0.00    +0.000 A 
ATOM      6  C   UNL     1       0.089   0.822  -0.306  0.00  0.00    +0.000 A 
ATOM      7  C   UNL     1      -1.115   0.100  -0.273  0.00  0.00    +0.000 A 
ATOM      8  C   UNL     1      -1.144  -1.164   0.339  0.00  0.00    +0.000 A 
ATOM      9  C   UNL     1       0.015  -1.662   0.944  0.00  0.00    +0.000 A 
ATOM     10  C   UNL     1       1.206  -0.936   0.913  0.00  0.00    +0.000 A 
ATOM     11  C   UNL     1      -2.352   0.673  -0.905  0.00  0.00    +0.000 C 
ENDBRANCH   1   8
BRANCH   2  12
ATOM     12  C   UNL     1      -3.821  -3.641  -0.349  0.00  0.00    +0.000 A 
ATOM     13  C   UNL     1      -4.937  -3.040   0.248  0.00  0.00    +0.000 A 
ATOM     14  C   UNL     1      -6.133  -3.749   0.379  0.00  0.00    +0.000 A 
ATOM     15  C   UNL     1      -6.217  -5.063  -0.077  0.00  0.00    +0.000 A 
ATOM     16  C   UNL     1      -5.106  -5.673  -0.659  0.00  0.00    +0.000 A 
ATOM     17  C   UNL     1      -3.908  -4.966  -0.792  0.00  0.00    +0.000 A 
ENDBRANCH   2  12
TORSDOF 2
