REMARK  Name = *****
REMARK  6 active torsions:
REMARK  status: ('A' for Active; 'I' for Inactive)
REMARK    1  A    between atoms: C_1  and  C_2
REMARK    2  A    between atoms: C_4  and  C_11
REMARK    3  A    between atoms: C_5  and  C_8
REMARK    4  A    between atoms: C_8  and  C_10
REMARK    5  A    between atoms: C_11  and  C_12
REMARK    6  A    between atoms: C_12  and  C_13
REMARK                            x       y       z     vdW  Elec       q    Type
REMARK                         _______ _______ _______ _____ _____    ______ ____
ROOT
ATOM      1  C   UNL     1       2.316  -0.580  -0.829  0.00  0.00    +0.000 C 
ATOM      2  C   UNL     1       0.844  -0.415  -0.583  0.00  0.00    +0.000 A 
ATOM      3  C   UNL     1       0.324   0.838  -0.222  0.00  0.00    +0.000 A 
ATOM      4  C   UNL     1      -1.046   1.022   0.041  0.00  0.00    +0.000 A 
ATOM      5  C   UNL     1      -1.891  -0.109  -0.035  0.00  0.00    +0.000 A 
ATOM      6  C   UNL     1      -1.369  -1.366  -0.375  0.00  0.00    +0.000 A 
ATOM      7  C   UNL     1      -0.010  -1.517  -0.646  0.00  0.00    +0.000 A 
ENDROOT
BRANCH   5   8
ATOM      8  C   UNL     1      -3.348  -0.019   0.271  0.00  0.00    +0.000 C 
ATOM      9  O   UNL     1      -3.747   0.630   1.234  0.00  0.00    +0.000 OA
ATOM     10  C   UNL     1      -4.304  -0.773  -0.618  0.00  0.00    +0.000 C 
ENDBRANCH   5   8
BRANCH   4  11
ATOM     11  C   UNL     1      -1.608   2.383   0.423  0.00  0.00    +0.000 C 
BRANCH  11  12
ATOM     12  C   UNL     1      -0.717   3.610   0.163  0.00  0.00    +0.000 C 
BRANCH  12  13
ATOM     13  C   UNL     1      -1.353   4.966   0.396  0.00  0.00    +0.000 A 
ATOM     14  C   UNL     1      -2.525   5.151   1.141  0.00  0.00    +0.000 A 
ATOM     15  C   UNL     1      -3.050   6.431   1.340  0.00  0.00    +0.000 A 
ATOM     16  C   UNL     1      -2.406   7.544   0.807  0.00  0.00    +0.000 A 
ATOM     17  C   UNL     1      -1.233   7.380   0.075  0.00  0.00    +0.000 A 
ATOM     18  C   UNL     1      -0.709   6.101  -0.126  0.00  0.00    +0.000 A 
ENDBRANCH  12  13
ENDBRANCH  11  12
ENDBRANCH   4  11
TORSDOF 4
