REMARK  Name = *****
REMARK  3 active torsions:
REMARK  status: ('A' for Active; 'I' for Inactive)
REMARK    1  A    between atoms: C_2  and  O_8
REMARK    2  A    between atoms: O_8  and  C_9
REMARK    3  A    between atoms: C_9  and  C_11
REMARK                            x       y       z     vdW  Elec       q    Type
REMARK                         _______ _______ _______ _____ _____    ______ ____
ROOT
ATOM      1  O   UNL     1       2.231  -0.849  -1.480  0.00  0.00    +0.000 OA
ENDROOT
BRANCH   1   3
ATOM      2  C   UNL     1       0.829  -1.152   0.526  0.00  0.00    +0.000 C 
ATOM      3  C   UNL     1       1.745  -0.194  -0.299  0.00  0.00    +0.000 C 
ATOM      4  C   UNL     1       0.807   0.969  -0.745  0.00  0.00    +0.000 C 
ATOM      5  C   UNL     1      -0.338   0.793   0.216  0.00  0.00    +0.000 C 
ATOM      6  C   UNL     1      -0.526  -0.740   0.004  0.00  0.00    +0.000 C 
ATOM      7  C   UNL     1      -1.854  -0.451   0.663  0.00  0.00    +0.000 C 
ATOM      8  C   UNL     1      -1.841   0.781   0.059  0.00  0.00    +0.000 C 
ENDBRANCH   1   3
BRANCH   1   9
ATOM      9  C   UNL     1       3.309  -1.652  -1.298  0.00  0.00    +0.000 C 
ATOM     10  O   UNL     1       3.881  -1.850  -0.238  0.00  0.00    +0.000 OA
BRANCH   9  11
ATOM     11  C   UNL     1       3.718  -2.280  -2.584  0.00  0.00    +0.000 A 
ATOM     12  C   UNL     1       3.007  -2.084  -3.777  0.00  0.00    +0.000 A 
ATOM     13  C   UNL     1       3.432  -2.701  -4.956  0.00  0.00    +0.000 A 
ATOM     14  C   UNL     1       4.565  -3.514  -4.951  0.00  0.00    +0.000 A 
ATOM     15  C   UNL     1       5.277  -3.714  -3.769  0.00  0.00    +0.000 A 
ATOM     16  C   UNL     1       4.855  -3.100  -2.588  0.00  0.00    +0.000 A 
ENDBRANCH   9  11
ENDBRANCH   1   9
TORSDOF 3
