REMARK  Name = *****
REMARK  4 active torsions:
REMARK  status: ('A' for Active; 'I' for Inactive)
REMARK    1  A    between atoms: C_6  and  C_8
REMARK    2  A    between atoms: C_8  and  O_10
REMARK    3  A    between atoms: O_10  and  C_11
REMARK    4  A    between atoms: C_11  and  C_12
REMARK                            x       y       z     vdW  Elec       q    Type
REMARK                         _______ _______ _______ _____ _____    ______ ____
ROOT
ATOM      1  C   UNL     1       0.921  -3.048   0.226  0.00  0.00    +0.000 C 
ATOM      2  O   UNL     1       1.435  -3.325   1.301  0.00  0.00    +0.000 OA
ENDROOT
BRANCH   1   8
ATOM      3  C   UNL     1       1.366   0.759  -0.309  0.00  0.00    +0.000 C 
ATOM      4  C   UNL     1       0.171   1.528   0.247  0.00  0.00    +0.000 C 
ATOM      5  C   UNL     1      -1.170   1.041  -0.210  0.00  0.00    +0.000 C 
ATOM      6  C   UNL     1      -1.633  -0.215  -0.143  0.00  0.00    +0.000 C 
ATOM      7  C   UNL     1      -0.909  -1.411   0.404  0.00  0.00    +0.000 C 
ATOM      8  C   UNL     1       0.482  -1.652  -0.183  0.00  0.00    +0.000 C 
ATOM      9  C   UNL     1       1.539  -0.640   0.279  0.00  0.00    +0.000 C 
ENDBRANCH   1   8
BRANCH   1  10
ATOM     10  O   UNL     1       0.646  -3.932  -0.770  0.00  0.00    +0.000 OA
BRANCH  10  11
ATOM     11  C   UNL     1       1.014  -5.296  -0.530  0.00  0.00    +0.000 C 
BRANCH  11  12
ATOM     12  C   UNL     1      -0.225  -6.152  -0.465  0.00  0.00    +0.000 A 
ATOM     13  C   UNL     1      -1.070  -6.265  -1.579  0.00  0.00    +0.000 A 
ATOM     14  C   UNL     1      -2.202  -7.080  -1.530  0.00  0.00    +0.000 A 
ATOM     15  C   UNL     1      -2.503  -7.788  -0.369  0.00  0.00    +0.000 A 
ATOM     16  C   UNL     1      -1.675  -7.677   0.747  0.00  0.00    +0.000 A 
ATOM     17  C   UNL     1      -0.543  -6.861   0.701  0.00  0.00    +0.000 A 
ENDBRANCH  11  12
ENDBRANCH  10  11
ENDBRANCH   1  10
TORSDOF 4
