REMARK  Name = *****
REMARK  4 active torsions:
REMARK  status: ('A' for Active; 'I' for Inactive)
REMARK    1  A    between atoms: C_7  and  C_9
REMARK    2  A    between atoms: C_9  and  O_10
REMARK    3  A    between atoms: O_10  and  C_11
REMARK    4  A    between atoms: C_11  and  C_12
REMARK                            x       y       z     vdW  Elec       q    Type
REMARK                         _______ _______ _______ _____ _____    ______ ____
ROOT
ATOM      1  C   UNL     1       3.129  -0.622   2.816  0.00  0.00    +0.000 C 
ENDROOT
BRANCH   1   8
ATOM      2  C   UNL     1       1.179   0.769  -0.008  0.00  0.00    +0.000 C 
ATOM      3  C   UNL     1       2.453   0.386  -0.192  0.00  0.00    +0.000 C 
ATOM      4  C   UNL     1       3.432   1.227  -0.971  0.00  0.00    +0.000 C 
ATOM      5  C   UNL     1       4.242   2.211  -0.128  0.00  0.00    +0.000 C 
ATOM      6  C   UNL     1       4.719   1.744   1.245  0.00  0.00    +0.000 C 
ATOM      7  S   UNL     1       5.412   0.063   1.299  0.00  0.00    +0.000 S 
ATOM      8  C   UNL     1       3.882  -0.952   1.516  0.00  0.00    +0.000 C 
ATOM      9  C   UNL     1       2.964  -0.961   0.278  0.00  0.00    +0.000 C 
ENDBRANCH   1   8
BRANCH   1  10
ATOM     10  O   UNL     1       2.181  -1.665   3.087  0.00  0.00    +0.000 OA
BRANCH  10  11
ATOM     11  C   UNL     1       1.402  -1.412   4.258  0.00  0.00    +0.000 C 
BRANCH  11  12
ATOM     12  C   UNL     1       2.170  -1.687   5.527  0.00  0.00    +0.000 A 
ATOM     13  C   UNL     1       2.151  -0.766   6.584  0.00  0.00    +0.000 A 
ATOM     14  C   UNL     1       2.849  -1.030   7.764  0.00  0.00    +0.000 A 
ATOM     15  C   UNL     1       3.567  -2.216   7.901  0.00  0.00    +0.000 A 
ATOM     16  C   UNL     1       3.586  -3.143   6.861  0.00  0.00    +0.000 A 
ATOM     17  C   UNL     1       2.889  -2.881   5.681  0.00  0.00    +0.000 A 
ENDBRANCH  11  12
ENDBRANCH  10  11
ENDBRANCH   1  10
TORSDOF 4
