REMARK  Name = *****
REMARK  1 active torsions:
REMARK  status: ('A' for Active; 'I' for Inactive)
REMARK    1  A    between atoms: C_10  and  C_12
REMARK                            x       y       z     vdW  Elec       q    Type
REMARK                         _______ _______ _______ _____ _____    ______ ____
ROOT
ATOM      1  C   UNL     1       1.739  -0.394   1.217  0.00  0.00    +0.000 C 
ATOM      2  C   UNL     1       1.804  -0.002  -0.265  0.00  0.00    +0.000 C 
ATOM      3  C   UNL     1       2.543  -1.218  -0.783  0.00  0.00    +0.000 C 
ATOM      4  C   UNL     1       2.130  -2.273  -0.064  0.00  0.00    +0.000 C 
ATOM      5  C   UNL     1       1.109  -1.760   0.928  0.00  0.00    +0.000 C 
ATOM      6  C   UNL     1      -0.158  -1.352   0.135  0.00  0.00    +0.000 C 
ATOM      7  C   UNL     1       0.320  -0.134  -0.695  0.00  0.00    +0.000 C 
ATOM      8  C   UNL     1      -0.501   1.101  -0.385  0.00  0.00    +0.000 C 
ATOM      9  N   UNL     1      -1.919   0.775  -0.250  0.00  0.00    +0.000 NA
ATOM     10  C   UNL     1      -2.173  -0.231   0.512  0.00  0.00    +0.000 C 
ATOM     11  O   UNL     1      -1.230  -1.050   1.033  0.00  0.00    +0.000 OA
ENDROOT
BRANCH  10  12
ATOM     12  C   UNL     1      -3.542  -0.621   0.931  0.00  0.00    +0.000 A 
ATOM     13  C   UNL     1      -4.632   0.127   0.461  0.00  0.00    +0.000 A 
ATOM     14  C   UNL     1      -5.936  -0.212   0.834  0.00  0.00    +0.000 A 
ATOM     15  C   UNL     1      -6.154  -1.300   1.676  0.00  0.00    +0.000 A 
ATOM     16  C   UNL     1      -5.080  -2.052   2.151  0.00  0.00    +0.000 A 
ATOM     17  C   UNL     1      -3.774  -1.714   1.779  0.00  0.00    +0.000 A 
ATOM     18 CL   UNL     1      -7.758  -1.719   2.135  0.00  0.00    +0.000 Cl
ENDBRANCH  10  12
TORSDOF 1
