REMARK  Name = *****
REMARK  4 active torsions:
REMARK  status: ('A' for Active; 'I' for Inactive)
REMARK    1  A    between atoms: C_1  and  C_2
REMARK    2  A    between atoms: C_5  and  S_8
REMARK    3  A    between atoms: S_8  and  C_9
REMARK    4  A    between atoms: C_9  and  C_11
REMARK                            x       y       z     vdW  Elec       q    Type
REMARK                         _______ _______ _______ _____ _____    ______ ____
ROOT
ATOM      1  C   UNL     1      -4.060   1.243   1.055  0.00  0.00    +0.000 C 
ATOM      2  O   UNL     1      -3.399   2.124   0.517  0.00  0.00    +0.000 OA
ENDROOT
BRANCH   1   3
ATOM      3  C   UNL     1      -5.411   1.562   1.616  0.00  0.00    +0.000 A 
ATOM      4  C   UNL     1      -5.851   2.896   1.526  0.00  0.00    +0.000 A 
ATOM      5  C   UNL     1      -7.099   3.274   2.029  0.00  0.00    +0.000 A 
ATOM      6  C   UNL     1      -7.913   2.319   2.623  0.00  0.00    +0.000 A 
ATOM      7  C   UNL     1      -7.503   0.995   2.722  0.00  0.00    +0.000 A 
ATOM      8  C   UNL     1      -6.254   0.614   2.220  0.00  0.00    +0.000 A 
ATOM      9  F   UNL     1      -9.109   2.678   3.106  0.00  0.00    +0.000 F 
ENDBRANCH   1   3
BRANCH   1  10
ATOM     10  S   UNL     1      -3.473  -0.413   1.188  0.00  0.00    +0.000 S 
BRANCH  10  15
ATOM     11  C   UNL     1       2.440  -0.016  -0.237  0.00  0.00    +0.000 C 
ATOM     12  C   UNL     1       0.979  -0.081   0.098  0.00  0.00    +0.000 A 
ATOM     13  C   UNL     1       0.482   0.573   1.231  0.00  0.00    +0.000 A 
ATOM     14  C   UNL     1      -0.873   0.488   1.561  0.00  0.00    +0.000 A 
ATOM     15  C   UNL     1      -1.751  -0.252   0.763  0.00  0.00    +0.000 A 
ATOM     16  C   UNL     1      -1.252  -0.927  -0.354  0.00  0.00    +0.000 A 
ATOM     17  C   UNL     1       0.104  -0.844  -0.684  0.00  0.00    +0.000 A 
ENDBRANCH  10  15
ENDBRANCH   1  10
TORSDOF 3
