REMARK  Name = *****
REMARK  5 active torsions:
REMARK  status: ('A' for Active; 'I' for Inactive)
REMARK    1  A    between atoms: C_1  and  C_2
REMARK    2  A    between atoms: C_2  and  C_3
REMARK    3  A    between atoms: C_2  and  C_11
REMARK    4  A    between atoms: C_3  and  S_4
REMARK    5  A    between atoms: S_4  and  C_5
REMARK                            x       y       z     vdW  Elec       q    Type
REMARK                         _______ _______ _______ _____ _____    ______ ____
ROOT
ATOM      1  C   UNL     1       0.876   0.041  -0.225  0.00  0.00    +0.000 C 
ATOM      2  C   UNL     1       2.405  -0.024  -0.106  0.00  0.00    +0.000 C 
ENDROOT
BRANCH   2   3
ATOM      3  C   UNL     1       2.989   1.380  -0.033  0.00  0.00    +0.000 A 
ATOM      4  C   UNL     1       3.702   1.778   1.108  0.00  0.00    +0.000 A 
ATOM      5  C   UNL     1       4.248   3.060   1.198  0.00  0.00    +0.000 A 
ATOM      6  C   UNL     1       4.089   3.961   0.148  0.00  0.00    +0.000 A 
ATOM      7  C   UNL     1       3.385   3.581  -0.992  0.00  0.00    +0.000 A 
ATOM      8  C   UNL     1       2.838   2.299  -1.083  0.00  0.00    +0.000 A 
ENDBRANCH   2   3
BRANCH   2   9
ATOM      9  C   UNL     1       2.988  -0.868  -1.258  0.00  0.00    +0.000 C 
BRANCH   9  10
ATOM     10  S   UNL     1       4.749  -1.290  -0.979  0.00  0.00    +0.000 S 
BRANCH  10  11
ATOM     11  C   UNL     1       5.175  -1.913  -2.594  0.00  0.00    +0.000 A 
ATOM     12  C   UNL     1       4.497  -2.994  -3.167  0.00  0.00    +0.000 A 
ATOM     13  C   UNL     1       4.860  -3.464  -4.431  0.00  0.00    +0.000 A 
ATOM     14  C   UNL     1       5.907  -2.861  -5.126  0.00  0.00    +0.000 A 
ATOM     15  C   UNL     1       6.596  -1.792  -4.556  0.00  0.00    +0.000 A 
ATOM     16  C   UNL     1       6.233  -1.323  -3.291  0.00  0.00    +0.000 A 
ENDBRANCH  10  11
ENDBRANCH   9  10
ENDBRANCH   2   9
TORSDOF 4
