REMARK  Name = *****
REMARK  2 active torsions:
REMARK  status: ('A' for Active; 'I' for Inactive)
REMARK    1  A    between atoms: C_1  and  C_2
REMARK    2  A    between atoms: C_9  and  C_11
REMARK                            x       y       z     vdW  Elec       q    Type
REMARK                         _______ _______ _______ _____ _____    ______ ____
ROOT
ATOM      1  C   UNL     1       1.923  -2.134   0.041  0.00  0.00    +0.000 C 
ATOM      2  C   UNL     1       1.283  -0.779   0.007  0.00  0.00    +0.000 A 
ATOM      3  C   UNL     1      -0.110  -0.580   0.005  0.00  0.00    +0.000 A 
ATOM      4  C   UNL     1      -0.614   0.710  -0.028  0.00  0.00    +0.000 A 
ATOM      5  C   UNL     1       0.155   1.865  -0.060  0.00  0.00    +0.000 A 
ATOM      6  C   UNL     1       1.539   1.668  -0.057  0.00  0.00    +0.000 A 
ATOM      7  C   UNL     1       2.091   0.380  -0.025  0.00  0.00    +0.000 A 
ATOM      8  O   UNL     1      -1.975   0.630  -0.023  0.00  0.00    +0.000 OA
ATOM      9  C   UNL     1      -2.230  -0.719   0.014  0.00  0.00    +0.000 A 
ATOM     10  N   UNL     1      -1.149  -1.479   0.032  0.00  0.00    +0.000 NA
ENDROOT
BRANCH   9  11
ATOM     11  C   UNL     1      -3.635  -1.121   0.030  0.00  0.00    +0.000 A 
ATOM     12  C   UNL     1      -4.678  -0.184  -0.007  0.00  0.00    +0.000 A 
ATOM     13  C   UNL     1      -6.013  -0.599   0.009  0.00  0.00    +0.000 A 
ATOM     14  C   UNL     1      -6.321  -1.957   0.062  0.00  0.00    +0.000 A 
ATOM     15  C   UNL     1      -5.298  -2.900   0.099  0.00  0.00    +0.000 A 
ATOM     16  C   UNL     1      -3.964  -2.485   0.083  0.00  0.00    +0.000 A 
ENDBRANCH   9  11
TORSDOF 1
