REMARK  Name = *****
REMARK  4 active torsions:
REMARK  status: ('A' for Active; 'I' for Inactive)
REMARK    1  A    between atoms: C_4  and  C_7
REMARK    2  A    between atoms: C_7  and  O_8
REMARK    3  A    between atoms: O_8  and  C_9
REMARK    4  A    between atoms: C_9  and  C_11
REMARK                            x       y       z     vdW  Elec       q    Type
REMARK                         _______ _______ _______ _____ _____    ______ ____
ROOT
ATOM      1  C   UNL     1      -4.753  -0.886  -0.962  0.00  0.00    +0.000 C 
ATOM      2  O   UNL     1      -4.749  -0.219  -1.981  0.00  0.00    +0.000 OA
ENDROOT
BRANCH   1   3
ATOM      3  C   UNL     1      -5.607  -2.076  -0.727  0.00  0.00    +0.000 A 
ATOM      4  C   UNL     1      -5.286  -3.033   0.249  0.00  0.00    +0.000 A 
ATOM      5  C   UNL     1      -6.102  -4.154   0.431  0.00  0.00    +0.000 A 
ATOM      6  C   UNL     1      -7.240  -4.327  -0.357  0.00  0.00    +0.000 A 
ATOM      7  C   UNL     1      -7.563  -3.379  -1.326  0.00  0.00    +0.000 A 
ATOM      8  C   UNL     1      -6.748  -2.262  -1.508  0.00  0.00    +0.000 A 
ATOM      9  F   UNL     1      -7.108  -1.369  -2.441  0.00  0.00    +0.000 F 
ENDBRANCH   1   3
BRANCH   1  10
ATOM     10  O   UNL     1      -3.986  -0.654   0.132  0.00  0.00    +0.000 OA
BRANCH  10  11
ATOM     11  C   UNL     1      -3.126   0.484   0.004  0.00  0.00    +0.000 C 
BRANCH  11  15
ATOM     12  C   UNL     1      -0.887   1.019   3.656  0.00  0.00    +0.000 A 
ATOM     13  C   UNL     1      -0.937  -0.234   3.047  0.00  0.00    +0.000 A 
ATOM     14  C   UNL     1      -1.664  -0.410   1.869  0.00  0.00    +0.000 A 
ATOM     15  C   UNL     1      -2.358   0.664   1.291  0.00  0.00    +0.000 A 
ATOM     16  C   UNL     1      -2.291   1.922   1.907  0.00  0.00    +0.000 A 
ATOM     17  C   UNL     1      -1.562   2.096   3.085  0.00  0.00    +0.000 A 
ENDBRANCH  11  15
ENDBRANCH  10  11
ENDBRANCH   1  10
TORSDOF 4
