REMARK  Name = *****
REMARK  4 active torsions:
REMARK  status: ('A' for Active; 'I' for Inactive)
REMARK    1  A    between atoms: C_1  and  C_2
REMARK    2  A    between atoms: C_5  and  C_7
REMARK    3  A    between atoms: C_7  and  C_8
REMARK    4  A    between atoms: C_8  and  C_9
REMARK                            x       y       z     vdW  Elec       q    Type
REMARK                         _______ _______ _______ _____ _____    ______ ____
ROOT
ATOM      1  C   UNL     1       5.784   1.708   0.024  0.00  0.00    +0.000 C 
ENDROOT
BRANCH   1   6
ATOM      2  C   UNL     1       0.958   0.042   0.066  0.00  0.00    +0.000 C 
ATOM      3  C   UNL     1       2.442  -0.004   0.058  0.00  0.00    +0.000 C 
ATOM      4  C   UNL     1       3.243  -1.083   0.061  0.00  0.00    +0.000 C 
ATOM      5  C   UNL     1       4.679  -0.651   0.049  0.00  0.00    +0.000 C 
ATOM      6  C   UNL     1       4.557   0.852   0.039  0.00  0.00    +0.000 C 
ATOM      7  C   UNL     1       3.257   1.191   0.045  0.00  0.00    +0.000 C 
ENDBRANCH   1   6
BRANCH   1   8
ATOM      8  C   UNL     1       5.527   3.220   0.009  0.00  0.00    +0.000 C 
BRANCH   8   9
ATOM      9  C   UNL     1       6.816   4.005  -0.015  0.00  0.00    +0.000 A 
ATOM     10  C   UNL     1       7.425   4.332  -1.234  0.00  0.00    +0.000 A 
ATOM     11  C   UNL     1       8.626   5.042  -1.256  0.00  0.00    +0.000 A 
ATOM     12  C   UNL     1       9.231   5.428  -0.061  0.00  0.00    +0.000 A 
ATOM     13  C   UNL     1       8.637   5.102   1.156  0.00  0.00    +0.000 A 
ATOM     14  C   UNL     1       7.436   4.392   1.181  0.00  0.00    +0.000 A 
ENDBRANCH   8   9
ENDBRANCH   1   8
TORSDOF 3
