REMARK  Name = *****
REMARK  5 active torsions:
REMARK  status: ('A' for Active; 'I' for Inactive)
REMARK    1  A    between atoms: C_1  and  C_2
REMARK    2  A    between atoms: C_7  and  C_8
REMARK    3  A    between atoms: C_9  and  C_10
REMARK    4  A    between atoms: C_15  and  O_16
REMARK    5  A    between atoms: O_16  and  C_17
REMARK                            x       y       z     vdW  Elec       q    Type
REMARK                         _______ _______ _______ _____ _____    ______ ____
ROOT
ATOM      1  C   UNL     1       2.371  -2.394  -0.247  0.00  0.00    +0.000 C 
ATOM      2  C   UNL     1       1.758  -3.425  -0.333  0.00  0.00    +0.000 C 
ENDROOT
BRANCH   1   9
ATOM      3  C   UNL     1       1.027   0.221   0.130  0.00  0.00    +0.000 C 
ATOM      4  C   UNL     1       2.517   0.074  -0.000  0.00  0.00    +0.000 A 
ATOM      5  C   UNL     1       3.320   1.227   0.016  0.00  0.00    +0.000 A 
ATOM      6  C   UNL     1       4.706   1.135  -0.113  0.00  0.00    +0.000 A 
ATOM      7  C   UNL     1       5.309  -0.110  -0.264  0.00  0.00    +0.000 A 
ATOM      8  C   UNL     1       4.524  -1.263  -0.296  0.00  0.00    +0.000 A 
ATOM      9  C   UNL     1       3.131  -1.179  -0.173  0.00  0.00    +0.000 A 
ENDBRANCH   1   9
BRANCH   2  10
ATOM     10  C   UNL     1       1.089  -4.691  -0.435  0.00  0.00    +0.000 A 
ATOM     11  C   UNL     1       1.841  -5.811  -0.030  0.00  0.00    +0.000 A 
ATOM     12  C   UNL     1       1.318  -7.103  -0.107  0.00  0.00    +0.000 A 
ATOM     13  C   UNL     1       0.033  -7.294  -0.592  0.00  0.00    +0.000 A 
ATOM     14  C   UNL     1      -0.722  -6.193  -0.995  0.00  0.00    +0.000 A 
ATOM     15  C   UNL     1      -0.214  -4.883  -0.923  0.00  0.00    +0.000 A 
BRANCH  15  16
ATOM     16  O   UNL     1      -1.127  -3.974  -1.383  0.00  0.00    +0.000 OA
ATOM     17  C   UNL     1      -0.876  -2.590  -1.232  0.00  0.00    +0.000 C 
ENDBRANCH  15  16
ENDBRANCH   2  10
TORSDOF 3
