REMARK  Name = *****
REMARK  5 active torsions:
REMARK  status: ('A' for Active; 'I' for Inactive)
REMARK    1  A    between atoms: C_1  and  O_2
REMARK    2  A    between atoms: O_2  and  C_3
REMARK    3  A    between atoms: C_3  and  C_5
REMARK    4  A    between atoms: C_5  and  C_13
REMARK    5  A    between atoms: C_6  and  C_7
REMARK                            x       y       z     vdW  Elec       q    Type
REMARK                         _______ _______ _______ _____ _____    ______ ____
ROOT
ATOM      1  C   UNL     1       4.726  -1.330   0.188  0.00  0.00    +0.000 C 
ATOM      2  C   UNL     1       5.216  -0.080   0.314  0.00  0.00    +0.000 C 
ENDROOT
BRANCH   2   3
ATOM      3  C   UNL     1       4.466   1.163   0.094  0.00  0.00    +0.000 A 
ATOM      4  C   UNL     1       4.278   2.051   1.158  0.00  0.00    +0.000 A 
ATOM      5  C   UNL     1       3.574   3.242   0.964  0.00  0.00    +0.000 A 
ATOM      6  C   UNL     1       3.062   3.554  -0.294  0.00  0.00    +0.000 A 
ATOM      7  C   UNL     1       3.254   2.678  -1.361  0.00  0.00    +0.000 A 
ATOM      8  C   UNL     1       3.957   1.487  -1.170  0.00  0.00    +0.000 A 
ENDBRANCH   2   3
BRANCH   1   9
ATOM      9  C   UNL     1       5.613  -2.495   0.378  0.00  0.00    +0.000 A 
ATOM     10  C   UNL     1       6.334  -2.659   1.571  0.00  0.00    +0.000 A 
ATOM     11  C   UNL     1       7.168  -3.765   1.753  0.00  0.00    +0.000 A 
ATOM     12  C   UNL     1       7.288  -4.721   0.746  0.00  0.00    +0.000 A 
ATOM     13  C   UNL     1       6.574  -4.573  -0.441  0.00  0.00    +0.000 A 
ATOM     14  C   UNL     1       5.740  -3.467  -0.624  0.00  0.00    +0.000 A 
ENDBRANCH   1   9
BRANCH   1  15
ATOM     15  C   UNL     1       3.305  -1.542  -0.197  0.00  0.00    +0.000 C 
ATOM     16  O   UNL     1       2.944  -2.023  -1.261  0.00  0.00    +0.000 OA
BRANCH  15  18
ATOM     17  C   UNL     1       1.111  -1.294   0.551  0.00  0.00    +0.000 C 
ATOM     18  O   UNL     1       2.503  -1.155   0.829  0.00  0.00    +0.000 OA
ENDBRANCH  15  18
ENDBRANCH   1  15
TORSDOF 4
