REMARK  Name = *****
REMARK  6 active torsions:
REMARK  status: ('A' for Active; 'I' for Inactive)
REMARK    1  A    between atoms: C_1  and  C_2
REMARK    2  A    between atoms: C_3  and  C_21
REMARK    3  A    between atoms: C_5  and  O_8
REMARK    4  A    between atoms: O_8  and  C_9
REMARK    5  A    between atoms: C_9  and  C_11
REMARK    6  A    between atoms: C_14  and  C_17
REMARK                            x       y       z     vdW  Elec       q    Type
REMARK                         _______ _______ _______ _____ _____    ______ ____
ROOT
ATOM      1  C   UNL     1      -3.861  -0.088   1.098  0.00  0.00    +0.000 C 
ATOM      2  O   UNL     1      -4.047   0.611   0.113  0.00  0.00    +0.000 OA
ENDROOT
BRANCH   1   3
ATOM      3  C   UNL     1      -4.973  -0.624   1.933  0.00  0.00    +0.000 A 
ATOM      4  C   UNL     1      -4.757  -1.430   3.058  0.00  0.00    +0.000 A 
ATOM      5  C   UNL     1      -5.842  -1.904   3.804  0.00  0.00    +0.000 A 
ATOM      6  C   UNL     1      -7.159  -1.587   3.436  0.00  0.00    +0.000 A 
ATOM      7  C   UNL     1      -7.370  -0.771   2.315  0.00  0.00    +0.000 A 
ATOM      8  C   UNL     1      -6.287  -0.297   1.568  0.00  0.00    +0.000 A 
BRANCH   6   9
ATOM      9  C   UNL     1      -8.324  -2.083   4.260  0.00  0.00    +0.000 C 
ATOM     10  F   UNL     1      -8.116  -3.326   4.778  0.00  0.00    +0.000 F 
ATOM     11  F   UNL     1      -8.587  -1.274   5.322  0.00  0.00    +0.000 F 
ATOM     12  F   UNL     1      -9.486  -2.165   3.553  0.00  0.00    +0.000 F 
ENDBRANCH   6   9
ENDBRANCH   1   3
BRANCH   1  13
ATOM     13  O   UNL     1      -2.649  -0.508   1.613  0.00  0.00    +0.000 OA
BRANCH  13  18
ATOM     14  C   UNL     1       2.157   1.173  -0.946  0.00  0.00    +0.000 C 
ATOM     15  C   UNL     1       0.886   0.714  -0.282  0.00  0.00    +0.000 A 
ATOM     16  C   UNL     1       0.590  -0.658  -0.131  0.00  0.00    +0.000 A 
ATOM     17  C   UNL     1      -0.609  -1.036   0.491  0.00  0.00    +0.000 A 
ATOM     18  C   UNL     1      -1.500  -0.065   0.944  0.00  0.00    +0.000 A 
ATOM     19  C   UNL     1      -1.205   1.289   0.826  0.00  0.00    +0.000 A 
ATOM     20  C   UNL     1      -0.018   1.675   0.205  0.00  0.00    +0.000 A 
ATOM     21  C   UNL     1       1.530  -1.722  -0.626  0.00  0.00    +0.000 C 
ENDBRANCH  13  18
ENDBRANCH   1  13
TORSDOF 4
