REMARK  Name = *****
REMARK  3 active torsions:
REMARK  status: ('A' for Active; 'I' for Inactive)
REMARK    1  A    between atoms: C_1  and  C_2
REMARK    2  A    between atoms: C_2  and  C_11
REMARK    3  A    between atoms: N_3  and  C_4
REMARK                            x       y       z     vdW  Elec       q    Type
REMARK                         _______ _______ _______ _____ _____    ______ ____
ROOT
ATOM      1  C   UNL     1       1.094   0.595   0.182  0.00  0.00    +0.000 C 
ATOM      2  C   UNL     1       2.461  -0.012  -0.081  0.00  0.00    +0.000 C 
ATOM      3  N   UNL     1       3.011  -0.925   0.670  0.00  0.00    +0.000 NA
ENDROOT
BRANCH   3   4
ATOM      4  C   UNL     1       2.343  -1.400   1.802  0.00  0.00    +0.000 A 
ATOM      5  C   UNL     1       1.424  -2.449   1.697  0.00  0.00    +0.000 A 
ATOM      6  C   UNL     1       0.777  -2.939   2.834  0.00  0.00    +0.000 A 
ATOM      7  C   UNL     1       1.063  -2.388   4.082  0.00  0.00    +0.000 A 
ATOM      8  C   UNL     1       1.993  -1.357   4.202  0.00  0.00    +0.000 A 
ATOM      9  C   UNL     1       2.637  -0.870   3.062  0.00  0.00    +0.000 A 
ATOM     10 CL   UNL     1       0.267  -2.989   5.484  0.00  0.00    +0.000 Cl
ENDBRANCH   3   4
BRANCH   2  11
ATOM     11  C   UNL     1       3.241   0.423  -1.331  0.00  0.00    +0.000 C 
ATOM     12  C   UNL     1       3.537   1.899  -1.332  0.00  0.00    +0.000 C 
ATOM     13  C   UNL     1       2.983   2.470  -2.415  0.00  0.00    +0.000 C 
ATOM     14  C   UNL     1       2.298   1.464  -3.190  0.00  0.00    +0.000 C 
ATOM     15  C   UNL     1       2.429   0.272  -2.589  0.00  0.00    +0.000 C 
ENDBRANCH   2  11
TORSDOF 2
