REMARK  Name = *****
REMARK  3 active torsions:
REMARK  status: ('A' for Active; 'I' for Inactive)
REMARK    1  A    between atoms: C_2  and  C_11
REMARK    2  A    between atoms: C_3  and  S_4
REMARK    3  A    between atoms: S_4  and  C_5
REMARK                            x       y       z     vdW  Elec       q    Type
REMARK                         _______ _______ _______ _____ _____    ______ ____
ROOT
ATOM      1  C   UNL     1      -0.363   0.461  -0.304  0.00  0.00    +0.000 C 
ATOM      2  C   UNL     1       0.717  -0.531   0.054  0.00  0.00    +0.000 C 
ATOM      3  C   UNL     1      -0.747  -0.921   0.140  0.00  0.00    +0.000 C 
ENDROOT
BRANCH   2   4
ATOM      4  C   UNL     1       1.589  -1.127  -1.026  0.00  0.00    +0.000 A 
ATOM      5  C   UNL     1       1.716  -2.518  -1.181  0.00  0.00    +0.000 A 
ATOM      6  C   UNL     1       2.536  -3.070  -2.168  0.00  0.00    +0.000 A 
ATOM      7  C   UNL     1       3.256  -2.238  -3.021  0.00  0.00    +0.000 A 
ATOM      8  C   UNL     1       3.157  -0.856  -2.883  0.00  0.00    +0.000 A 
ATOM      9  C   UNL     1       2.335  -0.310  -1.893  0.00  0.00    +0.000 A 
ENDBRANCH   2   4
BRANCH   3  10
ATOM     10  S   UNL     1      -1.504  -1.154   1.694  0.00  0.00    +0.000 S 
BRANCH  10  11
ATOM     11  C   UNL     1      -1.116  -2.880   1.915  0.00  0.00    +0.000 A 
ATOM     12  C   UNL     1       0.108  -3.264   2.471  0.00  0.00    +0.000 A 
ATOM     13  C   UNL     1       0.411  -4.617   2.636  0.00  0.00    +0.000 A 
ATOM     14  C   UNL     1      -0.511  -5.590   2.253  0.00  0.00    +0.000 A 
ATOM     15  C   UNL     1      -1.736  -5.212   1.706  0.00  0.00    +0.000 A 
ATOM     16  C   UNL     1      -2.039  -3.859   1.539  0.00  0.00    +0.000 A 
ENDBRANCH  10  11
ENDBRANCH   3  10
TORSDOF 3
