REMARK  Name = *****
REMARK  6 active torsions:
REMARK  status: ('A' for Active; 'I' for Inactive)
REMARK    1  A    between atoms: C_1  and  C_2
REMARK    2  A    between atoms: C_3  and  C_9
REMARK    3  A    between atoms: C_4  and  C_8
REMARK    4  A    between atoms: C_9  and  C_11
REMARK    5  A    between atoms: C_11  and  C_12
REMARK    6  A    between atoms: C_12  and  C_13
REMARK                            x       y       z     vdW  Elec       q    Type
REMARK                         _______ _______ _______ _____ _____    ______ ____
ROOT
ATOM      1  C   UNL     1      -0.009   2.610   0.784  0.00  0.00    +0.000 C 
ATOM      2  O   UNL     1      -0.625   3.062   1.743  0.00  0.00    +0.000 OA
ENDROOT
BRANCH   1   5
ATOM      3  C   UNL     1       1.002   0.252   2.182  0.00  0.00    +0.000 C 
ATOM      4  C   UNL     1       0.158   0.129   0.944  0.00  0.00    +0.000 A 
ATOM      5  C   UNL     1      -0.352   1.261   0.276  0.00  0.00    +0.000 A 
ATOM      6  C   UNL     1      -1.179   1.130  -0.858  0.00  0.00    +0.000 A 
ATOM      7  C   UNL     1      -1.453  -0.157  -1.341  0.00  0.00    +0.000 A 
ATOM      8  C   UNL     1      -0.939  -1.283  -0.699  0.00  0.00    +0.000 A 
ATOM      9  C   UNL     1      -0.145  -1.142   0.439  0.00  0.00    +0.000 A 
ATOM     10  C   UNL     1      -1.764   2.321  -1.563  0.00  0.00    +0.000 C 
ENDBRANCH   1   5
BRANCH   1  11
ATOM     11  C   UNL     1       1.176   3.295   0.129  0.00  0.00    +0.000 C 
BRANCH  11  12
ATOM     12  C   UNL     1       1.140   4.815   0.285  0.00  0.00    +0.000 C 
BRANCH  12  13
ATOM     13  C   UNL     1       0.133   5.477  -0.625  0.00  0.00    +0.000 A 
ATOM     14  C   UNL     1      -1.147   5.800  -0.149  0.00  0.00    +0.000 A 
ATOM     15  C   UNL     1      -2.085   6.393  -0.994  0.00  0.00    +0.000 A 
ATOM     16  C   UNL     1      -1.744   6.664  -2.313  0.00  0.00    +0.000 A 
ATOM     17  C   UNL     1      -0.482   6.352  -2.804  0.00  0.00    +0.000 A 
ATOM     18  C   UNL     1       0.458   5.757  -1.961  0.00  0.00    +0.000 A 
ATOM     19  F   UNL     1      -2.645   7.231  -3.126  0.00  0.00    +0.000 F 
ENDBRANCH  12  13
ENDBRANCH  11  12
ENDBRANCH   1  11
TORSDOF 4
