REMARK  Name = *****
REMARK  1 active torsions:
REMARK  status: ('A' for Active; 'I' for Inactive)
REMARK    1  A    between atoms: C_4  and  C_6
REMARK                            x       y       z     vdW  Elec       q    Type
REMARK                         _______ _______ _______ _____ _____    ______ ____
ROOT
ATOM      1  C   UNL     1      -0.080  -2.609   0.002  0.00  0.00    +0.000 A 
ATOM      2  C   UNL     1      -0.881  -3.187  -0.996  0.00  0.00    +0.000 A 
ATOM      3  C   UNL     1      -1.152  -4.554  -0.966  0.00  0.00    +0.000 A 
ATOM      4  C   UNL     1      -0.638  -5.358   0.050  0.00  0.00    +0.000 A 
ATOM      5  C   UNL     1       0.153  -4.803   1.050  0.00  0.00    +0.000 A 
ATOM      6  C   UNL     1       0.427  -3.432   1.025  0.00  0.00    +0.000 A 
ATOM      7  S   UNL     1      -1.054  -7.080  -0.023  0.00  0.00    +0.000 S 
ATOM      8  C   UNL     1      -2.025  -6.989  -1.489  0.00  0.00    +0.000 A 
ATOM      9  O   UNL     1      -2.567  -7.965  -1.984  0.00  0.00    +0.000 OA
ATOM     10  S   UNL     1      -2.152  -5.375  -2.182  0.00  0.00    +0.000 S 
ENDROOT
BRANCH   1  14
ATOM     11  C   UNL     1       0.563   1.038   0.701  0.00  0.00    +0.000 A 
ATOM     12  C   UNL     1       0.870   1.127  -0.637  0.00  0.00    +0.000 A 
ATOM     13  S   UNL     1       0.714  -0.377  -1.432  0.00  0.00    +0.000 S 
ATOM     14  C   UNL     1       0.218  -1.170   0.009  0.00  0.00    +0.000 A 
ATOM     15  C   UNL     1       0.192  -0.287   1.074  0.00  0.00    +0.000 A 
ENDBRANCH   1  14
TORSDOF 1
