REMARK  Name = *****
REMARK  4 active torsions:
REMARK  status: ('A' for Active; 'I' for Inactive)
REMARK    1  A    between atoms: C_1  and  C_2
REMARK    2  A    between atoms: C_4  and  C_18
REMARK    3  A    between atoms: C_6  and  C_8
REMARK    4  A    between atoms: C_8  and  N_9
REMARK                            x       y       z     vdW  Elec       q    Type
REMARK                         _______ _______ _______ _____ _____    ______ ____
ROOT
ATOM      1  C   UNL     1      -2.602   0.985  -0.053  0.00  0.00    +0.000 C 
ENDROOT
BRANCH   1   2
ATOM      2  N   UNL     1      -3.423   0.711   1.112  0.00  0.00    +0.000 N 
ATOM      3  C   UNL     1      -3.342   1.275   2.359  0.00  0.00    +0.000 A 
ATOM      4  C   UNL     1      -2.479   2.200   2.956  0.00  0.00    +0.000 A 
ATOM      5  C   UNL     1      -2.734   2.527   4.293  0.00  0.00    +0.000 A 
ATOM      6  C   UNL     1      -3.800   1.953   4.992  0.00  0.00    +0.000 A 
ATOM      7  C   UNL     1      -4.649   1.028   4.373  0.00  0.00    +0.000 A 
ATOM      8  C   UNL     1      -4.408   0.690   3.033  0.00  0.00    +0.000 A 
ATOM      9  N   UNL     1      -5.072  -0.165   2.196  0.00  0.00    +0.000 NA
ATOM     10  N   UNL     1      -4.469  -0.138   1.015  0.00  0.00    +0.000 NA
ENDBRANCH   1   2
BRANCH   1  16
ATOM     11  C   UNL     1       2.430   1.174   0.134  0.00  0.00    +0.000 C 
ATOM     12  C   UNL     1       1.166   0.367   0.094  0.00  0.00    +0.000 A 
ATOM     13  C   UNL     1       1.208  -1.033   0.097  0.00  0.00    +0.000 A 
ATOM     14  C   UNL     1       0.029  -1.785   0.053  0.00  0.00    +0.000 A 
ATOM     15  C   UNL     1      -1.204  -1.122   0.008  0.00  0.00    +0.000 A 
ATOM     16  C   UNL     1      -1.270   0.279   0.010  0.00  0.00    +0.000 A 
ATOM     17  C   UNL     1      -0.076   1.014   0.046  0.00  0.00    +0.000 A 
ATOM     18  C   UNL     1       0.069  -3.285   0.060  0.00  0.00    +0.000 C 
ENDBRANCH   1  16
TORSDOF 2
