REMARK  Name = *****
REMARK  3 active torsions:
REMARK  status: ('A' for Active; 'I' for Inactive)
REMARK    1  A    between atoms: C_4  and  S_6
REMARK    2  A    between atoms: S_6  and  S_7
REMARK    3  A    between atoms: S_7  and  C_8
REMARK                            x       y       z     vdW  Elec       q    Type
REMARK                         _______ _______ _______ _____ _____    ______ ____
ROOT
ATOM      1  S   UNL     1      -1.048  -0.042   2.807  0.00  0.00    +0.000 S 
ENDROOT
BRANCH   1   5
ATOM      2  C   UNL     1       0.954  -0.154   0.133  0.00  0.00    +0.000 C 
ATOM      3  C   UNL     1      -0.285  -0.919  -0.333  0.00  0.00    +0.000 C 
ATOM      4  C   UNL     1      -1.482  -0.045   0.030  0.00  0.00    +0.000 C 
ATOM      5  C   UNL     1      -1.005   0.828   1.190  0.00  0.00    +0.000 C 
ATOM      6  C   UNL     1       0.439   1.127   0.788  0.00  0.00    +0.000 C 
ENDBRANCH   1   5
BRANCH   1   7
ATOM      7  S   UNL     1      -3.060  -0.237   3.194  0.00  0.00    +0.000 S 
BRANCH   7   8
ATOM      8  C   UNL     1      -3.446   1.246   4.178  0.00  0.00    +0.000 C 
ATOM      9  C   UNL     1      -4.911   1.250   4.607  0.00  0.00    +0.000 C 
ATOM     10  C   UNL     1      -5.144   2.689   5.054  0.00  0.00    +0.000 C 
ATOM     11  C   UNL     1      -4.190   3.542   4.219  0.00  0.00    +0.000 C 
ATOM     12  C   UNL     1      -3.324   2.565   3.424  0.00  0.00    +0.000 C 
ENDBRANCH   7   8
ENDBRANCH   1   7
TORSDOF 3
