REMARK  Name = *****
REMARK  1 active torsions:
REMARK  status: ('A' for Active; 'I' for Inactive)
REMARK    1  A    between atoms: C_3  and  C_13
REMARK                            x       y       z     vdW  Elec       q    Type
REMARK                         _______ _______ _______ _____ _____    ______ ____
ROOT
ATOM      1  C   UNL     1      -2.761   0.681   0.649  0.00  0.00    +0.000 C 
ATOM      2  C   UNL     1      -2.031  -0.598   1.064  0.00  0.00    +0.000 C 
ATOM      3  C   UNL     1      -1.751  -1.517  -0.127  0.00  0.00    +0.000 C 
ATOM      4  N   UNL     1      -0.612  -1.557  -0.754  0.00  0.00    +0.000 NA
ATOM      5  C   UNL     1       0.461  -0.728  -0.390  0.00  0.00    +0.000 A 
ATOM      6  C   UNL     1       1.597  -1.343   0.150  0.00  0.00    +0.000 A 
ATOM      7  C   UNL     1       2.723  -0.595   0.496  0.00  0.00    +0.000 A 
ATOM      8  C   UNL     1       2.732   0.781   0.288  0.00  0.00    +0.000 A 
ATOM      9  C   UNL     1       1.615   1.408  -0.266  0.00  0.00    +0.000 A 
ATOM     10  C   UNL     1       0.477   0.663  -0.607  0.00  0.00    +0.000 A 
ATOM     11  S   UNL     1      -0.923   1.541  -1.300  0.00  0.00    +0.000 S 
ATOM     12  C   UNL     1      -1.850   1.838   0.237  0.00  0.00    +0.000 C 
ENDROOT
BRANCH   3  13
ATOM     13  C   UNL     1      -2.839  -2.392  -0.580  0.00  0.00    +0.000 A 
ATOM     14  C   UNL     1      -4.141  -2.490  -0.116  0.00  0.00    +0.000 A 
ATOM     15  C   UNL     1      -4.911  -3.464  -0.817  0.00  0.00    +0.000 A 
ATOM     16  C   UNL     1      -4.179  -4.086  -1.800  0.00  0.00    +0.000 A 
ATOM     17  S   UNL     1      -2.579  -3.499  -1.873  0.00  0.00    +0.000 S 
ENDBRANCH   3  13
TORSDOF 1
