REMARK  Name = *****
REMARK  3 active torsions:
REMARK  status: ('A' for Active; 'I' for Inactive)
REMARK    1  A    between atoms: C_1  and  C_2
REMARK    2  A    between atoms: C_5  and  C_8
REMARK    3  A    between atoms: C_8  and  C_9
REMARK                            x       y       z     vdW  Elec       q    Type
REMARK                         _______ _______ _______ _____ _____    ______ ____
ROOT
ATOM      1  C   UNL     1      -3.877   1.480  -0.001  0.00  0.00    +0.000 A 
ATOM      2  N   UNL     1      -4.343   2.114   1.061  0.00  0.00    +0.000 NA
ATOM      3  C   UNL     1      -4.749   3.326   0.563  0.00  0.00    +0.000 A 
ATOM      4  C   UNL     1      -4.522   3.371  -0.804  0.00  0.00    +0.000 A 
ATOM      5  O   UNL     1      -3.968   2.183  -1.177  0.00  0.00    +0.000 OA
ATOM      6  C   UNL     1      -4.820   4.454  -1.622  0.00  0.00    +0.000 A 
ATOM      7  C   UNL     1      -5.390   5.559  -0.976  0.00  0.00    +0.000 A 
ATOM      8  C   UNL     1      -5.633   5.546   0.404  0.00  0.00    +0.000 A 
ATOM      9  C   UNL     1      -5.320   4.435   1.197  0.00  0.00    +0.000 A 
ATOM     10 CL   UNL     1      -6.337   6.934   1.146  0.00  0.00    +0.000 Cl
ENDROOT
BRANCH   1  11
ATOM     11  C   UNL     1      -3.295   0.113  -0.088  0.00  0.00    +0.000 C 
BRANCH  11  16
ATOM     12  C   UNL     1       2.532   0.196   0.027  0.00  0.00    +0.000 C 
ATOM     13  C   UNL     1       1.033   0.141  -0.000  0.00  0.00    +0.000 A 
ATOM     14  C   UNL     1       0.298   0.217   1.188  0.00  0.00    +0.000 A 
ATOM     15  C   UNL     1      -1.098   0.201   1.159  0.00  0.00    +0.000 A 
ATOM     16  C   UNL     1      -1.785   0.113  -0.059  0.00  0.00    +0.000 A 
ATOM     17  C   UNL     1      -1.047   0.062  -1.250  0.00  0.00    +0.000 A 
ATOM     18  C   UNL     1       0.349   0.078  -1.220  0.00  0.00    +0.000 A 
ENDBRANCH  11  16
ENDBRANCH   1  11
TORSDOF 2
