REMARK  Name = *****
REMARK  7 active torsions:
REMARK  status: ('A' for Active; 'I' for Inactive)
REMARK    1  A    between atoms: C_1  and  O_2
REMARK    2  A    between atoms: O_2  and  C_3
REMARK    3  A    between atoms: C_6  and  C_9
REMARK    4  A    between atoms: C_9  and  C_10
REMARK    5  A    between atoms: C_10  and  C_11
REMARK    6  A    between atoms: C_14  and  S_17
REMARK    7  A    between atoms: S_17  and  C_18
REMARK                            x       y       z     vdW  Elec       q    Type
REMARK                         _______ _______ _______ _____ _____    ______ ____
ROOT
ATOM      1  C   UNL     1       5.383   1.748   4.422  0.00  0.00    +0.000 C 
ENDROOT
BRANCH   1   5
ATOM      2  C   UNL     1       2.957   0.368   1.119  0.00  0.00    +0.000 A 
ATOM      3  C   UNL     1       2.869   1.691   1.551  0.00  0.00    +0.000 A 
ATOM      4  C   UNL     1       3.659   2.138   2.617  0.00  0.00    +0.000 A 
ATOM      5  C   UNL     1       4.549   1.269   3.260  0.00  0.00    +0.000 A 
ATOM      6  C   UNL     1       4.629  -0.059   2.828  0.00  0.00    +0.000 A 
ATOM      7  C   UNL     1       3.839  -0.501   1.764  0.00  0.00    +0.000 A 
BRANCH   2   9
ATOM      8  C   UNL     1       1.340   0.654  -0.599  0.00  0.00    +0.000 C 
ATOM      9  O   UNL     1       2.245  -0.194   0.096  0.00  0.00    +0.000 OA
ENDBRANCH   2   9
ENDBRANCH   1   5
BRANCH   1  10
ATOM     10  C   UNL     1       4.642   1.589   5.753  0.00  0.00    +0.000 C 
BRANCH  10  11
ATOM     11  C   UNL     1       5.477   2.068   6.915  0.00  0.00    +0.000 A 
ATOM     12  C   UNL     1       5.452   3.414   7.300  0.00  0.00    +0.000 A 
ATOM     13  C   UNL     1       6.243   3.863   8.362  0.00  0.00    +0.000 A 
ATOM     14  C   UNL     1       7.065   2.972   9.058  0.00  0.00    +0.000 A 
ATOM     15  C   UNL     1       7.106   1.633   8.662  0.00  0.00    +0.000 A 
ATOM     16  C   UNL     1       6.316   1.182   7.600  0.00  0.00    +0.000 A 
BRANCH  14  17
ATOM     17  S   UNL     1       8.101   3.508  10.407  0.00  0.00    +0.000 S 
ATOM     18  C   UNL     1       6.849   4.245  11.491  0.00  0.00    +0.000 C 
ENDBRANCH  14  17
ENDBRANCH  10  11
ENDBRANCH   1  10
TORSDOF 5
