REMARK  Name = *****
REMARK  1 active torsions:
REMARK  status: ('A' for Active; 'I' for Inactive)
REMARK    1  A    between atoms: C_9  and  C_10
REMARK                            x       y       z     vdW  Elec       q    Type
REMARK                         _______ _______ _______ _____ _____    ______ ____
ROOT
ATOM      1  C   UNL     1      -1.664  -1.192   0.165  0.00  0.00    +0.000 C 
ATOM      2  C   UNL     1      -0.250  -0.695   0.078  0.00  0.00    +0.000 A 
ATOM      3  C   UNL     1       0.935  -1.407   0.150  0.00  0.00    +0.000 A 
ATOM      4  C   UNL     1       2.134  -0.697   0.046  0.00  0.00    +0.000 A 
ATOM      5  C   UNL     1       2.131   0.698  -0.126  0.00  0.00    +0.000 A 
ATOM      6  C   UNL     1       0.928   1.406  -0.197  0.00  0.00    +0.000 A 
ATOM      7  C   UNL     1      -0.252   0.693  -0.093  0.00  0.00    +0.000 A 
ATOM      8  C   UNL     1      -1.630   1.141  -0.134  0.00  0.00    +0.000 C 
ATOM      9  C   UNL     1      -2.464   0.094   0.001  0.00  0.00    +0.000 C 
ATOM     10  F   UNL     1      -1.967   2.430  -0.277  0.00  0.00    +0.000 F 
ENDROOT
BRANCH   9  11
ATOM     11  C   UNL     1      -3.938   0.101   0.011  0.00  0.00    +0.000 A 
ATOM     12  C   UNL     1      -4.672   1.213  -0.431  0.00  0.00    +0.000 A 
ATOM     13  C   UNL     1      -6.071   1.208  -0.432  0.00  0.00    +0.000 A 
ATOM     14  C   UNL     1      -6.766   0.087   0.007  0.00  0.00    +0.000 A 
ATOM     15  C   UNL     1      -6.062  -1.030   0.443  0.00  0.00    +0.000 A 
ATOM     16  C   UNL     1      -4.662  -1.023   0.442  0.00  0.00    +0.000 A 
ENDBRANCH   9  11
TORSDOF 1
