REMARK  Name = *****
REMARK  3 active torsions:
REMARK  status: ('A' for Active; 'I' for Inactive)
REMARK    1  A    between atoms: C_3  and  C_9
REMARK    2  A    between atoms: C_9  and  C_10
REMARK    3  A    between atoms: C_10  and  C_11
REMARK                            x       y       z     vdW  Elec       q    Type
REMARK                         _______ _______ _______ _____ _____    ______ ____
ROOT
ATOM      1  C   UNL     1       1.703   2.452  -0.687  0.00  0.00    +0.000 C 
ATOM      2  C   UNL     1       0.929   1.141  -0.529  0.00  0.00    +0.000 C 
ATOM      3  C   UNL     1       1.793  -0.073  -0.152  0.00  0.00    +0.000 C 
ATOM      4  O   UNL     1       2.847   0.247   0.754  0.00  0.00    +0.000 OA
ATOM      5  C   UNL     1       2.434   0.921   1.942  0.00  0.00    +0.000 C 
ATOM      6  C   UNL     1       2.441   2.413   1.744  0.00  0.00    +0.000 C 
ATOM      7  C   UNL     1       2.180   3.067   0.600  0.00  0.00    +0.000 C 
ATOM      8 CL   UNL     1       2.901   3.332   3.144  0.00  0.00    +0.000 Cl
ENDROOT
BRANCH   3   9
ATOM      9  C   UNL     1       2.434  -0.698  -1.403  0.00  0.00    +0.000 C 
BRANCH   9  10
ATOM     10  C   UNL     1       3.209  -1.979  -1.073  0.00  0.00    +0.000 C 
BRANCH  10  11
ATOM     11  C   UNL     1       3.787  -2.609  -2.317  0.00  0.00    +0.000 A 
ATOM     12  C   UNL     1       5.048  -2.218  -2.787  0.00  0.00    +0.000 A 
ATOM     13  C   UNL     1       5.577  -2.785  -3.947  0.00  0.00    +0.000 A 
ATOM     14  C   UNL     1       4.850  -3.744  -4.650  0.00  0.00    +0.000 A 
ATOM     15  C   UNL     1       3.592  -4.135  -4.194  0.00  0.00    +0.000 A 
ATOM     16  C   UNL     1       3.061  -3.569  -3.034  0.00  0.00    +0.000 A 
ENDBRANCH  10  11
ENDBRANCH   9  10
ENDBRANCH   3   9
TORSDOF 3
