REMARK  Name = *****
REMARK  4 active torsions:
REMARK  status: ('A' for Active; 'I' for Inactive)
REMARK    1  A    between atoms: C_5  and  C_7
REMARK    2  A    between atoms: C_7  and  C_8
REMARK    3  A    between atoms: C_7  and  S_10
REMARK    4  A    between atoms: S_10  and  C_11
REMARK                            x       y       z     vdW  Elec       q    Type
REMARK                         _______ _______ _______ _____ _____    ______ ____
ROOT
ATOM      1  C   UNL     1       2.567  -0.340   0.605  0.00  0.00    +0.000 C 
ENDROOT
BRANCH   1   6
ATOM      2  C   UNL     1      -0.943  -0.059   0.908  0.00  0.00    +0.000 C 
ATOM      3  C   UNL     1      -0.830   1.076  -0.112  0.00  0.00    +0.000 C 
ATOM      4  C   UNL     1       0.622   1.079  -0.494  0.00  0.00    +0.000 C 
ATOM      5  C   UNL     1       1.139   0.169  -1.573  0.00  0.00    +0.000 C 
ATOM      6  C   UNL     1       1.229  -0.253  -0.116  0.00  0.00    +0.000 C 
ATOM      7  C   UNL     1       0.101  -1.091   0.467  0.00  0.00    +0.000 C 
ENDBRANCH   1   6
BRANCH   1   8
ATOM      8  C   UNL     1       3.517   0.809   0.332  0.00  0.00    +0.000 C 
ATOM      9  O   UNL     1       3.666   1.762   1.096  0.00  0.00    +0.000 OA
ENDBRANCH   1   8
BRANCH   1  10
ATOM     10  S   UNL     1       3.364  -1.908   0.056  0.00  0.00    +0.000 S 
BRANCH  10  11
ATOM     11  C   UNL     1       4.741  -1.982   1.186  0.00  0.00    +0.000 A 
ATOM     12  C   UNL     1       4.546  -2.086   2.566  0.00  0.00    +0.000 A 
ATOM     13  C   UNL     1       5.643  -2.146   3.429  0.00  0.00    +0.000 A 
ATOM     14  C   UNL     1       6.938  -2.110   2.916  0.00  0.00    +0.000 A 
ATOM     15  C   UNL     1       7.139  -2.023   1.539  0.00  0.00    +0.000 A 
ATOM     16  C   UNL     1       6.043  -1.964   0.676  0.00  0.00    +0.000 A 
ENDBRANCH  10  11
ENDBRANCH   1  10
TORSDOF 4
