REMARK  Name = *****
REMARK  5 active torsions:
REMARK  status: ('A' for Active; 'I' for Inactive)
REMARK    1  A    between atoms: C_1  and  C_2
REMARK    2  A    between atoms: C_2  and  C_3
REMARK    3  A    between atoms: C_2  and  C_9
REMARK    4  A    between atoms: C_2  and  S_12
REMARK    5  A    between atoms: S_12  and  C_13
REMARK                            x       y       z     vdW  Elec       q    Type
REMARK                         _______ _______ _______ _____ _____    ______ ____
ROOT
ATOM      1  C   UNL     1       0.992  -0.228  -0.027  0.00  0.00    +0.000 C 
ATOM      2  C   UNL     1       2.536  -0.075  -0.044  0.00  0.00    +0.000 C 
ENDROOT
BRANCH   2   3
ATOM      3  C   UNL     1       3.210  -0.904  -1.160  0.00  0.00    +0.000 A 
ATOM      4  C   UNL     1       2.509  -1.264  -2.327  0.00  0.00    +0.000 A 
ATOM      5  C   UNL     1       3.122  -1.992  -3.353  0.00  0.00    +0.000 A 
ATOM      6  C   UNL     1       4.456  -2.367  -3.246  0.00  0.00    +0.000 A 
ATOM      7  C   UNL     1       5.180  -2.010  -2.115  0.00  0.00    +0.000 A 
ATOM      8  C   UNL     1       4.567  -1.284  -1.089  0.00  0.00    +0.000 A 
ENDBRANCH   2   3
BRANCH   2   9
ATOM      9  C   UNL     1       2.838   1.450  -0.235  0.00  0.00    +0.000 C 
ATOM     10  O   UNL     1       1.942   2.272  -0.434  0.00  0.00    +0.000 OA
ATOM     11 CL   UNL     1       4.533   1.904  -0.162  0.00  0.00    +0.000 Cl
ENDBRANCH   2   9
BRANCH   2  12
ATOM     12  S   UNL     1       3.136  -0.541   1.692  0.00  0.00    +0.000 S 
BRANCH  12  13
ATOM     13  C   UNL     1       2.331  -2.104   1.988  0.00  0.00    +0.000 A 
ATOM     14  C   UNL     1       2.732  -3.277   1.342  0.00  0.00    +0.000 A 
ATOM     15  C   UNL     1       2.084  -4.486   1.606  0.00  0.00    +0.000 A 
ATOM     16  C   UNL     1       1.039  -4.533   2.527  0.00  0.00    +0.000 A 
ATOM     17  C   UNL     1       0.647  -3.373   3.192  0.00  0.00    +0.000 A 
ATOM     18  C   UNL     1       1.295  -2.164   2.928  0.00  0.00    +0.000 A 
ENDBRANCH  12  13
ENDBRANCH   2  12
TORSDOF 4
