REMARK  Name = *****
REMARK  3 active torsions:
REMARK  status: ('A' for Active; 'I' for Inactive)
REMARK    1  A    between atoms: C_2  and  C_3
REMARK    2  A    between atoms: C_2  and  C_10
REMARK    3  A    between atoms: C_3  and  C_4
REMARK                            x       y       z     vdW  Elec       q    Type
REMARK                         _______ _______ _______ _____ _____    ______ ____
ROOT
ATOM      1  C   UNL     1       0.717  -0.251  -0.296  0.00  0.00    +0.000 C 
ATOM      2  C   UNL     1       2.030  -0.109  -0.048  0.00  0.00    +0.000 C 
ENDROOT
BRANCH   2   3
ATOM      3  C   UNL     1       2.982  -1.054  -0.659  0.00  0.00    +0.000 A 
ATOM      4  C   UNL     1       3.883  -0.624  -1.642  0.00  0.00    +0.000 A 
ATOM      5  C   UNL     1       4.787  -1.522  -2.214  0.00  0.00    +0.000 A 
ATOM      6  C   UNL     1       4.799  -2.855  -1.807  0.00  0.00    +0.000 A 
ATOM      7  C   UNL     1       3.906  -3.293  -0.831  0.00  0.00    +0.000 A 
ATOM      8  C   UNL     1       3.000  -2.397  -0.260  0.00  0.00    +0.000 A 
ENDBRANCH   2   3
BRANCH   2   9
ATOM      9  C   UNL     1       2.597   1.017   0.786  0.00  0.00    +0.000 C 
BRANCH   9  10
ATOM     10  C   UNL     1       3.081   0.564   2.146  0.00  0.00    +0.000 A 
ATOM     11  C   UNL     1       4.419   0.193   2.340  0.00  0.00    +0.000 A 
ATOM     12  C   UNL     1       4.860  -0.242   3.591  0.00  0.00    +0.000 A 
ATOM     13  C   UNL     1       3.967  -0.316   4.659  0.00  0.00    +0.000 A 
ATOM     14  C   UNL     1       2.632   0.042   4.476  0.00  0.00    +0.000 A 
ATOM     15  C   UNL     1       2.190   0.476   3.225  0.00  0.00    +0.000 A 
ENDBRANCH   9  10
ENDBRANCH   2   9
TORSDOF 3
