REMARK  Name = *****
REMARK  1 active torsions:
REMARK  status: ('A' for Active; 'I' for Inactive)
REMARK    1  A    between atoms: C_4  and  C_7
REMARK                            x       y       z     vdW  Elec       q    Type
REMARK                         _______ _______ _______ _____ _____    ______ ____
ROOT
ATOM      1  C   UNL     1       0.659  -2.835   0.106  0.00  0.00    +0.000 C 
ATOM      2  C   UNL     1       0.187  -3.774  -0.739  0.00  0.00    +0.000 C 
ATOM      3  C   UNL     1       0.711  -5.069  -0.340  0.00  0.00    +0.000 A 
ATOM      4  C   UNL     1       0.509  -6.317  -0.900  0.00  0.00    +0.000 A 
ATOM      5  C   UNL     1       1.142  -7.416  -0.311  0.00  0.00    +0.000 A 
ATOM      6  C   UNL     1       1.959  -7.250   0.821  0.00  0.00    +0.000 A 
ATOM      7  C   UNL     1       2.156  -5.985   1.379  0.00  0.00    +0.000 A 
ATOM      8  C   UNL     1       1.524  -4.906   0.785  0.00  0.00    +0.000 A 
ATOM      9  C   UNL     1       1.558  -3.459   1.169  0.00  0.00    +0.000 C 
ENDROOT
BRANCH   1  13
ATOM     10  C   UNL     1      -0.586   1.330   0.073  0.00  0.00    +0.000 C 
ATOM     11  C   UNL     1      -0.433   0.633  -1.271  0.00  0.00    +0.000 C 
ATOM     12  C   UNL     1      -0.454  -0.890  -1.108  0.00  0.00    +0.000 C 
ATOM     13  C   UNL     1       0.375  -1.404   0.056  0.00  0.00    +0.000 C 
ATOM     14  C   UNL     1       0.829  -0.553   0.998  0.00  0.00    +0.000 C 
ATOM     15  C   UNL     1       0.536   0.920   1.022  0.00  0.00    +0.000 C 
ENDBRANCH   1  13
TORSDOF 1
