REMARK  Name = *****
REMARK  5 active torsions:
REMARK  status: ('A' for Active; 'I' for Inactive)
REMARK    1  A    between atoms: C_1  and  C_2
REMARK    2  A    between atoms: C_4  and  C_9
REMARK    3  A    between atoms: C_5  and  C_8
REMARK    4  A    between atoms: C_9  and  C_10
REMARK    5  A    between atoms: C_10  and  C_11
REMARK                            x       y       z     vdW  Elec       q    Type
REMARK                         _______ _______ _______ _____ _____    ______ ____
ROOT
ATOM      1  C   UNL     1       2.962  -0.242   0.020  0.00  0.00    +0.000 C 
ATOM      2  C   UNL     1       1.466  -0.157  -0.036  0.00  0.00    +0.000 A 
ATOM      3  C   UNL     1       0.824   1.091  -0.025  0.00  0.00    +0.000 A 
ATOM      4  C   UNL     1      -0.578   1.200  -0.044  0.00  0.00    +0.000 A 
ATOM      5  C   UNL     1      -1.346   0.012  -0.065  0.00  0.00    +0.000 A 
ATOM      6  C   UNL     1      -0.698  -1.234  -0.057  0.00  0.00    +0.000 A 
ATOM      7  C   UNL     1       0.693  -1.317  -0.037  0.00  0.00    +0.000 A 
ATOM      8  C   UNL     1      -2.851   0.043  -0.085  0.00  0.00    +0.000 C 
ENDROOT
BRANCH   4   9
ATOM      9  C   UNL     1      -1.281   2.549  -0.044  0.00  0.00    +0.000 C 
BRANCH   9  10
ATOM     10  C   UNL     1      -0.401   3.805   0.006  0.00  0.00    +0.000 C 
BRANCH  10  11
ATOM     11  C   UNL     1      -1.231   5.067   0.006  0.00  0.00    +0.000 A 
ATOM     12  C   UNL     1      -1.671   5.628   1.212  0.00  0.00    +0.000 A 
ATOM     13  C   UNL     1      -2.454   6.783   1.210  0.00  0.00    +0.000 A 
ATOM     14  C   UNL     1      -2.808   7.385   0.004  0.00  0.00    +0.000 A 
ATOM     15  C   UNL     1      -2.380   6.832  -1.202  0.00  0.00    +0.000 A 
ATOM     16  C   UNL     1      -1.597   5.676  -1.202  0.00  0.00    +0.000 A 
ENDBRANCH  10  11
ENDBRANCH   9  10
ENDBRANCH   4   9
TORSDOF 3
