REMARK  Name = *****
REMARK  4 active torsions:
REMARK  status: ('A' for Active; 'I' for Inactive)
REMARK    1  A    between atoms: C_4  and  C_7
REMARK    2  A    between atoms: C_7  and  C_8
REMARK    3  A    between atoms: C_8  and  C_12
REMARK    4  A    between atoms: C_12  and  C_13
REMARK                            x       y       z     vdW  Elec       q    Type
REMARK                         _______ _______ _______ _____ _____    ______ ____
ROOT
ATOM      1  C   UNL     1      -3.613  -0.700  -0.262  0.00  0.00    +0.000 C 
ATOM      2  C   UNL     1      -3.838  -2.117   0.227  0.00  0.00    +0.000 C 
ATOM      3  O   UNL     1      -3.912  -1.789  -1.161  0.00  0.00    +0.000 OA
ATOM      4 CL   UNL     1      -5.283  -2.592   1.071  0.00  0.00    +0.000 Cl
ENDROOT
BRANCH   1   5
ATOM      5  C   UNL     1      -2.182  -0.223  -0.347  0.00  0.00    +0.000 C 
BRANCH   5   9
ATOM      6  C   UNL     1      -0.986   2.069   3.115  0.00  0.00    +0.000 A 
ATOM      7  C   UNL     1      -1.350   0.732   3.260  0.00  0.00    +0.000 A 
ATOM      8  C   UNL     1      -1.734  -0.015   2.145  0.00  0.00    +0.000 A 
ATOM      9  C   UNL     1      -1.768   0.571   0.871  0.00  0.00    +0.000 A 
ATOM     10  C   UNL     1      -1.387   1.914   0.738  0.00  0.00    +0.000 A 
ATOM     11  C   UNL     1      -1.003   2.659   1.853  0.00  0.00    +0.000 A 
ENDBRANCH   5   9
ENDBRANCH   1   5
BRANCH   1  12
ATOM     12  C   UNL     1      -4.725   0.325  -0.174  0.00  0.00    +0.000 C 
BRANCH  12  13
ATOM     13  C   UNL     1      -4.643   1.389  -1.246  0.00  0.00    +0.000 A 
ATOM     14  C   UNL     1      -4.792   1.057  -2.600  0.00  0.00    +0.000 A 
ATOM     15  C   UNL     1      -4.721   2.044  -3.585  0.00  0.00    +0.000 A 
ATOM     16  C   UNL     1      -4.509   3.374  -3.226  0.00  0.00    +0.000 A 
ATOM     17  C   UNL     1      -4.372   3.719  -1.883  0.00  0.00    +0.000 A 
ATOM     18  C   UNL     1      -4.443   2.733  -0.898  0.00  0.00    +0.000 A 
ENDBRANCH  12  13
ENDBRANCH   1  12
TORSDOF 4
