REMARK  Name = *****
REMARK  2 active torsions:
REMARK  status: ('A' for Active; 'I' for Inactive)
REMARK    1  A    between atoms: N_7  and  C_10
REMARK    2  A    between atoms: C_10  and  C_11
REMARK                            x       y       z     vdW  Elec       q    Type
REMARK                         _______ _______ _______ _____ _____    ______ ____
ROOT
ATOM      1  C   UNL     1       2.163  -2.900  -1.365  0.00  0.00    +0.000 A 
ATOM      2  C   UNL     1       3.059  -2.465  -2.344  0.00  0.00    +0.000 A 
ATOM      3  C   UNL     1       3.080  -3.033  -3.617  0.00  0.00    +0.000 A 
ATOM      4  C   UNL     1       2.202  -4.061  -3.931  0.00  0.00    +0.000 A 
ATOM      5  C   UNL     1       1.310  -4.518  -2.972  0.00  0.00    +0.000 A 
ATOM      6  C   UNL     1       1.297  -3.942  -1.702  0.00  0.00    +0.000 A 
ATOM      7  F   UNL     1       0.435  -4.391  -0.780  0.00  0.00    +0.000 F 
ATOM      8  F   UNL     1       0.456  -5.508  -3.259  0.00  0.00    +0.000 F 
ATOM      9  F   UNL     1       2.215  -4.607  -5.153  0.00  0.00    +0.000 F 
ATOM     10  F   UNL     1       3.947  -2.580  -4.530  0.00  0.00    +0.000 F 
ATOM     11  F   UNL     1       3.914  -1.478  -2.044  0.00  0.00    +0.000 F 
ENDROOT
BRANCH   1  12
ATOM     12  C   UNL     1       2.151  -2.290   0.010  0.00  0.00    +0.000 C 
BRANCH  12  19
ATOM     13  C   UNL     1      -2.095  -0.846   0.059  0.00  0.00    +0.000 A 
ATOM     14  C   UNL     1      -2.262   0.533  -0.002  0.00  0.00    +0.000 A 
ATOM     15  C   UNL     1      -1.159   1.388  -0.059  0.00  0.00    +0.000 A 
ATOM     16  C   UNL     1       0.122   0.814  -0.057  0.00  0.00    +0.000 A 
ATOM     17  C   UNL     1       0.308  -0.567  -0.006  0.00  0.00    +0.000 A 
ATOM     18  C   UNL     1      -0.815  -1.415   0.061  0.00  0.00    +0.000 A 
ATOM     19  N   UNL     1       1.655  -0.910  -0.032  0.00  0.00    +0.000 N 
ATOM     20  C   UNL     1       2.488   0.116  -0.053  0.00  0.00    +0.000 C 
ATOM     21  S   UNL     1       1.653   1.603  -0.105  0.00  0.00    +0.000 S 
ENDBRANCH  12  19
ENDBRANCH   1  12
TORSDOF 2
