REMARK  Name = *****
REMARK  5 active torsions:
REMARK  status: ('A' for Active; 'I' for Inactive)
REMARK    1  A    between atoms: C_1  and  C_2
REMARK    2  A    between atoms: C_5  and  C_8
REMARK    3  A    between atoms: C_8  and  O_10
REMARK    4  A    between atoms: O_10  and  C_11
REMARK    5  A    between atoms: C_12  and  C_18
REMARK                            x       y       z     vdW  Elec       q    Type
REMARK                         _______ _______ _______ _____ _____    ______ ____
ROOT
ATOM      1  C   UNL     1      -3.105  -0.035   0.872  0.00  0.00    +0.000 C 
ATOM      2  O   UNL     1      -3.721  -1.032   0.526  0.00  0.00    +0.000 OA
ENDROOT
BRANCH   1   7
ATOM      3  C   UNL     1       2.536   0.603  -0.341  0.00  0.00    +0.000 C 
ATOM      4  C   UNL     1       1.071   0.464  -0.047  0.00  0.00    +0.000 A 
ATOM      5  C   UNL     1       0.390  -0.712  -0.381  0.00  0.00    +0.000 A 
ATOM      6  C   UNL     1      -0.967  -0.854  -0.078  0.00  0.00    +0.000 A 
ATOM      7  C   UNL     1      -1.660   0.174   0.575  0.00  0.00    +0.000 A 
ATOM      8  C   UNL     1      -0.976   1.346   0.923  0.00  0.00    +0.000 A 
ATOM      9  C   UNL     1       0.382   1.486   0.617  0.00  0.00    +0.000 A 
ENDBRANCH   1   7
BRANCH   1  10
ATOM     10  O   UNL     1      -3.596   1.048   1.577  0.00  0.00    +0.000 OA
BRANCH  10  11
ATOM     11  C   UNL     1      -4.955   0.944   1.897  0.00  0.00    +0.000 A 
ATOM     12  C   UNL     1      -5.884   1.721   1.191  0.00  0.00    +0.000 A 
ATOM     13  C   UNL     1      -7.234   1.634   1.557  0.00  0.00    +0.000 A 
ATOM     14  C   UNL     1      -7.626   0.807   2.614  0.00  0.00    +0.000 A 
ATOM     15  C   UNL     1      -6.685   0.060   3.322  0.00  0.00    +0.000 A 
ATOM     16  C   UNL     1      -5.339   0.132   2.967  0.00  0.00    +0.000 A 
ATOM     17 CL   UNL     1      -9.288   0.718   3.053  0.00  0.00    +0.000 Cl
ATOM     18  C   UNL     1      -5.457   2.603   0.056  0.00  0.00    +0.000 C 
ENDBRANCH  10  11
ENDBRANCH   1  10
TORSDOF 3
