REMARK  Name = *****
REMARK  3 active torsions:
REMARK  status: ('A' for Active; 'I' for Inactive)
REMARK    1  A    between atoms: C_6  and  C_8
REMARK    2  A    between atoms: C_8  and  C_9
REMARK    3  A    between atoms: C_10  and  C_11
REMARK                            x       y       z     vdW  Elec       q    Type
REMARK                         _______ _______ _______ _____ _____    ______ ____
ROOT
ATOM      1  C   UNL     1       1.073  -2.439   0.082  0.00  0.00    +0.000 C 
ENDROOT
BRANCH   1   7
ATOM      2  C   UNL     1       0.179   1.333  -0.455  0.00  0.00    +0.000 C 
ATOM      3  C   UNL     1      -0.097   1.273  -1.953  0.00  0.00    +0.000 C 
ATOM      4  C   UNL     1      -0.853   0.009  -2.332  0.00  0.00    +0.000 C 
ATOM      5  C   UNL     1      -0.153  -1.227  -1.807  0.00  0.00    +0.000 C 
ATOM      6  O   UNL     1      -0.063  -2.236  -2.507  0.00  0.00    +0.000 OA
ATOM      7  C   UNL     1       0.260  -1.200  -0.336  0.00  0.00    +0.000 C 
ATOM      8  C   UNL     1       0.983   0.114  -0.008  0.00  0.00    +0.000 C 
ENDBRANCH   1   7
BRANCH   1   9
ATOM      9  C   UNL     1       2.441  -2.531  -0.542  0.00  0.00    +0.000 C 
ATOM     10  C   UNL     1       3.588  -2.426   0.149  0.00  0.00    +0.000 C 
BRANCH  10  11
ATOM     11  C   UNL     1       4.924  -2.504  -0.458  0.00  0.00    +0.000 A 
ATOM     12  C   UNL     1       5.204  -1.963  -1.720  0.00  0.00    +0.000 A 
ATOM     13  C   UNL     1       6.497  -2.022  -2.248  0.00  0.00    +0.000 A 
ATOM     14  C   UNL     1       7.524  -2.612  -1.516  0.00  0.00    +0.000 A 
ATOM     15  C   UNL     1       7.262  -3.140  -0.254  0.00  0.00    +0.000 A 
ATOM     16  C   UNL     1       5.969  -3.081   0.275  0.00  0.00    +0.000 A 
ENDBRANCH  10  11
ENDBRANCH   1   9
TORSDOF 3
