REMARK  Name = *****
REMARK  4 active torsions:
REMARK  status: ('A' for Active; 'I' for Inactive)
REMARK    1  A    between atoms: C_5  and  C_7
REMARK    2  A    between atoms: C_7  and  O_8
REMARK    3  A    between atoms: O_8  and  C_9
REMARK    4  A    between atoms: C_9  and  C_11
REMARK                            x       y       z     vdW  Elec       q    Type
REMARK                         _______ _______ _______ _____ _____    ______ ____
ROOT
ATOM      1  O   UNL     1      -3.333  -1.345  -0.954  0.00  0.00    +0.000 OA
ENDROOT
BRANCH   1   2
ATOM      2  C   UNL     1      -3.639  -0.209  -1.628  0.00  0.00    +0.000 C 
ATOM      3  O   UNL     1      -2.846   0.509  -2.216  0.00  0.00    +0.000 OA
BRANCH   2   4
ATOM      4  C   UNL     1      -5.099   0.069  -1.550  0.00  0.00    +0.000 A 
ATOM      5  C   UNL     1      -5.995  -0.789  -0.897  0.00  0.00    +0.000 A 
ATOM      6  C   UNL     1      -7.357  -0.479  -0.853  0.00  0.00    +0.000 A 
ATOM      7  C   UNL     1      -7.830   0.684  -1.459  0.00  0.00    +0.000 A 
ATOM      8  C   UNL     1      -6.945   1.541  -2.112  0.00  0.00    +0.000 A 
ATOM      9  C   UNL     1      -5.583   1.235  -2.158  0.00  0.00    +0.000 A 
ENDBRANCH   2   4
ENDBRANCH   1   2
BRANCH   1  10
ATOM     10  C   UNL     1      -1.940  -1.710  -0.948  0.00  0.00    +0.000 C 
BRANCH  10  15
ATOM     11  C   UNL     1       1.136  -0.703   1.179  0.00  0.00    +0.000 C 
ATOM     12  C   UNL     1       0.699  -1.445   2.444  0.00  0.00    +0.000 C 
ATOM     13  C   UNL     1      -0.790  -1.586   2.553  0.00  0.00    +0.000 C 
ATOM     14  C   UNL     1      -1.629  -1.351   1.532  0.00  0.00    +0.000 C 
ATOM     15  C   UNL     1      -1.166  -0.950   0.146  0.00  0.00    +0.000 C 
ATOM     16  C   UNL     1       0.346  -1.176  -0.039  0.00  0.00    +0.000 C 
ENDBRANCH  10  15
ENDBRANCH   1  10
TORSDOF 4
