REMARK  Name = *****
REMARK  6 active torsions:
REMARK  status: ('A' for Active; 'I' for Inactive)
REMARK    1  A    between atoms: C_1  and  C_2
REMARK    2  A    between atoms: C_2  and  O_3
REMARK    3  A    between atoms: O_3  and  P_4
REMARK    4  A    between atoms: P_4  and  C_6
REMARK    5  A    between atoms: P_4  and  C_12
REMARK    6  A    between atoms: C_12  and  C_13
REMARK                            x       y       z     vdW  Elec       q    Type
REMARK                         _______ _______ _______ _____ _____    ______ ____
ROOT
ATOM      1  P   UNL     1       4.633   0.481   1.248  0.00  0.00    +0.000 P 
ATOM      2  O   UNL     1       4.639   1.833   2.000  0.00  0.00    +0.000 OA
ENDROOT
BRANCH   1   3
ATOM      3  C   UNL     1       4.553  -0.934   2.483  0.00  0.00    +0.000 A 
ATOM      4  C   UNL     1       4.362  -2.248   2.032  0.00  0.00    +0.000 A 
ATOM      5  C   UNL     1       4.318  -3.296   2.950  0.00  0.00    +0.000 A 
ATOM      6  C   UNL     1       4.451  -3.036   4.315  0.00  0.00    +0.000 A 
ATOM      7  C   UNL     1       4.621  -1.728   4.768  0.00  0.00    +0.000 A 
ATOM      8  C   UNL     1       4.668  -0.675   3.856  0.00  0.00    +0.000 A 
ENDBRANCH   1   3
BRANCH   1   9
ATOM      9  C   UNL     1       6.463   0.481   1.248  0.00  0.00    +0.000 C 
ATOM     10 CL   UNL     1       7.023   1.819   0.152  0.00  0.00    +0.000 Cl
BRANCH   9  11
ATOM     11  C   UNL     1       7.134  -0.795   0.757  0.00  0.00    +0.000 A 
ATOM     12  C   UNL     1       6.889  -1.305  -0.529  0.00  0.00    +0.000 A 
ATOM     13  C   UNL     1       7.486  -2.497  -0.945  0.00  0.00    +0.000 A 
ATOM     14  C   UNL     1       8.329  -3.194  -0.082  0.00  0.00    +0.000 A 
ATOM     15  C   UNL     1       8.580  -2.700   1.196  0.00  0.00    +0.000 A 
ATOM     16  C   UNL     1       7.988  -1.508   1.614  0.00  0.00    +0.000 A 
ENDBRANCH   9  11
ENDBRANCH   1   9
BRANCH   1  17
ATOM     17  O   UNL     1       2.903   0.481   1.248  0.00  0.00    +0.000 OA
BRANCH  17  19
ATOM     18  C   UNL     1       0.834   1.099   0.236  0.00  0.00    +0.000 C 
ATOM     19  C   UNL     1       2.319   1.383   0.318  0.00  0.00    +0.000 C 
ENDBRANCH  17  19
ENDBRANCH   1  17
TORSDOF 5
