REMARK  Name = *****
REMARK  4 active torsions:
REMARK  status: ('A' for Active; 'I' for Inactive)
REMARK    1  A    between atoms: C_1  and  C_2
REMARK    2  A    between atoms: C_4  and  S_8
REMARK    3  A    between atoms: S_8  and  C_9
REMARK    4  A    between atoms: C_9  and  C_10
REMARK                            x       y       z     vdW  Elec       q    Type
REMARK                         _______ _______ _______ _____ _____    ______ ____
ROOT
ATOM      1  C   UNL     1       2.454   0.342  -0.009  0.00  0.00    +0.000 C 
ATOM      2  C   UNL     1       0.968   0.125  -0.001  0.00  0.00    +0.000 C 
ATOM      3  C   UNL     1       0.099   1.128  -0.232  0.00  0.00    +0.000 C 
ATOM      4  C   UNL     1      -1.400   0.978  -0.201  0.00  0.00    +0.000 C 
ATOM      5  C   UNL     1      -1.835  -0.356   0.427  0.00  0.00    +0.000 C 
ATOM      6  C   UNL     1      -0.969  -1.525  -0.038  0.00  0.00    +0.000 C 
ATOM      7  C   UNL     1       0.509  -1.285   0.276  0.00  0.00    +0.000 C 
ENDROOT
BRANCH   4   8
ATOM      8  S   UNL     1      -1.995   1.165  -1.926  0.00  0.00    +0.000 S 
BRANCH   8   9
ATOM      9  C   UNL     1      -3.736   1.583  -1.593  0.00  0.00    +0.000 C 
BRANCH   9  10
ATOM     10  C   UNL     1      -4.469   1.847  -2.873  0.00  0.00    +0.000 A 
ATOM     11  C   UNL     1      -4.457   2.992  -3.647  0.00  0.00    +0.000 A 
ATOM     12  C   UNL     1      -5.290   2.879  -4.797  0.00  0.00    +0.000 A 
ATOM     13  C   UNL     1      -5.914   1.654  -4.863  0.00  0.00    +0.000 A 
ATOM     14  S   UNL     1      -5.498   0.649  -3.543  0.00  0.00    +0.000 S 
ENDBRANCH   9  10
ENDBRANCH   8   9
ENDBRANCH   4   8
TORSDOF 3
