REMARK  Name = *****
REMARK  2 active torsions:
REMARK  status: ('A' for Active; 'I' for Inactive)
REMARK    1  A    between atoms: C_1  and  C_2
REMARK    2  A    between atoms: C_5  and  C_7
REMARK                            x       y       z     vdW  Elec       q    Type
REMARK                         _______ _______ _______ _____ _____    ______ ____
ROOT
ATOM      1  C   UNL     1      -2.216  -1.841  -0.018  0.00  0.00    +0.000 A 
ATOM      2  C   UNL     1      -2.323  -2.803   0.998  0.00  0.00    +0.000 A 
ATOM      3  C   UNL     1      -3.379  -3.731   1.023  0.00  0.00    +0.000 A 
ATOM      4  C   UNL     1      -3.485  -4.694   2.040  0.00  0.00    +0.000 A 
ATOM      5  C   UNL     1      -4.538  -5.610   2.050  0.00  0.00    +0.000 A 
ATOM      6  C   UNL     1      -5.498  -5.576   1.043  0.00  0.00    +0.000 A 
ATOM      7  C   UNL     1      -5.408  -4.625   0.025  0.00  0.00    +0.000 A 
ATOM      8  C   UNL     1      -4.355  -3.696   0.002  0.00  0.00    +0.000 A 
ATOM      9  C   UNL     1      -4.249  -2.734  -1.013  0.00  0.00    +0.000 A 
ATOM     10  C   UNL     1      -3.192  -1.818  -1.022  0.00  0.00    +0.000 A 
ENDROOT
BRANCH   1  15
ATOM     11  C   UNL     1       1.898   0.657   1.064  0.00  0.00    +0.000 C 
ATOM     12  C   UNL     1       0.660   0.239   0.377  0.00  0.00    +0.000 A 
ATOM     13  C   UNL     1       0.066   0.756  -0.749  0.00  0.00    +0.000 A 
ATOM     14  O   UNL     1      -1.060   0.036  -1.005  0.00  0.00    +0.000 OA
ATOM     15  C   UNL     1      -1.097  -0.901  -0.004  0.00  0.00    +0.000 A 
ATOM     16  N   UNL     1      -0.090  -0.815   0.846  0.00  0.00    +0.000 NA
ENDBRANCH   1  15
TORSDOF 1
