REMARK  Name = *****
REMARK  2 active torsions:
REMARK  status: ('A' for Active; 'I' for Inactive)
REMARK    1  A    between atoms: N_4  and  C_5
REMARK    2  A    between atoms: C_5  and  C_6
REMARK                            x       y       z     vdW  Elec       q    Type
REMARK                         _______ _______ _______ _____ _____    ______ ____
ROOT
ATOM      1  C   UNL     1      -2.308  -3.896  -1.285  0.00  0.00    +0.000 A 
ATOM      2  C   UNL     1      -2.631  -4.236  -2.611  0.00  0.00    +0.000 A 
ATOM      3  C   UNL     1      -2.673  -5.571  -3.024  0.00  0.00    +0.000 A 
ATOM      4  C   UNL     1      -2.390  -6.591  -2.121  0.00  0.00    +0.000 A 
ATOM      5  C   UNL     1      -2.061  -6.276  -0.804  0.00  0.00    +0.000 A 
ATOM      6  C   UNL     1      -2.018  -4.940  -0.389  0.00  0.00    +0.000 A 
ATOM      7 CL   UNL     1      -1.594  -4.631   1.260  0.00  0.00    +0.000 Cl
ENDROOT
BRANCH   1   8
ATOM      8  C   UNL     1      -2.254  -2.449  -0.835  0.00  0.00    +0.000 C 
BRANCH   8  12
ATOM      9  C   UNL     1      -3.463   1.774  -0.882  0.00  0.00    +0.000 C 
ATOM     10  S   UNL     1      -2.287   0.612  -0.126  0.00  0.00    +0.000 S 
ATOM     11  C   UNL     1      -2.684  -0.265  -1.535  0.00  0.00    +0.000 C 
ATOM     12  N   UNL     1      -2.675  -1.494  -1.868  0.00  0.00    +0.000 NA
ATOM     13  S   UNL     1      -3.094   1.076  -2.516  0.00  0.00    +0.000 S 
ENDBRANCH   8  12
ENDBRANCH   1   8
TORSDOF 2
