REMARK  Name = *****
REMARK  1 active torsions:
REMARK  status: ('A' for Active; 'I' for Inactive)
REMARK    1  A    between atoms: C_8  and  C_10
REMARK                            x       y       z     vdW  Elec       q    Type
REMARK                         _______ _______ _______ _____ _____    ______ ____
ROOT
ATOM      1  C   UNL     1      -2.611  -0.370  -0.050  0.00  0.00    +0.000 A 
ATOM      2  C   UNL     1      -2.307   0.984  -0.004  0.00  0.00    +0.000 A 
ATOM      3  C   UNL     1      -0.978   1.412   0.040  0.00  0.00    +0.000 A 
ATOM      4  C   UNL     1       0.049   0.448   0.037  0.00  0.00    +0.000 A 
ATOM      5  C   UNL     1      -0.232  -0.918  -0.014  0.00  0.00    +0.000 A 
ATOM      6  C   UNL     1      -1.587  -1.322  -0.057  0.00  0.00    +0.000 A 
ATOM      7  C   UNL     1       0.976  -1.694  -0.013  0.00  0.00    +0.000 A 
ATOM      8  C   UNL     1       2.127  -0.933   0.045  0.00  0.00    +0.000 A 
ATOM      9  S   UNL     1       1.743   0.736   0.093  0.00  0.00    +0.000 S 
ENDROOT
BRANCH   8  10
ATOM     10  C   UNL     1       3.498  -1.396   0.063  0.00  0.00    +0.000 A 
ATOM     11  C   UNL     1       4.609  -0.747   0.575  0.00  0.00    +0.000 A 
ATOM     12  C   UNL     1       5.813  -1.496   0.419  0.00  0.00    +0.000 A 
ATOM     13  C   UNL     1       5.591  -2.697  -0.213  0.00  0.00    +0.000 A 
ATOM     14  S   UNL     1       3.944  -2.918  -0.605  0.00  0.00    +0.000 S 
ENDBRANCH   8  10
TORSDOF 1
