REMARK  Name = *****
REMARK  5 active torsions:
REMARK  status: ('A' for Active; 'I' for Inactive)
REMARK    1  A    between atoms: C_4  and  C_7
REMARK    2  A    between atoms: C_7  and  C_8
REMARK    3  A    between atoms: C_7  and  S_11
REMARK    4  A    between atoms: C_8  and  C_9
REMARK    5  A    between atoms: S_11  and  C_12
REMARK                            x       y       z     vdW  Elec       q    Type
REMARK                         _______ _______ _______ _____ _____    ______ ____
ROOT
ATOM      1  C   UNL     1      -2.901   0.265  -0.320  0.00  0.00    +0.000 C 
ENDROOT
BRANCH   1   5
ATOM      2  C   UNL     1       1.266  -0.395   0.703  0.00  0.00    +0.000 A 
ATOM      3  C   UNL     1       0.523   0.581   1.363  0.00  0.00    +0.000 A 
ATOM      4  C   UNL     1      -0.821   0.779   1.039  0.00  0.00    +0.000 A 
ATOM      5  C   UNL     1      -1.441   0.004   0.046  0.00  0.00    +0.000 A 
ATOM      6  C   UNL     1      -0.674  -0.973  -0.614  0.00  0.00    +0.000 A 
ATOM      7  C   UNL     1       0.668  -1.173  -0.284  0.00  0.00    +0.000 A 
ENDBRANCH   1   5
BRANCH   1   8
ATOM      8  C   UNL     1      -3.028   0.842  -1.741  0.00  0.00    +0.000 C 
BRANCH   8   9
ATOM      9  C   UNL     1      -2.529   2.225  -1.782  0.00  0.00    +0.000 C 
ATOM     10  N   UNL     1      -2.161   3.326  -1.803  0.00  0.00    +0.000 NA
ENDBRANCH   8   9
ENDBRANCH   1   8
BRANCH   1  11
ATOM     11  S   UNL     1      -3.884  -1.299  -0.113  0.00  0.00    +0.000 S 
BRANCH  11  12
ATOM     12  C   UNL     1      -5.547  -0.757  -0.461  0.00  0.00    +0.000 A 
ATOM     13  C   UNL     1      -6.316  -1.517  -1.350  0.00  0.00    +0.000 A 
ATOM     14  C   UNL     1      -7.621  -1.135  -1.665  0.00  0.00    +0.000 A 
ATOM     15  C   UNL     1      -8.170   0.008  -1.088  0.00  0.00    +0.000 A 
ATOM     16  C   UNL     1      -7.419   0.759  -0.186  0.00  0.00    +0.000 A 
ATOM     17  C   UNL     1      -6.114   0.374   0.134  0.00  0.00    +0.000 A 
ENDBRANCH  11  12
ENDBRANCH   1  11
TORSDOF 5
