REMARK  Name = *****
REMARK  5 active torsions:
REMARK  status: ('A' for Active; 'I' for Inactive)
REMARK    1  A    between atoms: C_1  and  C_2
REMARK    2  A    between atoms: C_2  and  O_4
REMARK    3  A    between atoms: O_4  and  C_5
REMARK    4  A    between atoms: C_8  and  C_11
REMARK    5  A    between atoms: C_12  and  C_13
REMARK                            x       y       z     vdW  Elec       q    Type
REMARK                         _______ _______ _______ _____ _____    ______ ____
ROOT
ATOM      1  C   UNL     1       4.532  -1.117  -0.455  0.00  0.00    +0.000 A 
ATOM      2  C   UNL     1       5.200  -0.778   0.719  0.00  0.00    +0.000 A 
ATOM      3  C   UNL     1       6.597  -0.765   0.733  0.00  0.00    +0.000 A 
ATOM      4  C   UNL     1       7.326  -1.118  -0.413  0.00  0.00    +0.000 A 
ATOM      5  C   UNL     1       6.631  -1.461  -1.582  0.00  0.00    +0.000 A 
ATOM      6  C   UNL     1       5.234  -1.475  -1.602  0.00  0.00    +0.000 A 
ENDROOT
BRANCH   4   7
ATOM      7  C   UNL     1       8.795  -1.087  -0.445  0.00  0.00    +0.000 C 
ATOM      8  C   UNL     1       9.570  -1.497   0.574  0.00  0.00    +0.000 C 
BRANCH   8   9
ATOM      9  C   UNL     1      11.039  -1.486   0.543  0.00  0.00    +0.000 A 
ATOM     10  C   UNL     1      11.770  -0.468  -0.084  0.00  0.00    +0.000 A 
ATOM     11  C   UNL     1      13.164  -0.490  -0.057  0.00  0.00    +0.000 A 
ATOM     12  C   UNL     1      13.856  -1.501   0.592  0.00  0.00    +0.000 A 
ATOM     13  C   UNL     1      13.131  -2.499   1.226  0.00  0.00    +0.000 A 
ATOM     14  C   UNL     1      11.737  -2.499   1.213  0.00  0.00    +0.000 A 
ATOM     15  F   UNL     1      13.782  -3.480   1.864  0.00  0.00    +0.000 F 
ATOM     16  F   UNL     1      13.846   0.489  -0.665  0.00  0.00    +0.000 F 
ENDBRANCH   8   9
ENDBRANCH   4   7
BRANCH   1  17
ATOM     17  O   UNL     1       3.136  -1.198  -0.498  0.00  0.00    +0.000 OA
BRANCH  17  19
ATOM     18  C   UNL     1       0.985  -0.266  -0.348  0.00  0.00    +0.000 C 
ATOM     19  C   UNL     1       2.460  -0.001  -0.283  0.00  0.00    +0.000 C 
ATOM     20  O   UNL     1       2.953   1.100  -0.083  0.00  0.00    +0.000 OA
ENDBRANCH  17  19
ENDBRANCH   1  17
TORSDOF 4
