REMARK  Name = *****
REMARK  4 active torsions:
REMARK  status: ('A' for Active; 'I' for Inactive)
REMARK    1  A    between atoms: C_4  and  C_7
REMARK    2  A    between atoms: C_7  and  N_8
REMARK    3  A    between atoms: N_8  and  C_9
REMARK    4  A    between atoms: C_9  and  C_10
REMARK                            x       y       z     vdW  Elec       q    Type
REMARK                         _______ _______ _______ _____ _____    ______ ____
ROOT
ATOM      1  N   UNL     1      -3.794  -0.723   0.274  0.00  0.00    +0.000 NA
ENDROOT
BRANCH   1   2
ATOM      2  C   UNL     1      -2.982   0.495   0.137  0.00  0.00    +0.000 C 
BRANCH   2   6
ATOM      3  C   UNL     1       1.244  -0.301  -0.230  0.00  0.00    +0.000 A 
ATOM      4  C   UNL     1       0.604   0.509  -1.167  0.00  0.00    +0.000 A 
ATOM      5  C   UNL     1      -0.764   0.764  -1.055  0.00  0.00    +0.000 A 
ATOM      6  C   UNL     1      -1.507   0.207  -0.005  0.00  0.00    +0.000 A 
ATOM      7  C   UNL     1      -0.851  -0.602   0.933  0.00  0.00    +0.000 A 
ATOM      8  C   UNL     1       0.517  -0.856   0.821  0.00  0.00    +0.000 A 
ENDBRANCH   2   6
ENDBRANCH   1   2
BRANCH   1   9
ATOM      9  C   UNL     1      -4.126  -1.261  -0.851  0.00  0.00    +0.000 C 
BRANCH   9  10
ATOM     10  C   UNL     1      -4.936  -2.492  -0.919  0.00  0.00    +0.000 A 
ATOM     11  C   UNL     1      -5.315  -3.166   0.245  0.00  0.00    +0.000 A 
ATOM     12  C   UNL     1      -6.081  -4.329   0.156  0.00  0.00    +0.000 A 
ATOM     13  C   UNL     1      -6.467  -4.816  -1.094  0.00  0.00    +0.000 A 
ATOM     14  C   UNL     1      -6.089  -4.142  -2.256  0.00  0.00    +0.000 A 
ATOM     15  C   UNL     1      -5.321  -2.979  -2.172  0.00  0.00    +0.000 A 
ENDBRANCH   9  10
ENDBRANCH   1   9
TORSDOF 4
