REMARK  Name = *****
REMARK  3 active torsions:
REMARK  status: ('A' for Active; 'I' for Inactive)
REMARK    1  A    between atoms: N_5  and  S_8
REMARK    2  A    between atoms: S_8  and  N_11
REMARK    3  A    between atoms: N_11  and  C_12
REMARK                            x       y       z     vdW  Elec       q    Type
REMARK                         _______ _______ _______ _____ _____    ______ ____
ROOT
ATOM      1  S   UNL     1       2.695  -1.844   0.647  0.00  0.00    +0.000 S 
ATOM      2  O   UNL     1       3.090  -1.719   2.029  0.00  0.00    +0.000 OA
ATOM      3  O   UNL     1       2.421  -3.122   0.033  0.00  0.00    +0.000 OA
ENDROOT
BRANCH   1   8
ATOM      4  C   UNL     1      -0.389   1.231  -0.719  0.00  0.00    +0.000 C 
ATOM      5  C   UNL     1      -1.448   0.131  -0.614  0.00  0.00    +0.000 C 
ATOM      6  C   UNL     1      -0.903  -1.282  -0.410  0.00  0.00    +0.000 C 
ATOM      7  C   UNL     1       0.058  -1.424   0.768  0.00  0.00    +0.000 C 
ATOM      8  N   UNL     1       1.362  -0.828   0.383  0.00  0.00    +0.000 NA
ATOM      9  C   UNL     1       1.550   0.572   0.849  0.00  0.00    +0.000 C 
ATOM     10  C   UNL     1       0.341   1.475   0.601  0.00  0.00    +0.000 C 
ENDBRANCH   1   8
BRANCH   1  11
ATOM     11  N   UNL     1       3.813  -1.062  -0.354  0.00  0.00    +0.000 N 
ATOM     12  H   UNL     1       3.556  -0.360  -0.996  0.00  0.00    +0.000 HD
BRANCH  11  13
ATOM     13  C   UNL     1       5.163  -1.506  -0.190  0.00  0.00    +0.000 A 
ATOM     14  C   UNL     1       5.668  -2.534  -0.986  0.00  0.00    +0.000 A 
ATOM     15  C   UNL     1       6.975  -2.991  -0.784  0.00  0.00    +0.000 A 
ATOM     16  C   UNL     1       7.768  -2.428   0.225  0.00  0.00    +0.000 A 
ATOM     17  C   UNL     1       7.246  -1.414   1.032  0.00  0.00    +0.000 A 
ATOM     18  C   UNL     1       5.942  -0.958   0.829  0.00  0.00    +0.000 A 
ATOM     19 CL   UNL     1       9.389  -2.942   0.527  0.00  0.00    +0.000 Cl
ATOM     20 CL   UNL     1       7.550  -4.256  -1.813  0.00  0.00    +0.000 Cl
ENDBRANCH  11  13
ENDBRANCH   1  11
TORSDOF 3
