REMARK  Name = *****
REMARK  3 active torsions:
REMARK  status: ('A' for Active; 'I' for Inactive)
REMARK    1  A    between atoms: C_4  and  C_8
REMARK    2  A    between atoms: C_8  and  O_10
REMARK    3  A    between atoms: O_10  and  C_11
REMARK                            x       y       z     vdW  Elec       q    Type
REMARK                         _______ _______ _______ _____ _____    ______ ____
ROOT
ATOM      1  C   UNL     1       0.210   2.227   0.525  0.00  0.00    +0.000 C 
ATOM      2  O   UNL     1      -0.461   3.095  -0.009  0.00  0.00    +0.000 OA
ENDROOT
BRANCH   1   6
ATOM      3  C   UNL     1      -0.133  -1.906  -0.456  0.00  0.00    +0.000 A 
ATOM      4  C   UNL     1      -0.006  -0.949  -1.464  0.00  0.00    +0.000 A 
ATOM      5  C   UNL     1       0.110   0.400  -1.132  0.00  0.00    +0.000 A 
ATOM      6  C   UNL     1       0.107   0.803   0.199  0.00  0.00    +0.000 A 
ATOM      7  C   UNL     1      -0.028  -0.154   1.201  0.00  0.00    +0.000 A 
ATOM      8  C   UNL     1      -0.145  -1.506   0.881  0.00  0.00    +0.000 A 
ATOM      9  F   UNL     1      -0.068   0.205   2.492  0.00  0.00    +0.000 F 
ATOM     10  F   UNL     1       0.255   1.292  -2.122  0.00  0.00    +0.000 F 
ENDBRANCH   1   6
BRANCH   1  11
ATOM     11  O   UNL     1       1.206   2.378   1.470  0.00  0.00    +0.000 OA
BRANCH  11  12
ATOM     12  C   UNL     1       1.374   3.708   1.856  0.00  0.00    +0.000 A 
ATOM     13  C   UNL     1       2.343   4.482   1.221  0.00  0.00    +0.000 A 
ATOM     14  C   UNL     1       2.531   5.793   1.646  0.00  0.00    +0.000 A 
ATOM     15  C   UNL     1       1.784   6.326   2.691  0.00  0.00    +0.000 A 
ATOM     16  C   UNL     1       0.837   5.525   3.319  0.00  0.00    +0.000 A 
ATOM     17  C   UNL     1       0.626   4.211   2.918  0.00  0.00    +0.000 A 
ATOM     18  F   UNL     1       0.122   6.026   4.334  0.00  0.00    +0.000 F 
ATOM     19  F   UNL     1       3.455   6.553   1.044  0.00  0.00    +0.000 F 
ENDBRANCH  11  12
ENDBRANCH   1  11
TORSDOF 3
