REMARK  Name = *****
REMARK  6 active torsions:
REMARK  status: ('A' for Active; 'I' for Inactive)
REMARK    1  A    between atoms: C_1  and  C_2
REMARK    2  A    between atoms: C_5  and  S_8
REMARK    3  A    between atoms: S_8  and  N_9
REMARK    4  A    between atoms: S_8  and  O_17
REMARK    5  A    between atoms: N_9  and  C_10
REMARK    6  A    between atoms: O_17  and  C_18
REMARK                            x       y       z     vdW  Elec       q    Type
REMARK                         _______ _______ _______ _____ _____    ______ ____
ROOT
ATOM      1  S   UNL     1      -3.604  -0.185  -0.151  0.00  0.00    +0.000 S 
ATOM      2  O   UNL     1      -4.067  -0.743   1.102  0.00  0.00    +0.000 OA
ENDROOT
BRANCH   1   7
ATOM      3  C   UNL     1       2.433   0.266   0.221  0.00  0.00    +0.000 C 
ATOM      4  C   UNL     1       0.939   0.144   0.162  0.00  0.00    +0.000 A 
ATOM      5  C   UNL     1       0.123   1.188   0.621  0.00  0.00    +0.000 A 
ATOM      6  C   UNL     1      -1.267   1.090   0.538  0.00  0.00    +0.000 A 
ATOM      7  C   UNL     1      -1.840  -0.056  -0.017  0.00  0.00    +0.000 A 
ATOM      8  C   UNL     1      -1.042  -1.101  -0.487  0.00  0.00    +0.000 A 
ATOM      9  C   UNL     1       0.346  -0.995  -0.402  0.00  0.00    +0.000 A 
ENDBRANCH   1   7
BRANCH   1  10
ATOM     10  O   UNL     1      -4.147   1.348  -0.259  0.00  0.00    +0.000 OA
ATOM     11  C   UNL     1      -5.511   1.583   0.041  0.00  0.00    +0.000 C 
ENDBRANCH   1  10
BRANCH   1  12
ATOM     12  N   UNL     1      -3.978  -0.655  -1.560  0.00  0.00    +0.000 NA
BRANCH  12  13
ATOM     13  C   UNL     1      -3.593  -0.115  -2.823  0.00  0.00    +0.000 A 
ATOM     14  C   UNL     1      -2.846   1.049  -3.019  0.00  0.00    +0.000 A 
ATOM     15  C   UNL     1      -2.523   1.477  -4.312  0.00  0.00    +0.000 A 
ATOM     16  C   UNL     1      -2.947   0.746  -5.419  0.00  0.00    +0.000 A 
ATOM     17  C   UNL     1      -3.698  -0.412  -5.237  0.00  0.00    +0.000 A 
ATOM     18  C   UNL     1      -4.017  -0.835  -3.944  0.00  0.00    +0.000 A 
ENDBRANCH  12  13
ENDBRANCH   1  12
TORSDOF 4
