REMARK  Name = *****
REMARK  6 active torsions:
REMARK  status: ('A' for Active; 'I' for Inactive)
REMARK    1  A    between atoms: C_1  and  C_2
REMARK    2  A    between atoms: C_4  and  C_18
REMARK    3  A    between atoms: C_5  and  C_9
REMARK    4  A    between atoms: C_6  and  C_8
REMARK    5  A    between atoms: C_9  and  C_11
REMARK    6  A    between atoms: C_11  and  C_12
REMARK                            x       y       z     vdW  Elec       q    Type
REMARK                         _______ _______ _______ _____ _____    ______ ____
ROOT
ATOM      1  C   UNL     1       2.170   1.658  -0.604  0.00  0.00    +0.000 C 
ATOM      2  C   UNL     1       0.972   0.821  -0.266  0.00  0.00    +0.000 A 
ATOM      3  C   UNL     1       0.907  -0.518  -0.666  0.00  0.00    +0.000 A 
ATOM      4  C   UNL     1      -0.223  -1.304  -0.388  0.00  0.00    +0.000 A 
ATOM      5  C   UNL     1      -1.311  -0.714   0.285  0.00  0.00    +0.000 A 
ATOM      6  C   UNL     1      -1.257   0.627   0.715  0.00  0.00    +0.000 A 
ATOM      7  C   UNL     1      -0.116   1.386   0.410  0.00  0.00    +0.000 A 
ATOM      8  C   UNL     1      -2.379   1.287   1.466  0.00  0.00    +0.000 C 
ATOM      9  C   UNL     1      -0.245  -2.737  -0.842  0.00  0.00    +0.000 C 
ENDROOT
BRANCH   5  10
ATOM     10  C   UNL     1      -2.529  -1.527   0.536  0.00  0.00    +0.000 C 
ATOM     11  O   UNL     1      -2.493  -2.420   1.377  0.00  0.00    +0.000 OA
BRANCH  10  12
ATOM     12  C   UNL     1      -3.769  -1.170  -0.263  0.00  0.00    +0.000 C 
BRANCH  12  13
ATOM     13  C   UNL     1      -4.671  -2.386  -0.536  0.00  0.00    +0.000 C 
ATOM     14  C   UNL     1      -3.972  -3.396  -1.470  0.00  0.00    +0.000 C 
ATOM     15  C   UNL     1      -4.956  -4.413  -2.042  0.00  0.00    +0.000 C 
ATOM     16  C   UNL     1      -6.065  -3.724  -2.836  0.00  0.00    +0.000 C 
ATOM     17  C   UNL     1      -6.612  -2.516  -2.137  0.00  0.00    +0.000 C 
ATOM     18  C   UNL     1      -6.001  -1.928  -1.098  0.00  0.00    +0.000 C 
ENDBRANCH  12  13
ENDBRANCH  10  12
ENDBRANCH   5  10
TORSDOF 3
