REMARK  Name = *****
REMARK  4 active torsions:
REMARK  status: ('A' for Active; 'I' for Inactive)
REMARK    1  A    between atoms: C_4  and  C_7
REMARK    2  A    between atoms: C_7  and  O_8
REMARK    3  A    between atoms: O_8  and  C_9
REMARK    4  A    between atoms: C_13  and  C_15
REMARK                            x       y       z     vdW  Elec       q    Type
REMARK                         _______ _______ _______ _____ _____    ______ ____
ROOT
ATOM      1  O   UNL     1      -3.617  -0.733  -0.005  0.00  0.00    +0.000 OA
ENDROOT
BRANCH   1   2
ATOM      2  C   UNL     1      -4.914  -0.731  -0.440  0.00  0.00    +0.000 A 
ATOM      3  C   UNL     1      -5.623   0.375  -0.905  0.00  0.00    +0.000 A 
ATOM      4  C   UNL     1      -6.949   0.233  -1.322  0.00  0.00    +0.000 A 
ATOM      5  C   UNL     1      -7.573  -1.014  -1.271  0.00  0.00    +0.000 A 
ATOM      6  C   UNL     1      -6.880  -2.133  -0.794  0.00  0.00    +0.000 A 
ATOM      7  C   UNL     1      -5.546  -1.977  -0.386  0.00  0.00    +0.000 A 
BRANCH   6   8
ATOM      8  C   UNL     1      -7.539  -3.482  -0.749  0.00  0.00    +0.000 C 
ATOM      9 CL   UNL     1      -7.373  -4.310  -2.310  0.00  0.00    +0.000 Cl
ENDBRANCH   6   8
ENDBRANCH   1   2
BRANCH   1  10
ATOM     10  C   UNL     1      -2.877   0.478  -0.164  0.00  0.00    +0.000 C 
BRANCH  10  14
ATOM     11  C   UNL     1       1.254  -0.035   0.997  0.00  0.00    +0.000 A 
ATOM     12  C   UNL     1       0.562  -1.095   0.414  0.00  0.00    +0.000 A 
ATOM     13  C   UNL     1      -0.775  -0.938   0.046  0.00  0.00    +0.000 A 
ATOM     14  C   UNL     1      -1.441   0.276   0.269  0.00  0.00    +0.000 A 
ATOM     15  C   UNL     1      -0.728   1.339   0.843  0.00  0.00    +0.000 A 
ATOM     16  C   UNL     1       0.611   1.182   1.209  0.00  0.00    +0.000 A 
ENDBRANCH  10  14
ENDBRANCH   1  10
TORSDOF 4
