REMARK  Name = *****
REMARK  1 active torsions:
REMARK  status: ('A' for Active; 'I' for Inactive)
REMARK    1  A    between atoms: C_8  and  C_10
REMARK                            x       y       z     vdW  Elec       q    Type
REMARK                         _______ _______ _______ _____ _____    ______ ____
ROOT
ATOM      1  C   UNL     1       2.621  -0.350   0.452  0.00  0.00    +0.000 C 
ATOM      2  C   UNL     1       2.374   0.938  -0.347  0.00  0.00    +0.000 C 
ATOM      3  C   UNL     1       0.985   1.532  -0.060  0.00  0.00    +0.000 C 
ATOM      4  C   UNL     1      -0.054   0.454  -0.053  0.00  0.00    +0.000 A 
ATOM      5  C   UNL     1       0.204  -0.899   0.041  0.00  0.00    +0.000 A 
ATOM      6  C   UNL     1       1.599  -1.442   0.097  0.00  0.00    +0.000 C 
ATOM      7  C   UNL     1      -1.006  -1.655   0.046  0.00  0.00    +0.000 A 
ATOM      8  C   UNL     1      -2.139  -0.862  -0.027  0.00  0.00    +0.000 A 
ATOM      9  S   UNL     1      -1.716   0.801  -0.122  0.00  0.00    +0.000 S 
ENDROOT
BRANCH   8  10
ATOM     10  C   UNL     1      -3.547  -1.278  -0.063  0.00  0.00    +0.000 A 
ATOM     11  C   UNL     1      -4.523  -0.639   0.717  0.00  0.00    +0.000 A 
ATOM     12  C   UNL     1      -5.856  -1.058   0.679  0.00  0.00    +0.000 A 
ATOM     13  C   UNL     1      -6.230  -2.123  -0.137  0.00  0.00    +0.000 A 
ATOM     14  C   UNL     1      -5.272  -2.771  -0.914  0.00  0.00    +0.000 A 
ATOM     15  C   UNL     1      -3.940  -2.352  -0.876  0.00  0.00    +0.000 A 
ENDBRANCH   8  10
TORSDOF 1
