REMARK  Name = *****
REMARK  2 active torsions:
REMARK  status: ('A' for Active; 'I' for Inactive)
REMARK    1  A    between atoms: C_7  and  C_9
REMARK    2  A    between atoms: C_10  and  C_11
REMARK                            x       y       z     vdW  Elec       q    Type
REMARK                         _______ _______ _______ _____ _____    ______ ____
ROOT
ATOM      1  C   UNL     1       1.570  -1.337   0.133  0.00  0.00    +0.000 C 
ATOM      2  C   UNL     1       0.099  -1.604   0.442  0.00  0.00    +0.000 C 
ATOM      3  C   UNL     1      -0.838  -1.049  -0.621  0.00  0.00    +0.000 C 
ATOM      4  C   UNL     1      -1.200   0.407  -0.431  0.00  0.00    +0.000 C 
ATOM      5  O   UNL     1      -2.337   0.799  -0.708  0.00  0.00    +0.000 OA
ATOM      6  C   UNL     1      -0.170   1.379   0.101  0.00  0.00    +0.000 C 
ATOM      7  C   UNL     1       1.240   1.157  -0.460  0.00  0.00    +0.000 C 
ATOM      8  C   UNL     1       2.022   0.106   0.348  0.00  0.00    +0.000 C 
ENDROOT
BRANCH   7   9
ATOM      9  C   UNL     1       2.004   2.464  -0.406  0.00  0.00    +0.000 C 
ATOM     10  C   UNL     1       2.505   3.075  -1.492  0.00  0.00    +0.000 C 
BRANCH  10  11
ATOM     11  C   UNL     1       3.256   4.337  -1.449  0.00  0.00    +0.000 A 
ATOM     12  C   UNL     1       4.348   4.506  -2.309  0.00  0.00    +0.000 A 
ATOM     13  C   UNL     1       5.069   5.703  -2.318  0.00  0.00    +0.000 A 
ATOM     14  C   UNL     1       4.697   6.747  -1.474  0.00  0.00    +0.000 A 
ATOM     15  C   UNL     1       3.602   6.598  -0.626  0.00  0.00    +0.000 A 
ATOM     16  C   UNL     1       2.882   5.400  -0.617  0.00  0.00    +0.000 A 
ENDBRANCH  10  11
ENDBRANCH   7   9
TORSDOF 2
