REMARK  Name = *****
REMARK  4 active torsions:
REMARK  status: ('A' for Active; 'I' for Inactive)
REMARK    1  A    between atoms: C_1  and  C_2
REMARK    2  A    between atoms: C_5  and  C_8
REMARK    3  A    between atoms: C_9  and  O_10
REMARK    4  A    between atoms: O_10  and  C_11
REMARK                            x       y       z     vdW  Elec       q    Type
REMARK                         _______ _______ _______ _____ _____    ______ ____
ROOT
ATOM      1  C   UNL     1      -3.190   0.207  -0.122  0.00  0.00    +0.000 C 
ATOM      2  C   UNL     1      -3.833   1.380  -0.073  0.00  0.00    +0.000 C 
ENDROOT
BRANCH   1   7
ATOM      3  C   UNL     1       2.571  -0.199  -0.097  0.00  0.00    +0.000 C 
ATOM      4  C   UNL     1       1.074  -0.119  -0.082  0.00  0.00    +0.000 A 
ATOM      5  C   UNL     1       0.387   0.278   1.071  0.00  0.00    +0.000 A 
ATOM      6  C   UNL     1      -1.007   0.380   1.064  0.00  0.00    +0.000 A 
ATOM      7  C   UNL     1      -1.731   0.089  -0.096  0.00  0.00    +0.000 A 
ATOM      8  C   UNL     1      -1.048  -0.311  -1.248  0.00  0.00    +0.000 A 
ATOM      9  C   UNL     1       0.346  -0.409  -1.242  0.00  0.00    +0.000 A 
ENDBRANCH   1   7
BRANCH   2  10
ATOM     10  O   UNL     1      -3.186   2.593  -0.010  0.00  0.00    +0.000 OA
BRANCH  10  11
ATOM     11  C   UNL     1      -3.964   3.714   0.128  0.00  0.00    +0.000 A 
ATOM     12  C   UNL     1      -4.808   3.893   1.225  0.00  0.00    +0.000 A 
ATOM     13  C   UNL     1      -5.542   5.074   1.345  0.00  0.00    +0.000 A 
ATOM     14  C   UNL     1      -5.418   6.074   0.379  0.00  0.00    +0.000 A 
ATOM     15  C   UNL     1      -4.557   5.899  -0.705  0.00  0.00    +0.000 A 
ATOM     16  C   UNL     1      -3.822   4.720  -0.827  0.00  0.00    +0.000 A 
ENDBRANCH  10  11
ENDBRANCH   2  10
TORSDOF 3
