REMARK  Name = *****
REMARK  5 active torsions:
REMARK  status: ('A' for Active; 'I' for Inactive)
REMARK    1  A    between atoms: C_1  and  C_2
REMARK    2  A    between atoms: C_7  and  C_8
REMARK    3  A    between atoms: C_8  and  P_9
REMARK    4  A    between atoms: P_9  and  C_10
REMARK    5  A    between atoms: P_9  and  C_11
REMARK                            x       y       z     vdW  Elec       q    Type
REMARK                         _______ _______ _______ _____ _____    ______ ____
ROOT
ATOM      1  C   UNL     1       0.941  -2.574  -0.518  0.00  0.00    +0.000 C 
ENDROOT
BRANCH   1   8
ATOM      2  C   UNL     1       0.610  -1.384  -3.294  0.00  0.00    +0.000 C 
ATOM      3  C   UNL     1      -0.013  -0.761  -2.073  0.00  0.00    +0.000 A 
ATOM      4  C   UNL     1      -0.780   0.407  -2.235  0.00  0.00    +0.000 A 
ATOM      5  C   UNL     1      -1.398   1.017  -1.144  0.00  0.00    +0.000 A 
ATOM      6  C   UNL     1      -1.264   0.468   0.124  0.00  0.00    +0.000 A 
ATOM      7  C   UNL     1      -0.505  -0.688   0.303  0.00  0.00    +0.000 A 
ATOM      8  C   UNL     1       0.145  -1.315  -0.780  0.00  0.00    +0.000 A 
ENDBRANCH   1   8
BRANCH   1   9
ATOM      9  P   UNL     1       2.672  -2.010  -0.299  0.00  0.00    +0.000 P 
ATOM     10  C   UNL     1       2.678  -1.516   1.466  0.00  0.00    +0.000 C 
BRANCH   9  11
ATOM     11  C   UNL     1       3.569  -3.592  -0.232  0.00  0.00    +0.000 A 
ATOM     12  C   UNL     1       4.696  -3.755  -1.051  0.00  0.00    +0.000 A 
ATOM     13  C   UNL     1       5.422  -4.948  -1.042  0.00  0.00    +0.000 A 
ATOM     14  C   UNL     1       5.030  -5.997  -0.214  0.00  0.00    +0.000 A 
ATOM     15  C   UNL     1       3.914  -5.851   0.605  0.00  0.00    +0.000 A 
ATOM     16  C   UNL     1       3.188  -4.656   0.597  0.00  0.00    +0.000 A 
ENDBRANCH   9  11
ENDBRANCH   1   9
TORSDOF 3
