REMARK  Name = *****
REMARK  6 active torsions:
REMARK  status: ('A' for Active; 'I' for Inactive)
REMARK    1  A    between atoms: C_1  and  C_2
REMARK    2  A    between atoms: C_7  and  C_8
REMARK    3  A    between atoms: C_8  and  O_10
REMARK    4  A    between atoms: O_10  and  C_11
REMARK    5  A    between atoms: C_11  and  C_12
REMARK    6  A    between atoms: C_11  and  C_13
REMARK                            x       y       z     vdW  Elec       q    Type
REMARK                         _______ _______ _______ _____ _____    ______ ____
ROOT
ATOM      1  C   UNL     1       0.903  -2.893  -0.130  0.00  0.00    +0.000 C 
ATOM      2  O   UNL     1       0.368  -3.838   0.425  0.00  0.00    +0.000 OA
ENDROOT
BRANCH   1   9
ATOM      3  C   UNL     1      -1.748  -2.116   1.057  0.00  0.00    +0.000 C 
ATOM      4  C   UNL     1      -1.035  -1.263   0.043  0.00  0.00    +0.000 A 
ATOM      5  C   UNL     1      -1.649  -0.065  -0.369  0.00  0.00    +0.000 A 
ATOM      6  C   UNL     1      -1.040   0.771  -1.305  0.00  0.00    +0.000 A 
ATOM      7  C   UNL     1       0.190   0.423  -1.850  0.00  0.00    +0.000 A 
ATOM      8  C   UNL     1       0.811  -0.764  -1.460  0.00  0.00    +0.000 A 
ATOM      9  C   UNL     1       0.213  -1.619  -0.514  0.00  0.00    +0.000 A 
ENDBRANCH   1   9
BRANCH   1  10
ATOM     10  O   UNL     1       2.214  -2.831  -0.478  0.00  0.00    +0.000 OA
BRANCH  10  11
ATOM     11  C   UNL     1       3.024  -3.978  -0.153  0.00  0.00    +0.000 C 
ATOM     12  C   UNL     1       2.845  -5.040  -1.237  0.00  0.00    +0.000 C 
BRANCH  11  13
ATOM     13  C   UNL     1       4.493  -3.539  -0.036  0.00  0.00    +0.000 C 
ATOM     14  C   UNL     1       4.726  -2.478   1.042  0.00  0.00    +0.000 C 
ATOM     15  C   UNL     1       6.123  -1.953   0.738  0.00  0.00    +0.000 C 
ATOM     16  C   UNL     1       6.314  -2.122  -0.769  0.00  0.00    +0.000 C 
ATOM     17  C   UNL     1       5.073  -2.854  -1.277  0.00  0.00    +0.000 C 
ENDBRANCH  11  13
ENDBRANCH  10  11
ENDBRANCH   1  10
TORSDOF 4
