REMARK  Name = *****
REMARK  2 active torsions:
REMARK  status: ('A' for Active; 'I' for Inactive)
REMARK    1  A    between atoms: C_4  and  C_7
REMARK    2  A    between atoms: N_8  and  C_9
REMARK                            x       y       z     vdW  Elec       q    Type
REMARK                         _______ _______ _______ _____ _____    ______ ____
ROOT
ATOM      1  C   UNL     1       2.829  -0.693  -0.273  0.00  0.00    +0.000 C 
ATOM      2  N   UNL     1       3.881  -0.596   0.474  0.00  0.00    +0.000 NA
ENDROOT
BRANCH   2   3
ATOM      3  C   UNL     1       5.086  -1.006  -0.110  0.00  0.00    +0.000 A 
ATOM      4  C   UNL     1       5.799  -0.149  -0.955  0.00  0.00    +0.000 A 
ATOM      5  C   UNL     1       7.009  -0.559  -1.520  0.00  0.00    +0.000 A 
ATOM      6  C   UNL     1       7.512  -1.826  -1.229  0.00  0.00    +0.000 A 
ATOM      7  C   UNL     1       6.820  -2.681  -0.375  0.00  0.00    +0.000 A 
ATOM      8  C   UNL     1       5.609  -2.267   0.187  0.00  0.00    +0.000 A 
ATOM      9 CL   UNL     1       9.002  -2.333  -1.924  0.00  0.00    +0.000 Cl
ENDBRANCH   2   3
BRANCH   1  13
ATOM     10  C   UNL     1      -1.404   0.158  -0.234  0.00  0.00    +0.000 C 
ATOM     11  C   UNL     1      -0.909  -1.044   0.565  0.00  0.00    +0.000 C 
ATOM     12  C   UNL     1       0.505  -1.449   0.155  0.00  0.00    +0.000 C 
ATOM     13  C   UNL     1       1.477  -0.271   0.251  0.00  0.00    +0.000 C 
ATOM     14  C   UNL     1       0.978   0.931  -0.554  0.00  0.00    +0.000 C 
ATOM     15  C   UNL     1      -0.436   1.334  -0.141  0.00  0.00    +0.000 C 
ENDBRANCH   1  13
TORSDOF 2
