REMARK  Name = *****
REMARK  3 active torsions:
REMARK  status: ('A' for Active; 'I' for Inactive)
REMARK    1  A    between atoms: C_2  and  C_3
REMARK    2  A    between atoms: C_2  and  C_11
REMARK    3  A    between atoms: C_3  and  C_4
REMARK                            x       y       z     vdW  Elec       q    Type
REMARK                         _______ _______ _______ _____ _____    ______ ____
ROOT
ATOM      1  C   UNL     1       1.768  -1.448  -0.407  0.00  0.00    +0.000 C 
ATOM      2  C   UNL     1       2.164  -0.264   0.093  0.00  0.00    +0.000 C 
ENDROOT
BRANCH   2   3
ATOM      3  C   UNL     1       1.961   0.023   1.530  0.00  0.00    +0.000 A 
ATOM      4  C   UNL     1       3.033   0.397   2.351  0.00  0.00    +0.000 A 
ATOM      5  C   UNL     1       2.832   0.673   3.707  0.00  0.00    +0.000 A 
ATOM      6  C   UNL     1       1.556   0.578   4.258  0.00  0.00    +0.000 A 
ATOM      7  C   UNL     1       0.480   0.206   3.455  0.00  0.00    +0.000 A 
ATOM      8  C   UNL     1       0.682  -0.071   2.100  0.00  0.00    +0.000 A 
ENDBRANCH   2   3
BRANCH   2   9
ATOM      9  C   UNL     1       2.881   0.765  -0.757  0.00  0.00    +0.000 C 
BRANCH   9  10
ATOM     10  C   UNL     1       2.040   1.930  -1.167  0.00  0.00    +0.000 C 
ATOM     11  C   UNL     1       0.714   2.178  -1.064  0.00  0.00    +0.000 C 
ATOM     12  C   UNL     1       0.455   3.520  -1.724  0.00  0.00    +0.000 C 
ATOM     13  C   UNL     1       1.754   4.216  -1.296  0.00  0.00    +0.000 C 
ATOM     14  C   UNL     1       2.649   3.123  -1.899  0.00  0.00    +0.000 C 
ATOM     15  C   UNL     1       2.091   3.157  -3.312  0.00  0.00    +0.000 C 
ATOM     16  C   UNL     1       0.767   3.395  -3.207  0.00  0.00    +0.000 C 
ENDBRANCH   9  10
ENDBRANCH   2   9
TORSDOF 3
