REMARK  Name = *****
REMARK  3 active torsions:
REMARK  status: ('A' for Active; 'I' for Inactive)
REMARK    1  A    between atoms: C_4  and  C_7
REMARK    2  A    between atoms: C_7  and  C_8
REMARK    3  A    between atoms: C_8  and  C_10
REMARK                            x       y       z     vdW  Elec       q    Type
REMARK                         _______ _______ _______ _____ _____    ______ ____
ROOT
ATOM      1  C   UNL     1      -3.818  -0.636  -0.297  0.00  0.00    +0.000 C 
ATOM      2  O   UNL     1      -4.270  -1.080  -1.353  0.00  0.00    +0.000 OA
ENDROOT
BRANCH   1   3
ATOM      3  C   UNL     1      -4.233  -1.268   0.995  0.00  0.00    +0.000 A 
ATOM      4  C   UNL     1      -3.732  -0.860   2.237  0.00  0.00    +0.000 A 
ATOM      5  C   UNL     1      -4.164  -1.496   3.404  0.00  0.00    +0.000 A 
ATOM      6  C   UNL     1      -5.093  -2.534   3.350  0.00  0.00    +0.000 A 
ATOM      7  C   UNL     1      -5.595  -2.944   2.117  0.00  0.00    +0.000 A 
ATOM      8  C   UNL     1      -5.167  -2.316   0.946  0.00  0.00    +0.000 A 
ATOM      9  I   UNL     1      -3.409  -0.886   5.245  0.00  0.00    +0.000 I 
ENDBRANCH   1   3
BRANCH   1  10
ATOM     10  C   UNL     1      -2.855   0.538  -0.297  0.00  0.00    +0.000 C 
BRANCH  10  14
ATOM     11  C   UNL     1       1.285  -0.520   0.308  0.00  0.00    +0.000 A 
ATOM     12  C   UNL     1       0.512  -1.233  -0.605  0.00  0.00    +0.000 A 
ATOM     13  C   UNL     1      -0.828  -0.895  -0.802  0.00  0.00    +0.000 A 
ATOM     14  C   UNL     1      -1.412   0.153  -0.078  0.00  0.00    +0.000 A 
ATOM     15  C   UNL     1      -0.617   0.878   0.822  0.00  0.00    +0.000 A 
ATOM     16  C   UNL     1       0.722   0.538   1.018  0.00  0.00    +0.000 A 
ENDBRANCH  10  14
ENDBRANCH   1  10
TORSDOF 3
