REMARK  Name = *****
REMARK  2 active torsions:
REMARK  status: ('A' for Active; 'I' for Inactive)
REMARK    1  A    between atoms: C_8  and  O_10
REMARK    2  A    between atoms: O_10  and  C_11
REMARK                            x       y       z     vdW  Elec       q    Type
REMARK                         _______ _______ _______ _____ _____    ______ ____
ROOT
ATOM      1  C   UNL     1       2.630  -0.345  -0.061  0.00  0.00    +0.000 A 
ATOM      2  C   UNL     1       2.375   1.017  -0.182  0.00  0.00    +0.000 A 
ATOM      3  C   UNL     1       1.065   1.506  -0.167  0.00  0.00    +0.000 A 
ATOM      4  C   UNL     1       0.014   0.585  -0.027  0.00  0.00    +0.000 A 
ATOM      5  C   UNL     1       0.246  -0.787   0.098  0.00  0.00    +0.000 A 
ATOM      6  C   UNL     1       1.576  -1.254   0.078  0.00  0.00    +0.000 A 
ATOM      7  N   UNL     1      -0.887  -1.570   0.232  0.00  0.00    +0.000 NA
ATOM      8  C   UNL     1      -1.959  -0.810   0.217  0.00  0.00    +0.000 A 
ATOM      9  S   UNL     1      -1.683   0.869   0.022  0.00  0.00    +0.000 S 
ENDROOT
BRANCH   8  10
ATOM     10  O   UNL     1      -3.210  -1.270   0.308  0.00  0.00    +0.000 OA
BRANCH  10  11
ATOM     11  C   UNL     1      -3.479  -2.568   0.668  0.00  0.00    +0.000 A 
ATOM     12  C   UNL     1      -2.863  -3.203   1.749  0.00  0.00    +0.000 A 
ATOM     13  C   UNL     1      -3.227  -4.508   2.090  0.00  0.00    +0.000 A 
ATOM     14  C   UNL     1      -4.217  -5.165   1.360  0.00  0.00    +0.000 A 
ATOM     15  C   UNL     1      -4.850  -4.527   0.295  0.00  0.00    +0.000 A 
ATOM     16  C   UNL     1      -4.486  -3.222  -0.046  0.00  0.00    +0.000 A 
ATOM     17 CL   UNL     1      -4.667  -6.771   1.783  0.00  0.00    +0.000 Cl
ENDBRANCH  10  11
ENDBRANCH   8  10
TORSDOF 2
