REMARK  Name = *****
REMARK  3 active torsions:
REMARK  status: ('A' for Active; 'I' for Inactive)
REMARK    1  A    between atoms: C_4  and  O_7
REMARK    2  A    between atoms: O_7  and  C_8
REMARK    3  A    between atoms: C_8  and  C_10
REMARK                            x       y       z     vdW  Elec       q    Type
REMARK                         _______ _______ _______ _____ _____    ______ ____
ROOT
ATOM      1  C   UNL     1      -3.668  -0.667   0.003  0.00  0.00    +0.000 C 
ATOM      2  O   UNL     1      -3.426  -1.698   0.611  0.00  0.00    +0.000 OA
ENDROOT
BRANCH   1   3
ATOM      3  C   UNL     1      -5.032  -0.317  -0.445  0.00  0.00    +0.000 A 
ATOM      4  C   UNL     1      -5.451   1.006  -0.595  0.00  0.00    +0.000 A 
ATOM      5  C   UNL     1      -6.753   1.282  -1.013  0.00  0.00    +0.000 A 
ATOM      6  C   UNL     1      -7.646   0.241  -1.274  0.00  0.00    +0.000 A 
ATOM      7  C   UNL     1      -7.238  -1.083  -1.110  0.00  0.00    +0.000 A 
ATOM      8  C   UNL     1      -5.936  -1.362  -0.692  0.00  0.00    +0.000 A 
ATOM      9 CL   UNL     1      -7.284   2.910  -1.203  0.00  0.00    +0.000 Cl
ATOM     10  F   UNL     1      -4.621   2.023  -0.312  0.00  0.00    +0.000 F 
ENDBRANCH   1   3
BRANCH   1  11
ATOM     11  O   UNL     1      -2.774   0.285  -0.444  0.00  0.00    +0.000 OA
BRANCH  11  15
ATOM     12  C   UNL     1       1.270  -0.115   0.519  0.00  0.00    +0.000 A 
ATOM     13  C   UNL     1       0.628  -1.152  -0.161  0.00  0.00    +0.000 A 
ATOM     14  C   UNL     1      -0.725  -1.045  -0.483  0.00  0.00    +0.000 A 
ATOM     15  C   UNL     1      -1.428   0.096  -0.101  0.00  0.00    +0.000 A 
ATOM     16  C   UNL     1      -0.791   1.146   0.559  0.00  0.00    +0.000 A 
ATOM     17  C   UNL     1       0.562   1.035   0.876  0.00  0.00    +0.000 A 
ENDBRANCH  11  15
ENDBRANCH   1  11
TORSDOF 3
