REMARK  Name = *****
REMARK  6 active torsions:
REMARK  status: ('A' for Active; 'I' for Inactive)
REMARK    1  A    between atoms: C_1  and  C_2
REMARK    2  A    between atoms: C_2  and  O_3
REMARK    3  A    between atoms: O_3  and  C_4
REMARK    4  A    between atoms: C_7  and  S_10
REMARK    5  A    between atoms: S_10  and  C_11
REMARK    6  A    between atoms: C_11  and  C_12
REMARK                            x       y       z     vdW  Elec       q    Type
REMARK                         _______ _______ _______ _____ _____    ______ ____
ROOT
ATOM      1  C   UNL     1       4.433   1.646   0.756  0.00  0.00    +0.000 A 
ATOM      2  N   UNL     1       4.909   1.808   2.008  0.00  0.00    +0.000 NA
ATOM      3  N   UNL     1       6.263   1.899   2.209  0.00  0.00    +0.000 NA
ATOM      4  C   UNL     1       7.113   1.823   1.163  0.00  0.00    +0.000 A 
ATOM      5  C   UNL     1       6.641   1.661  -0.131  0.00  0.00    +0.000 A 
ATOM      6  C   UNL     1       5.268   1.568  -0.339  0.00  0.00    +0.000 A 
ENDROOT
BRANCH   1   7
ATOM      7  O   UNL     1       3.077   1.552   0.518  0.00  0.00    +0.000 OA
BRANCH   7   9
ATOM      8  C   UNL     1       0.829   1.529   1.311  0.00  0.00    +0.000 C 
ATOM      9  C   UNL     1       2.291   1.645   1.708  0.00  0.00    +0.000 C 
ENDBRANCH   7   9
ENDBRANCH   1   7
BRANCH   4  10
ATOM     10  S   UNL     1       8.865   1.959   1.445  0.00  0.00    +0.000 S 
BRANCH  10  11
ATOM     11  C   UNL     1       8.909   1.845   3.265  0.00  0.00    +0.000 C 
BRANCH  11  12
ATOM     12  C   UNL     1      10.322   1.912   3.780  0.00  0.00    +0.000 A 
ATOM     13  C   UNL     1      10.954   3.146   3.996  0.00  0.00    +0.000 A 
ATOM     14  C   UNL     1      12.271   3.195   4.461  0.00  0.00    +0.000 A 
ATOM     15  C   UNL     1      12.971   2.015   4.712  0.00  0.00    +0.000 A 
ATOM     16  C   UNL     1      12.355   0.784   4.494  0.00  0.00    +0.000 A 
ATOM     17  C   UNL     1      11.043   0.741   4.031  0.00  0.00    +0.000 A 
ATOM     18  F   UNL     1      10.471  -0.455   3.829  0.00  0.00    +0.000 F 
ENDBRANCH  11  12
ENDBRANCH  10  11
ENDBRANCH   4  10
TORSDOF 5
