REMARK  Name = *****
REMARK  3 active torsions:
REMARK  status: ('A' for Active; 'I' for Inactive)
REMARK    1  A    between atoms: C_4  and  C_7
REMARK    2  A    between atoms: C_7  and  O_8
REMARK    3  A    between atoms: O_8  and  C_9
REMARK                            x       y       z     vdW  Elec       q    Type
REMARK                         _______ _______ _______ _____ _____    ______ ____
ROOT
ATOM      1  O   UNL     1      -3.549  -0.830  -0.203  0.00  0.00    +0.000 OA
ENDROOT
BRANCH   1   2
ATOM      2  C   UNL     1      -4.917  -0.745  -0.363  0.00  0.00    +0.000 A 
ATOM      3  N   UNL     1      -5.503   0.460  -0.534  0.00  0.00    +0.000 NA
ATOM      4  C   UNL     1      -6.844   0.468  -0.686  0.00  0.00    +0.000 A 
ATOM      5  C   UNL     1      -7.628  -0.671  -0.677  0.00  0.00    +0.000 A 
ATOM      6  C   UNL     1      -6.988  -1.892  -0.500  0.00  0.00    +0.000 A 
ATOM      7  C   UNL     1      -5.609  -1.942  -0.338  0.00  0.00    +0.000 A 
ATOM      8  I   UNL     1      -8.098  -3.648  -0.476  0.00  0.00    +0.000 I 
ENDBRANCH   1   2
BRANCH   1   9
ATOM      9  C   UNL     1      -2.900   0.441  -0.248  0.00  0.00    +0.000 C 
BRANCH   9  13
ATOM     10  C   UNL     1       1.357  -0.157   0.154  0.00  0.00    +0.000 A 
ATOM     11  C   UNL     1       0.662  -0.766  -0.889  0.00  0.00    +0.000 A 
ATOM     12  C   UNL     1      -0.715  -0.575  -1.015  0.00  0.00    +0.000 A 
ATOM     13  C   UNL     1      -1.412   0.224  -0.097  0.00  0.00    +0.000 A 
ATOM     14  C   UNL     1      -0.701   0.833   0.947  0.00  0.00    +0.000 A 
ATOM     15  C   UNL     1       0.677   0.642   1.071  0.00  0.00    +0.000 A 
ENDBRANCH   9  13
ENDBRANCH   1   9
TORSDOF 3
