REMARK  Name = *****
REMARK  5 active torsions:
REMARK  status: ('A' for Active; 'I' for Inactive)
REMARK    1  A    between atoms: C_1  and  C_2
REMARK    2  A    between atoms: C_5  and  C_8
REMARK    3  A    between atoms: C_8  and  N_9
REMARK    4  A    between atoms: N_9  and  C_10
REMARK    5  A    between atoms: C_17  and  C_19
REMARK                            x       y       z     vdW  Elec       q    Type
REMARK                         _______ _______ _______ _____ _____    ______ ____
ROOT
ATOM      1  N   UNL     1      -3.855   1.603  -0.199  0.00  0.00    +0.000 N 
ATOM      2  C   UNL     1      -5.240   1.561  -0.031  0.00  0.00    +0.000 C 
ATOM      3  O   UNL     1      -5.830   0.576   0.422  0.00  0.00    +0.000 OA
ATOM      4  C   UNL     1      -6.056   2.737  -0.521  0.00  0.00    +0.000 C 
ENDROOT
BRANCH   1   5
ATOM      5  C   UNL     1      -3.093   2.807  -0.317  0.00  0.00    +0.000 A 
ATOM      6  C   UNL     1      -3.429   3.950   0.424  0.00  0.00    +0.000 A 
ATOM      7  C   UNL     1      -2.667   5.120   0.330  0.00  0.00    +0.000 A 
ATOM      8  C   UNL     1      -1.552   5.155  -0.501  0.00  0.00    +0.000 A 
ATOM      9  C   UNL     1      -1.191   4.028  -1.231  0.00  0.00    +0.000 A 
ATOM     10  C   UNL     1      -1.953   2.859  -1.132  0.00  0.00    +0.000 A 
ATOM     11 CL   UNL     1      -0.615   6.591  -0.619  0.00  0.00    +0.000 Cl
ENDBRANCH   1   5
BRANCH   1  12
ATOM     12  C   UNL     1      -3.116   0.341  -0.029  0.00  0.00    +0.000 C 
BRANCH  12  17
ATOM     13  C   UNL     1      -2.046  -2.623  -4.945  0.00  0.00    +0.000 C 
ATOM     14  C   UNL     1      -2.318  -1.834  -3.699  0.00  0.00    +0.000 A 
ATOM     15  C   UNL     1      -1.286  -1.547  -2.800  0.00  0.00    +0.000 A 
ATOM     16  C   UNL     1      -1.549  -0.842  -1.622  0.00  0.00    +0.000 A 
ATOM     17  C   UNL     1      -2.848  -0.407  -1.320  0.00  0.00    +0.000 A 
ATOM     18  C   UNL     1      -3.883  -0.730  -2.207  0.00  0.00    +0.000 A 
ATOM     19  C   UNL     1      -3.621  -1.435  -3.384  0.00  0.00    +0.000 A 
ENDBRANCH  12  17
ENDBRANCH   1  12
TORSDOF 3
