REMARK  Name = *****
REMARK  4 active torsions:
REMARK  status: ('A' for Active; 'I' for Inactive)
REMARK    1  A    between atoms: C_3  and  C_9
REMARK    2  A    between atoms: C_9  and  O_10
REMARK    3  A    between atoms: O_10  and  C_11
REMARK    4  A    between atoms: C_11  and  C_13
REMARK                            x       y       z     vdW  Elec       q    Type
REMARK                         _______ _______ _______ _____ _____    ______ ____
ROOT
ATOM      1  O   UNL     1       1.207  -3.849   0.201  0.00  0.00    +0.000 OA
ENDROOT
BRANCH   1   2
ATOM      2  C   UNL     1       2.150  -4.672  -0.316  0.00  0.00    +0.000 C 
ATOM      3  O   UNL     1       3.246  -4.360  -0.744  0.00  0.00    +0.000 OA
BRANCH   2   4
ATOM      4  C   UNL     1       1.616  -6.048  -0.296  0.00  0.00    +0.000 A 
ATOM      5  C   UNL     1       2.351  -7.107   0.253  0.00  0.00    +0.000 A 
ATOM      6  C   UNL     1       1.826  -8.402   0.226  0.00  0.00    +0.000 A 
ATOM      7  C   UNL     1       0.579  -8.627  -0.347  0.00  0.00    +0.000 A 
ATOM      8  C   UNL     1      -0.161  -7.585  -0.895  0.00  0.00    +0.000 A 
ATOM      9  C   UNL     1       0.357  -6.290  -0.872  0.00  0.00    +0.000 A 
ATOM     10  F   UNL     1       0.080  -9.869  -0.369  0.00  0.00    +0.000 F 
ATOM     11 CL   UNL     1       3.879  -6.884   1.024  0.00  0.00    +0.000 Cl
ENDBRANCH   2   4
ENDBRANCH   1   2
BRANCH   1  12
ATOM     12  C   UNL     1       1.553  -2.459   0.234  0.00  0.00    +0.000 C 
BRANCH  12  15
ATOM     13  C   UNL     1       1.555  -0.873  -3.222  0.00  0.00    +0.000 A 
ATOM     14  C   UNL     1       1.976  -1.485  -2.042  0.00  0.00    +0.000 A 
ATOM     15  C   UNL     1       1.057  -1.778  -1.018  0.00  0.00    +0.000 A 
ATOM     16  C   UNL     1      -0.298  -1.460  -1.218  0.00  0.00    +0.000 A 
ATOM     17  C   UNL     1      -0.718  -0.846  -2.400  0.00  0.00    +0.000 A 
ATOM     18  C   UNL     1       0.213  -0.557  -3.388  0.00  0.00    +0.000 A 
ATOM     19  F   UNL     1      -0.191   0.029  -4.522  0.00  0.00    +0.000 F 
ATOM     20 CL   UNL     1      -1.502  -1.818  -0.032  0.00  0.00    +0.000 Cl
ENDBRANCH  12  15
ENDBRANCH   1  12
TORSDOF 4
