REMARK  Name = *****
REMARK  3 active torsions:
REMARK  status: ('A' for Active; 'I' for Inactive)
REMARK    1  A    between atoms: C_4  and  C_7
REMARK    2  A    between atoms: C_7  and  C_8
REMARK    3  A    between atoms: C_8  and  C_9
REMARK                            x       y       z     vdW  Elec       q    Type
REMARK                         _______ _______ _______ _____ _____    ______ ____
ROOT
ATOM      1  C   UNL     1       0.555  -2.840   0.020  0.00  0.00    +0.000 C 
ENDROOT
BRANCH   1   5
ATOM      2  C   UNL     1      -0.684   1.370   0.060  0.00  0.00    +0.000 C 
ATOM      3  C   UNL     1      -0.531   0.684  -1.292  0.00  0.00    +0.000 C 
ATOM      4  C   UNL     1      -0.574  -0.839  -1.147  0.00  0.00    +0.000 C 
ATOM      5  C   UNL     1       0.247  -1.358   0.012  0.00  0.00    +0.000 C 
ATOM      6  C   UNL     1       0.705  -0.537   0.975  0.00  0.00    +0.000 C 
ATOM      7  C   UNL     1       0.420   0.937   1.024  0.00  0.00    +0.000 C 
ENDBRANCH   1   5
BRANCH   1   8
ATOM      8  C   UNL     1      -0.689  -3.699   0.274  0.00  0.00    +0.000 C 
BRANCH   8   9
ATOM      9  C   UNL     1      -0.350  -5.168   0.335  0.00  0.00    +0.000 A 
ATOM     10  C   UNL     1      -0.056  -5.779   1.562  0.00  0.00    +0.000 A 
ATOM     11  C   UNL     1       0.275  -7.134   1.615  0.00  0.00    +0.000 A 
ATOM     12  C   UNL     1       0.321  -7.888   0.444  0.00  0.00    +0.000 A 
ATOM     13  C   UNL     1       0.037  -7.289  -0.781  0.00  0.00    +0.000 A 
ATOM     14  C   UNL     1      -0.295  -5.934  -0.837  0.00  0.00    +0.000 A 
ENDBRANCH   8   9
ENDBRANCH   1   8
TORSDOF 3
