REMARK  Name = *****
REMARK  6 active torsions:
REMARK  status: ('A' for Active; 'I' for Inactive)
REMARK    1  A    between atoms: C_2  and  C_3
REMARK    2  A    between atoms: C_3  and  C_4
REMARK    3  A    between atoms: C_4  and  C_5
REMARK    4  A    between atoms: C_8  and  C_10
REMARK    5  A    between atoms: C_10  and  C_11
REMARK    6  A    between atoms: C_11  and  C_12
REMARK                            x       y       z     vdW  Elec       q    Type
REMARK                         _______ _______ _______ _____ _____    ______ ____
ROOT
ATOM      1  C   UNL     1       5.278   1.853  -1.948  0.00  0.00    +0.000 A 
ATOM      2  C   UNL     1       5.295   3.091  -2.547  0.00  0.00    +0.000 A 
ATOM      3  N   UNL     1       6.046   3.048  -3.693  0.00  0.00    +0.000 NA
ATOM      4  C   UNL     1       6.464   1.799  -3.747  0.00  0.00    +0.000 A 
ATOM      5  O   UNL     1       6.031   1.010  -2.716  0.00  0.00    +0.000 OA
ENDROOT
BRANCH   1   6
ATOM      6  C   UNL     1       4.652   1.294  -0.728  0.00  0.00    +0.000 C 
BRANCH   6   7
ATOM      7  C   UNL     1       3.199   0.889  -0.984  0.00  0.00    +0.000 C 
BRANCH   7   9
ATOM      8  C   UNL     1       2.060  -0.889   0.375  0.00  0.00    +0.000 C 
ATOM      9  C   UNL     1       2.544   0.354   0.259  0.00  0.00    +0.000 C 
ENDBRANCH   7   9
ENDBRANCH   6   7
ENDBRANCH   1   6
BRANCH   4  10
ATOM     10  C   UNL     1       7.324   1.150  -4.767  0.00  0.00    +0.000 C 
BRANCH  10  11
ATOM     11  C   UNL     1       6.484   0.346  -5.758  0.00  0.00    +0.000 C 
BRANCH  11  12
ATOM     12  C   UNL     1       7.341  -0.288  -6.826  0.00  0.00    +0.000 A 
ATOM     13  C   UNL     1       7.945  -1.534  -6.606  0.00  0.00    +0.000 A 
ATOM     14  C   UNL     1       8.756  -2.108  -7.586  0.00  0.00    +0.000 A 
ATOM     15  C   UNL     1       8.974  -1.442  -8.791  0.00  0.00    +0.000 A 
ATOM     16  C   UNL     1       8.382  -0.201  -9.017  0.00  0.00    +0.000 A 
ATOM     17  C   UNL     1       7.571   0.375  -8.038  0.00  0.00    +0.000 A 
ENDBRANCH  11  12
ENDBRANCH  10  11
ENDBRANCH   4  10
TORSDOF 6
