REMARK  Name = *****
REMARK  4 active torsions:
REMARK  status: ('A' for Active; 'I' for Inactive)
REMARK    1  A    between atoms: C_1  and  C_2
REMARK    2  A    between atoms: C_5  and  N_8
REMARK    3  A    between atoms: C_9  and  C_10
REMARK    4  A    between atoms: C_9  and  C_11
REMARK                            x       y       z     vdW  Elec       q    Type
REMARK                         _______ _______ _______ _____ _____    ______ ____
ROOT
ATOM      1  N   UNL     1      -3.210   0.115   0.321  0.00  0.00    +0.000 NA
ATOM      2  C   UNL     1      -3.896   1.117  -0.151  0.00  0.00    +0.000 C 
ATOM      3  C   UNL     1      -3.275   2.323  -0.833  0.00  0.00    +0.000 C 
ENDROOT
BRANCH   1   8
ATOM      4  C   UNL     1       2.492  -0.001   0.001  0.00  0.00    +0.000 C 
ATOM      5  C   UNL     1       0.995   0.058   0.066  0.00  0.00    +0.000 A 
ATOM      6  C   UNL     1       0.358   0.723   1.121  0.00  0.00    +0.000 A 
ATOM      7  C   UNL     1      -1.037   0.747   1.201  0.00  0.00    +0.000 A 
ATOM      8  C   UNL     1      -1.814   0.112   0.230  0.00  0.00    +0.000 A 
ATOM      9  C   UNL     1      -1.180  -0.583  -0.801  0.00  0.00    +0.000 A 
ATOM     10  C   UNL     1       0.215  -0.610  -0.885  0.00  0.00    +0.000 A 
ENDBRANCH   1   8
BRANCH   2  11
ATOM     11  C   UNL     1      -5.384   1.088  -0.001  0.00  0.00    +0.000 A 
ATOM     12  C   UNL     1      -6.135   2.266   0.087  0.00  0.00    +0.000 A 
ATOM     13  C   UNL     1      -7.524   2.202   0.232  0.00  0.00    +0.000 A 
ATOM     14  C   UNL     1      -8.166   0.966   0.295  0.00  0.00    +0.000 A 
ATOM     15  C   UNL     1      -7.422  -0.210   0.222  0.00  0.00    +0.000 A 
ATOM     16  C   UNL     1      -6.034  -0.151   0.079  0.00  0.00    +0.000 A 
ENDBRANCH   2  11
TORSDOF 2
