REMARK  Name = *****
REMARK  2 active torsions:
REMARK  status: ('A' for Active; 'I' for Inactive)
REMARK    1  A    between atoms: C_3  and  C_8
REMARK    2  A    between atoms: N_10  and  C_11
REMARK                            x       y       z     vdW  Elec       q    Type
REMARK                         _______ _______ _______ _____ _____    ______ ____
ROOT
ATOM      1  C   UNL     1       2.666   2.399  -0.185  0.00  0.00    +0.000 C 
ATOM      2  O   UNL     1       3.810   2.221  -0.582  0.00  0.00    +0.000 OA
ATOM      3  N   UNL     1       2.103   3.603   0.191  0.00  0.00    +0.000 N 
ATOM      4  H   UNL     1       1.186   3.560   0.546  0.00  0.00    +0.000 HD
ENDROOT
BRANCH   3   5
ATOM      5  C   UNL     1       2.687   4.893   0.126  0.00  0.00    +0.000 A 
ATOM      6  C   UNL     1       1.957   5.980   0.646  0.00  0.00    +0.000 A 
ATOM      7  C   UNL     1       2.472   7.279   0.610  0.00  0.00    +0.000 A 
ATOM      8  C   UNL     1       3.726   7.509   0.048  0.00  0.00    +0.000 A 
ATOM      9  C   UNL     1       4.454   6.441  -0.473  0.00  0.00    +0.000 A 
ATOM     10  C   UNL     1       3.943   5.140  -0.439  0.00  0.00    +0.000 A 
ATOM     11 CL   UNL     1       6.000   6.734  -1.171  0.00  0.00    +0.000 Cl
ATOM     12 CL   UNL     1       0.391   5.745   1.349  0.00  0.00    +0.000 Cl
ENDBRANCH   3   5
BRANCH   1  15
ATOM     13  C   UNL     1       1.558  -1.152   0.459  0.00  0.00    +0.000 A 
ATOM     14  C   UNL     1       2.354  -0.015   0.314  0.00  0.00    +0.000 A 
ATOM     15  C   UNL     1       1.776   1.213  -0.038  0.00  0.00    +0.000 A 
ATOM     16  C   UNL     1       0.398   1.291  -0.273  0.00  0.00    +0.000 A 
ATOM     17  C   UNL     1      -0.388   0.149  -0.127  0.00  0.00    +0.000 A 
ATOM     18  C   UNL     1       0.183  -1.069   0.242  0.00  0.00    +0.000 A 
ATOM     19 CL   UNL     1      -2.083   0.243  -0.412  0.00  0.00    +0.000 Cl
ENDBRANCH   1  15
TORSDOF 2
