REMARK  Name = *****
REMARK  2 active torsions:
REMARK  status: ('A' for Active; 'I' for Inactive)
REMARK    1  A    between atoms: C_8  and  C_10
REMARK    2  A    between atoms: C_10  and  C_11
REMARK                            x       y       z     vdW  Elec       q    Type
REMARK                         _______ _______ _______ _____ _____    ______ ____
ROOT
ATOM      1  C   UNL     1      -1.736   1.420  -0.341  0.00  0.00    +0.000 C 
ATOM      2  C   UNL     1      -0.316   1.004  -0.122  0.00  0.00    +0.000 A 
ATOM      3  C   UNL     1       0.758   1.892  -0.115  0.00  0.00    +0.000 A 
ATOM      4  C   UNL     1       2.047   1.406   0.106  0.00  0.00    +0.000 A 
ATOM      5  C   UNL     1       2.259   0.041   0.320  0.00  0.00    +0.000 A 
ATOM      6  C   UNL     1       1.184  -0.849   0.308  0.00  0.00    +0.000 A 
ATOM      7  C   UNL     1      -0.105  -0.368   0.077  0.00  0.00    +0.000 A 
ATOM      8  C   UNL     1      -1.342  -1.234   0.037  0.00  0.00    +0.000 C 
ATOM      9  S   UNL     1      -2.763  -0.059  -0.084  0.00  0.00    +0.000 S 
ENDROOT
BRANCH   8  10
ATOM     10  C   UNL     1      -1.318  -2.215  -1.150  0.00  0.00    +0.000 C 
BRANCH  10  11
ATOM     11  C   UNL     1      -2.403  -3.267  -1.101  0.00  0.00    +0.000 A 
ATOM     12  C   UNL     1      -3.529  -3.170  -1.929  0.00  0.00    +0.000 A 
ATOM     13  C   UNL     1      -4.531  -4.140  -1.879  0.00  0.00    +0.000 A 
ATOM     14  C   UNL     1      -4.417  -5.216  -1.000  0.00  0.00    +0.000 A 
ATOM     15  C   UNL     1      -3.303  -5.323  -0.171  0.00  0.00    +0.000 A 
ATOM     16  C   UNL     1      -2.299  -4.353  -0.220  0.00  0.00    +0.000 A 
ENDBRANCH  10  11
ENDBRANCH   8  10
TORSDOF 2
