REMARK  Name = *****
REMARK  3 active torsions:
REMARK  status: ('A' for Active; 'I' for Inactive)
REMARK    1  A    between atoms: C_5  and  N_7
REMARK    2  A    between atoms: N_7  and  C_8
REMARK    3  A    between atoms: C_8  and  C_9
REMARK                            x       y       z     vdW  Elec       q    Type
REMARK                         _______ _______ _______ _____ _____    ______ ____
ROOT
ATOM      1  C   UNL     1      -1.202  -3.874  -0.010  0.00  0.00    +0.000 A 
ATOM      2  C   UNL     1      -1.691  -4.686  -1.033  0.00  0.00    +0.000 A 
ATOM      3  C   UNL     1      -3.041  -5.021  -1.077  0.00  0.00    +0.000 A 
ATOM      4  C   UNL     1      -3.903  -4.563  -0.090  0.00  0.00    +0.000 A 
ATOM      5  C   UNL     1      -3.416  -3.781   0.949  0.00  0.00    +0.000 A 
ATOM      6  C   UNL     1      -2.067  -3.445   0.997  0.00  0.00    +0.000 A 
ATOM      7  F   UNL     1      -1.602  -2.737   2.035  0.00  0.00    +0.000 F 
ATOM      8  F   UNL     1      -4.243  -3.360   1.916  0.00  0.00    +0.000 F 
ATOM      9  F   UNL     1      -5.203  -4.888  -0.132  0.00  0.00    +0.000 F 
ATOM     10  F   UNL     1      -3.507  -5.790  -2.070  0.00  0.00    +0.000 F 
ATOM     11  F   UNL     1      -0.866  -5.140  -1.986  0.00  0.00    +0.000 F 
ENDROOT
BRANCH   1  12
ATOM     12  C   UNL     1       0.230  -3.573   0.009  0.00  0.00    +0.000 C 
BRANCH  12  13
ATOM     13  N   UNL     1       0.788  -2.388   0.112  0.00  0.00    +0.000 N 
ATOM     14  O   UNL     1       2.059  -2.309   0.185  0.00  0.00    +0.000 OA
BRANCH  13  19
ATOM     15  C   UNL     1      -0.545   0.901   1.258  0.00  0.00    +0.000 A 
ATOM     16  C   UNL     1      -1.392   1.235   0.198  0.00  0.00    +0.000 A 
ATOM     17  C   UNL     1      -1.521   0.375  -0.894  0.00  0.00    +0.000 A 
ATOM     18  C   UNL     1      -0.807  -0.818  -0.918  0.00  0.00    +0.000 A 
ATOM     19  C   UNL     1       0.017  -1.167   0.148  0.00  0.00    +0.000 A 
ATOM     20  C   UNL     1       0.170  -0.297   1.233  0.00  0.00    +0.000 A 
ATOM     21  F   UNL     1      -0.939  -1.630  -1.976  0.00  0.00    +0.000 F 
ENDBRANCH  13  19
ENDBRANCH  12  13
ENDBRANCH   1  12
TORSDOF 3
