REMARK  Name = *****
REMARK  3 active torsions:
REMARK  status: ('A' for Active; 'I' for Inactive)
REMARK    1  A    between atoms: C_4  and  C_7
REMARK    2  A    between atoms: C_8  and  C_9
REMARK    3  A    between atoms: C_10  and  C_16
REMARK                            x       y       z     vdW  Elec       q    Type
REMARK                         _______ _______ _______ _____ _____    ______ ____
ROOT
ATOM      1  C   UNL     1       5.545   0.321  -0.575  0.00  0.00    +0.000 A 
ATOM      2  C   UNL     1       6.216   1.549  -0.698  0.00  0.00    +0.000 A 
ATOM      3  C   UNL     1       7.599   1.576  -0.919  0.00  0.00    +0.000 A 
ATOM      4  C   UNL     1       8.301   0.382  -1.014  0.00  0.00    +0.000 A 
ATOM      5  C   UNL     1       7.653  -0.842  -0.889  0.00  0.00    +0.000 A 
ATOM      6  C   UNL     1       6.275  -0.873  -0.669  0.00  0.00    +0.000 A 
ATOM      7  F   UNL     1       9.622   0.407  -1.231  0.00  0.00    +0.000 F 
ENDROOT
BRANCH   1   9
ATOM      8  C   UNL     1       2.937   0.160  -0.242  0.00  0.00    +0.000 C 
ATOM      9  C   UNL     1       4.129   0.233  -0.377  0.00  0.00    +0.000 C 
BRANCH   8  13
ATOM     10  C   UNL     1      -1.267  -0.064   0.087  0.00  0.00    +0.000 A 
ATOM     11  C   UNL     1      -0.637   1.179   0.035  0.00  0.00    +0.000 A 
ATOM     12  C   UNL     1       0.754   1.254  -0.066  0.00  0.00    +0.000 A 
ATOM     13  C   UNL     1       1.515   0.083  -0.114  0.00  0.00    +0.000 A 
ATOM     14  C   UNL     1       0.883  -1.161  -0.058  0.00  0.00    +0.000 A 
ATOM     15  C   UNL     1      -0.508  -1.234   0.042  0.00  0.00    +0.000 A 
ENDBRANCH   8  13
ENDBRANCH   1   9
BRANCH   2  16
ATOM     16  C   UNL     1       5.496   2.839  -0.601  0.00  0.00    +0.000 C 
ATOM     17  O   UNL     1       6.077   3.912  -0.722  0.00  0.00    +0.000 OA
ENDBRANCH   2  16
TORSDOF 3
