REMARK  Name = *****
REMARK  3 active torsions:
REMARK  status: ('A' for Active; 'I' for Inactive)
REMARK    1  A    between atoms: C_3  and  C_6
REMARK    2  A    between atoms: C_6  and  C_7
REMARK    3  A    between atoms: C_7  and  C_8
REMARK                            x       y       z     vdW  Elec       q    Type
REMARK                         _______ _______ _______ _____ _____    ______ ____
ROOT
ATOM      1  C   UNL     1      -2.524  -2.344   0.874  0.00  0.00    +0.000 C 
ATOM      2 CL   UNL     1      -3.551  -2.595  -0.573  0.00  0.00    +0.000 Cl
ENDROOT
BRANCH   1   3
ATOM      3  C   UNL     1      -3.266  -2.826   2.107  0.00  0.00    +0.000 A 
ATOM      4  C   UNL     1      -4.435  -2.193   2.561  0.00  0.00    +0.000 A 
ATOM      5  C   UNL     1      -5.096  -2.650   3.703  0.00  0.00    +0.000 A 
ATOM      6  C   UNL     1      -4.601  -3.745   4.406  0.00  0.00    +0.000 A 
ATOM      7  C   UNL     1      -3.445  -4.386   3.967  0.00  0.00    +0.000 A 
ATOM      8  C   UNL     1      -2.782  -3.931   2.825  0.00  0.00    +0.000 A 
ENDBRANCH   1   3
BRANCH   1   9
ATOM      9  C   UNL     1      -2.075  -0.877   0.993  0.00  0.00    +0.000 C 
BRANCH   9  12
ATOM     10  C   UNL     1       1.213  -0.137  -0.665  0.00  0.00    +0.000 C 
ATOM     11  C   UNL     1       0.165  -1.163  -0.233  0.00  0.00    +0.000 C 
ATOM     12  C   UNL     1      -1.170  -0.403  -0.152  0.00  0.00    +0.000 C 
ATOM     13  C   UNL     1      -0.707   1.014   0.030  0.00  0.00    +0.000 C 
ATOM     14  C   UNL     1       0.592   1.155  -0.253  0.00  0.00    +0.000 C 
ENDBRANCH   9  12
ENDBRANCH   1   9
TORSDOF 3
