REMARK  Name = *****
REMARK  3 active torsions:
REMARK  status: ('A' for Active; 'I' for Inactive)
REMARK    1  A    between atoms: C_3  and  C_8
REMARK    2  A    between atoms: C_8  and  O_9
REMARK    3  A    between atoms: O_9  and  C_10
REMARK                            x       y       z     vdW  Elec       q    Type
REMARK                         _______ _______ _______ _____ _____    ______ ____
ROOT
ATOM      1  C   UNL     1       2.416   2.583  -0.039  0.00  0.00    +0.000 C 
ENDROOT
BRANCH   1   4
ATOM      2  C   UNL     1       0.016  -0.229  -0.986  0.00  0.00    +0.000 A 
ATOM      3  C   UNL     1       0.708   0.983  -0.997  0.00  0.00    +0.000 A 
ATOM      4  C   UNL     1       1.670   1.269  -0.015  0.00  0.00    +0.000 A 
ATOM      5  C   UNL     1       1.930   0.312   0.977  0.00  0.00    +0.000 A 
ATOM      6  C   UNL     1       1.237  -0.899   0.982  0.00  0.00    +0.000 A 
ATOM      7  C   UNL     1       0.281  -1.173   0.006  0.00  0.00    +0.000 A 
ATOM      8 CL   UNL     1       1.565  -2.065   2.205  0.00  0.00    +0.000 Cl
ENDBRANCH   1   4
BRANCH   1   9
ATOM      9  O   UNL     1       1.460   3.636   0.086  0.00  0.00    +0.000 OA
BRANCH   9  10
ATOM     10  C   UNL     1       2.021   4.892  -0.004  0.00  0.00    +0.000 A 
ATOM     11  N   UNL     1       3.359   5.025  -0.133  0.00  0.00    +0.000 NA
ATOM     12  C   UNL     1       3.843   6.283  -0.220  0.00  0.00    +0.000 A 
ATOM     13  C   UNL     1       3.049   7.414  -0.187  0.00  0.00    +0.000 A 
ATOM     14  C   UNL     1       1.679   7.233  -0.051  0.00  0.00    +0.000 A 
ATOM     15  C   UNL     1       1.143   5.957   0.045  0.00  0.00    +0.000 A 
ATOM     16 CL   UNL     1       0.639   8.602  -0.006  0.00  0.00    +0.000 Cl
ENDBRANCH   9  10
ENDBRANCH   1   9
TORSDOF 3
