REMARK  Name = *****
REMARK  3 active torsions:
REMARK  status: ('A' for Active; 'I' for Inactive)
REMARK    1  A    between atoms: C_4  and  C_6
REMARK    2  A    between atoms: C_6  and  O_7
REMARK    3  A    between atoms: O_7  and  C_8
REMARK                            x       y       z     vdW  Elec       q    Type
REMARK                         _______ _______ _______ _____ _____    ______ ____
ROOT
ATOM      1  O   UNL     1       0.874  -3.621  -0.597  0.00  0.00    +0.000 OA
ENDROOT
BRANCH   1   2
ATOM      2  C   UNL     1       0.735  -4.935  -0.248  0.00  0.00    +0.000 A 
ATOM      3  C   UNL     1       1.784  -5.761  -0.665  0.00  0.00    +0.000 A 
ATOM      4  C   UNL     1       1.772  -7.128  -0.379  0.00  0.00    +0.000 A 
ATOM      5  C   UNL     1       0.705  -7.672   0.330  0.00  0.00    +0.000 A 
ATOM      6  C   UNL     1      -0.345  -6.859   0.753  0.00  0.00    +0.000 A 
ATOM      7  C   UNL     1      -0.331  -5.490   0.465  0.00  0.00    +0.000 A 
ATOM      8 CL   UNL     1       0.681  -9.355   0.686  0.00  0.00    +0.000 Cl
ENDBRANCH   1   2
BRANCH   1   9
ATOM      9  C   UNL     1      -0.183  -2.734  -0.229  0.00  0.00    +0.000 C 
BRANCH   9  13
ATOM     10  C   UNL     1       1.095   0.406  -1.949  0.00  0.00    +0.000 A 
ATOM     11  C   UNL     1       0.199   1.070  -1.142  0.00  0.00    +0.000 A 
ATOM     12  S   UNL     1      -0.663   0.000  -0.125  0.00  0.00    +0.000 S 
ATOM     13  C   UNL     1       0.163  -1.369  -0.752  0.00  0.00    +0.000 A 
ATOM     14  C   UNL     1       1.071  -1.001  -1.727  0.00  0.00    +0.000 A 
ENDBRANCH   9  13
ENDBRANCH   1   9
TORSDOF 3
