REMARK  Name = *****
REMARK  3 active torsions:
REMARK  status: ('A' for Active; 'I' for Inactive)
REMARK    1  A    between atoms: C_1  and  C_2
REMARK    2  A    between atoms: C_5  and  C_8
REMARK    3  A    between atoms: N_9  and  C_10
REMARK                            x       y       z     vdW  Elec       q    Type
REMARK                         _______ _______ _______ _____ _____    ______ ____
ROOT
ATOM      1  C   UNL     1      -3.320   0.206  -0.223  0.00  0.00    +0.000 C 
ATOM      2  N   UNL     1      -3.994   1.212   0.240  0.00  0.00    +0.000 NA
ENDROOT
BRANCH   1   7
ATOM      3  C   UNL     1       2.442  -0.092   0.070  0.00  0.00    +0.000 C 
ATOM      4  C   UNL     1       0.948   0.003  -0.030  0.00  0.00    +0.000 A 
ATOM      5  C   UNL     1       0.275   1.119   0.484  0.00  0.00    +0.000 A 
ATOM      6  C   UNL     1      -1.118   1.196   0.423  0.00  0.00    +0.000 A 
ATOM      7  C   UNL     1      -1.847   0.149  -0.146  0.00  0.00    +0.000 A 
ATOM      8  C   UNL     1      -1.188  -0.975  -0.649  0.00  0.00    +0.000 A 
ATOM      9  C   UNL     1       0.205  -1.048  -0.585  0.00  0.00    +0.000 A 
ENDBRANCH   1   7
BRANCH   2  10
ATOM     10  C   UNL     1      -5.385   1.133   0.101  0.00  0.00    +0.000 A 
ATOM     11  C   UNL     1      -6.159   0.479   1.066  0.00  0.00    +0.000 A 
ATOM     12  C   UNL     1      -7.547   0.417   0.933  0.00  0.00    +0.000 A 
ATOM     13  C   UNL     1      -8.155   1.020  -0.162  0.00  0.00    +0.000 A 
ATOM     14  C   UNL     1      -7.403   1.688  -1.122  0.00  0.00    +0.000 A 
ATOM     15  C   UNL     1      -6.015   1.748  -0.986  0.00  0.00    +0.000 A 
ATOM     16  F   UNL     1      -9.487   0.962  -0.291  0.00  0.00    +0.000 F 
ENDBRANCH   2  10
TORSDOF 2
