REMARK  Name = *****
REMARK  2 active torsions:
REMARK  status: ('A' for Active; 'I' for Inactive)
REMARK    1  A    between atoms: C_3  and  C_6
REMARK    2  A    between atoms: C_7  and  C_8
REMARK                            x       y       z     vdW  Elec       q    Type
REMARK                         _______ _______ _______ _____ _____    ______ ____
ROOT
ATOM      1  C   UNL     1       0.525  -4.438  -1.961  0.00  0.00    +0.000 A 
ATOM      2  C   UNL     1       0.389  -5.790  -1.615  0.00  0.00    +0.000 A 
ATOM      3  C   UNL     1       0.780  -6.798  -2.505  0.00  0.00    +0.000 A 
ATOM      4  C   UNL     1       1.300  -6.460  -3.758  0.00  0.00    +0.000 A 
ATOM      5  C   UNL     1       1.421  -5.116  -4.116  0.00  0.00    +0.000 A 
ATOM      6  C   UNL     1       1.031  -4.112  -3.225  0.00  0.00    +0.000 A 
ATOM      7 CL   UNL     1       1.801  -7.648  -4.907  0.00  0.00    +0.000 Cl
ATOM      8 CL   UNL     1       0.590  -8.438  -1.993  0.00  0.00    +0.000 Cl
ENDROOT
BRANCH   1  10
ATOM      9  C   UNL     1       0.680  -2.229  -0.825  0.00  0.00    +0.000 C 
ATOM     10  C   UNL     1       0.076  -3.416  -1.007  0.00  0.00    +0.000 C 
BRANCH   9  13
ATOM     11  C   UNL     1       0.495  -0.372   2.352  0.00  0.00    +0.000 C 
ATOM     12  C   UNL     1       1.321  -0.855   1.186  0.00  0.00    +0.000 C 
ATOM     13  C   UNL     1       0.249  -1.170   0.151  0.00  0.00    +0.000 C 
ATOM     14  O   UNL     1      -0.924  -1.562   0.885  0.00  0.00    +0.000 OA
ATOM     15  C   UNL     1      -0.705  -1.289   2.275  0.00  0.00    +0.000 C 
ENDBRANCH   9  13
ENDBRANCH   1  10
TORSDOF 2
