REMARK  Name = *****
REMARK  3 active torsions:
REMARK  status: ('A' for Active; 'I' for Inactive)
REMARK    1  A    between atoms: C_4  and  C_7
REMARK    2  A    between atoms: C_8  and  C_9
REMARK    3  A    between atoms: C_12  and  C_15
REMARK                            x       y       z     vdW  Elec       q    Type
REMARK                         _______ _______ _______ _____ _____    ______ ____
ROOT
ATOM      1  C   UNL     1      -0.839  -2.883  -0.048  0.00  0.00    +0.000 C 
ATOM      2  C   UNL     1      -1.166  -4.039  -0.076  0.00  0.00    +0.000 C 
ENDROOT
BRANCH   1   6
ATOM      3  C   UNL     1       0.342   1.232   0.367  0.00  0.00    +0.000 C 
ATOM      4  C   UNL     1       1.345   0.273  -0.265  0.00  0.00    +0.000 C 
ATOM      5  C   UNL     1       1.023  -1.179   0.099  0.00  0.00    +0.000 C 
ATOM      6  C   UNL     1      -0.444  -1.513  -0.018  0.00  0.00    +0.000 C 
ATOM      7  C   UNL     1      -1.385  -0.557  -0.113  0.00  0.00    +0.000 C 
ATOM      8  C   UNL     1      -1.085   0.913  -0.082  0.00  0.00    +0.000 C 
ENDBRANCH   1   6
BRANCH   2   9
ATOM      9  C   UNL     1      -1.555  -5.415  -0.114  0.00  0.00    +0.000 A 
ATOM     10  C   UNL     1      -0.668  -6.404   0.317  0.00  0.00    +0.000 A 
ATOM     11  C   UNL     1      -1.046  -7.750   0.277  0.00  0.00    +0.000 A 
ATOM     12  C   UNL     1      -2.314  -8.109  -0.194  0.00  0.00    +0.000 A 
ATOM     13  C   UNL     1      -3.201  -7.116  -0.625  0.00  0.00    +0.000 A 
ATOM     14  C   UNL     1      -2.821  -5.771  -0.585  0.00  0.00    +0.000 A 
BRANCH  12  15
ATOM     15  C   UNL     1      -2.703  -9.488  -0.236  0.00  0.00    +0.000 C 
ATOM     16  N   UNL     1      -3.017 -10.605  -0.271  0.00  0.00    +0.000 NA
ENDBRANCH  12  15
ENDBRANCH   2   9
TORSDOF 3
