REMARK  Name = *****
REMARK  4 active torsions:
REMARK  status: ('A' for Active; 'I' for Inactive)
REMARK    1  A    between atoms: C_1  and  O_2
REMARK    2  A    between atoms: O_2  and  N_3
REMARK    3  A    between atoms: C_9  and  C_10
REMARK    4  A    between atoms: C_11  and  C_12
REMARK                            x       y       z     vdW  Elec       q    Type
REMARK                         _______ _______ _______ _____ _____    ______ ____
ROOT
ATOM      1  N   UNL     1       2.982  -0.922   0.798  0.00  0.00    +0.000 NA
ATOM      2  C   UNL     1       4.254  -0.665   0.769  0.00  0.00    +0.000 C 
ATOM      3  C   UNL     1       5.072  -1.382   1.839  0.00  0.00    +0.000 C 
ATOM      4  C   UNL     1       6.355  -1.929   1.238  0.00  0.00    +0.000 C 
ATOM      5  C   UNL     1       7.192  -0.803   0.646  0.00  0.00    +0.000 C 
ATOM      6  C   UNL     1       6.376   0.170  -0.150  0.00  0.00    +0.000 C 
ATOM      7  C   UNL     1       5.033   0.256  -0.147  0.00  0.00    +0.000 C 
ENDROOT
BRANCH   1   9
ATOM      8  C   UNL     1       0.887  -0.564  -0.051  0.00  0.00    +0.000 C 
ATOM      9  O   UNL     1       2.269  -0.278  -0.216  0.00  0.00    +0.000 OA
ENDBRANCH   1   9
BRANCH   7  10
ATOM     10  C   UNL     1       4.409   1.242  -0.965  0.00  0.00    +0.000 C 
ATOM     11  C   UNL     1       3.892   2.074  -1.661  0.00  0.00    +0.000 C 
BRANCH  11  12
ATOM     12  C   UNL     1       3.263   3.050  -2.495  0.00  0.00    +0.000 A 
ATOM     13  C   UNL     1       2.412   2.642  -3.525  0.00  0.00    +0.000 A 
ATOM     14  C   UNL     1       1.797   3.594  -4.341  0.00  0.00    +0.000 A 
ATOM     15  C   UNL     1       2.032   4.952  -4.128  0.00  0.00    +0.000 A 
ATOM     16  C   UNL     1       2.880   5.361  -3.099  0.00  0.00    +0.000 A 
ATOM     17  C   UNL     1       3.496   4.411  -2.282  0.00  0.00    +0.000 A 
ENDBRANCH  11  12
ENDBRANCH   7  10
TORSDOF 3
