REMARK  Name = *****
REMARK  4 active torsions:
REMARK  status: ('A' for Active; 'I' for Inactive)
REMARK    1  A    between atoms: C_4  and  C_17
REMARK    2  A    between atoms: C_5  and  C_7
REMARK    3  A    between atoms: C_7  and  O_9
REMARK    4  A    between atoms: O_9  and  C_10
REMARK                            x       y       z     vdW  Elec       q    Type
REMARK                         _______ _______ _______ _____ _____    ______ ____
ROOT
ATOM      1  C   UNL     1       1.188  -0.162   0.696  0.00  0.00    +0.000 A 
ATOM      2  C   UNL     1       0.476  -1.283   0.281  0.00  0.00    +0.000 A 
ATOM      3  C   UNL     1      -0.818  -1.143  -0.225  0.00  0.00    +0.000 A 
ATOM      4  C   UNL     1      -1.425   0.124  -0.324  0.00  0.00    +0.000 A 
ATOM      5  C   UNL     1      -0.708   1.246   0.132  0.00  0.00    +0.000 A 
ATOM      6  C   UNL     1       0.601   1.100   0.620  0.00  0.00    +0.000 A 
ENDROOT
BRANCH   4   7
ATOM      7  C   UNL     1      -2.806   0.238  -0.915  0.00  0.00    +0.000 C 
ATOM      8  F   UNL     1      -3.135  -0.827  -1.701  0.00  0.00    +0.000 F 
ATOM      9  F   UNL     1      -3.779   0.303   0.033  0.00  0.00    +0.000 F 
ATOM     10  F   UNL     1      -2.965   1.331  -1.709  0.00  0.00    +0.000 F 
ENDBRANCH   4   7
BRANCH   5  11
ATOM     11  C   UNL     1      -1.249   2.625   0.108  0.00  0.00    +0.000 C 
ATOM     12  O   UNL     1      -0.606   3.585  -0.283  0.00  0.00    +0.000 OA
BRANCH  11  13
ATOM     13  O   UNL     1      -2.493   2.611   0.702  0.00  0.00    +0.000 OA
BRANCH  13  14
ATOM     14  C   UNL     1      -3.102   3.867   0.757  0.00  0.00    +0.000 A 
ATOM     15  C   UNL     1      -3.613   4.455  -0.398  0.00  0.00    +0.000 A 
ATOM     16  C   UNL     1      -4.259   5.680  -0.288  0.00  0.00    +0.000 A 
ATOM     17  C   UNL     1      -4.412   6.306   0.947  0.00  0.00    +0.000 A 
ATOM     18  C   UNL     1      -3.914   5.696   2.100  0.00  0.00    +0.000 A 
ATOM     19  C   UNL     1      -3.262   4.466   2.007  0.00  0.00    +0.000 A 
ATOM     20  F   UNL     1      -4.752   6.267  -1.387  0.00  0.00    +0.000 F 
ENDBRANCH  13  14
ENDBRANCH  11  13
ENDBRANCH   5  11
TORSDOF 4
