REMARK  Name = *****
REMARK  3 active torsions:
REMARK  status: ('A' for Active; 'I' for Inactive)
REMARK    1  A    between atoms: C_1  and  C_2
REMARK    2  A    between atoms: C_2  and  C_10
REMARK    3  A    between atoms: N_3  and  C_4
REMARK                            x       y       z     vdW  Elec       q    Type
REMARK                         _______ _______ _______ _____ _____    ______ ____
ROOT
ATOM      1  C   UNL     1       0.971   0.295  -0.111  0.00  0.00    +0.000 C 
ATOM      2  C   UNL     1       2.466   0.128   0.050  0.00  0.00    +0.000 C 
ATOM      3  N   UNL     1       3.121   0.426   1.122  0.00  0.00    +0.000 NA
ENDROOT
BRANCH   3   4
ATOM      4  C   UNL     1       2.447   0.948   2.309  0.00  0.00    +0.000 C 
ATOM      5  C   UNL     1       3.374   1.987   2.952  0.00  0.00    +0.000 C 
ATOM      6  C   UNL     1       2.818   2.489   4.282  0.00  0.00    +0.000 C 
ATOM      7  C   UNL     1       2.533   1.338   5.242  0.00  0.00    +0.000 C 
ATOM      8  C   UNL     1       1.623   0.288   4.609  0.00  0.00    +0.000 C 
ATOM      9  C   UNL     1       2.181  -0.210   3.278  0.00  0.00    +0.000 C 
ENDBRANCH   3   4
BRANCH   2  10
ATOM     10  C   UNL     1       3.217  -0.411  -1.127  0.00  0.00    +0.000 C 
ATOM     11  C   UNL     1       4.325   0.241  -1.523  0.00  0.00    +0.000 C 
ATOM     12  C   UNL     1       5.182  -0.221  -2.665  0.00  0.00    +0.000 C 
ATOM     13  C   UNL     1       4.534  -1.326  -3.503  0.00  0.00    +0.000 C 
ATOM     14  C   UNL     1       3.820  -2.349  -2.622  0.00  0.00    +0.000 C 
ATOM     15  C   UNL     1       2.737  -1.680  -1.769  0.00  0.00    +0.000 C 
ENDBRANCH   2  10
TORSDOF 2
