REMARK  Name = *****
REMARK  2 active torsions:
REMARK  status: ('A' for Active; 'I' for Inactive)
REMARK    1  A    between atoms: N_5  and  C_6
REMARK    2  A    between atoms: C_6  and  C_7
REMARK                            x       y       z     vdW  Elec       q    Type
REMARK                         _______ _______ _______ _____ _____    ______ ____
ROOT
ATOM      1  C   UNL     1      -0.427  -3.119   0.122  0.00  0.00    +0.000 C 
ENDROOT
BRANCH   1   6
ATOM      2  C   UNL     1       0.241   1.802   0.030  0.00  0.00    +0.000 C 
ATOM      3  C   UNL     1      -1.077   1.436  -0.618  0.00  0.00    +0.000 C 
ATOM      4  S   UNL     1      -1.477  -0.254  -0.106  0.00  0.00    +0.000 S 
ATOM      5  C   UNL     1       0.171  -0.839  -0.106  0.00  0.00    +0.000 C 
ATOM      6  N   UNL     1       0.566  -2.053  -0.009  0.00  0.00    +0.000 NA
ATOM      7  S   UNL     1       1.377   0.424  -0.254  0.00  0.00    +0.000 S 
ENDBRANCH   1   6
BRANCH   1   8
ATOM      8  C   UNL     1       0.202  -4.492   0.236  0.00  0.00    +0.000 A 
ATOM      9  C   UNL     1       1.456  -4.678   0.835  0.00  0.00    +0.000 A 
ATOM     10  C   UNL     1       2.000  -5.957   0.970  0.00  0.00    +0.000 A 
ATOM     11  C   UNL     1       1.291  -7.068   0.519  0.00  0.00    +0.000 A 
ATOM     12  C   UNL     1       0.036  -6.901  -0.064  0.00  0.00    +0.000 A 
ATOM     13  C   UNL     1      -0.507  -5.622  -0.200  0.00  0.00    +0.000 A 
ENDBRANCH   1   8
TORSDOF 2
