REMARK  Name = *****
REMARK  3 active torsions:
REMARK  status: ('A' for Active; 'I' for Inactive)
REMARK    1  A    between atoms: C_4  and  C_7
REMARK    2  A    between atoms: C_7  and  N_8
REMARK    3  A    between atoms: C_9  and  C_10
REMARK                            x       y       z     vdW  Elec       q    Type
REMARK                         _______ _______ _______ _____ _____    ______ ____
ROOT
ATOM      1  N   UNL     1      -3.529  -0.695  -0.849  0.00  0.00    +0.000 NA
ATOM      2  C   UNL     1      -4.814  -0.656  -0.890  0.00  0.00    +0.000 C 
ATOM      3 CL   UNL     1      -5.571  -2.172  -1.261  0.00  0.00    +0.000 Cl
ENDROOT
BRANCH   2   4
ATOM      4  C   UNL     1      -5.668   0.528  -0.657  0.00  0.00    +0.000 A 
ATOM      5  C   UNL     1      -5.594   1.622  -1.521  0.00  0.00    +0.000 A 
ATOM      6  C   UNL     1      -6.419   2.715  -1.290  0.00  0.00    +0.000 A 
ATOM      7  C   UNL     1      -7.315   2.730  -0.224  0.00  0.00    +0.000 A 
ATOM      8  C   UNL     1      -7.395   1.629   0.629  0.00  0.00    +0.000 A 
ATOM      9  C   UNL     1      -6.573   0.522   0.412  0.00  0.00    +0.000 A 
ATOM     10  F   UNL     1      -6.354   3.772  -2.109  0.00  0.00    +0.000 F 
ENDBRANCH   2   4
BRANCH   1  11
ATOM     11  C   UNL     1      -2.766   0.495  -0.472  0.00  0.00    +0.000 C 
BRANCH  11  15
ATOM     12  C   UNL     1       1.338  -0.334   0.607  0.00  0.00    +0.000 A 
ATOM     13  C   UNL     1       0.679  -1.164  -0.297  0.00  0.00    +0.000 A 
ATOM     14  C   UNL     1      -0.649  -0.909  -0.642  0.00  0.00    +0.000 A 
ATOM     15  C   UNL     1      -1.340   0.173  -0.078  0.00  0.00    +0.000 A 
ATOM     16  C   UNL     1      -0.659   1.010   0.820  0.00  0.00    +0.000 A 
ATOM     17  C   UNL     1       0.670   0.754   1.164  0.00  0.00    +0.000 A 
ENDBRANCH  11  15
ENDBRANCH   1  11
TORSDOF 3
