REMARK  Name = *****
REMARK  4 active torsions:
REMARK  status: ('A' for Active; 'I' for Inactive)
REMARK    1  A    between atoms: C_4  and  C_7
REMARK    2  A    between atoms: C_7  and  C_8
REMARK    3  A    between atoms: C_8  and  O_10
REMARK    4  A    between atoms: O_10  and  C_11
REMARK                            x       y       z     vdW  Elec       q    Type
REMARK                         _______ _______ _______ _____ _____    ______ ____
ROOT
ATOM      1  C   UNL     1      -3.770  -0.187  -0.316  0.00  0.00    +0.000 C 
ATOM      2  O   UNL     1      -3.556  -1.241  -0.898  0.00  0.00    +0.000 OA
ENDROOT
BRANCH   1   3
ATOM      3  C   UNL     1      -2.730   0.800   0.174  0.00  0.00    +0.000 C 
BRANCH   3   7
ATOM      4  C   UNL     1       1.311  -0.711   0.099  0.00  0.00    +0.000 A 
ATOM      5  C   UNL     1       0.722  -0.234  -1.071  0.00  0.00    +0.000 A 
ATOM      6  C   UNL     1      -0.584   0.256  -1.047  0.00  0.00    +0.000 A 
ATOM      7  C   UNL     1      -1.315   0.275   0.150  0.00  0.00    +0.000 A 
ATOM      8  C   UNL     1      -0.716  -0.214   1.319  0.00  0.00    +0.000 A 
ATOM      9  C   UNL     1       0.592  -0.702   1.292  0.00  0.00    +0.000 A 
ENDBRANCH   3   7
ENDBRANCH   1   3
BRANCH   1  10
ATOM     10  O   UNL     1      -5.028   0.344  -0.021  0.00  0.00    +0.000 OA
BRANCH  10  11
ATOM     11  C   UNL     1      -6.084  -0.472  -0.431  0.00  0.00    +0.000 A 
ATOM     12  C   UNL     1      -6.512  -1.510   0.392  0.00  0.00    +0.000 A 
ATOM     13  C   UNL     1      -7.597  -2.275  -0.018  0.00  0.00    +0.000 A 
ATOM     14  C   UNL     1      -8.257  -2.007  -1.216  0.00  0.00    +0.000 A 
ATOM     15  C   UNL     1      -7.828  -0.951  -2.022  0.00  0.00    +0.000 A 
ATOM     16  C   UNL     1      -6.740  -0.172  -1.626  0.00  0.00    +0.000 A 
ATOM     17  F   UNL     1      -8.023  -3.282   0.755  0.00  0.00    +0.000 F 
ENDBRANCH  10  11
ENDBRANCH   1  10
TORSDOF 4
