REMARK  Name = *****
REMARK  3 active torsions:
REMARK  status: ('A' for Active; 'I' for Inactive)
REMARK    1  A    between atoms: C_4  and  C_6
REMARK    2  A    between atoms: C_6  and  O_8
REMARK    3  A    between atoms: O_8  and  C_9
REMARK                            x       y       z     vdW  Elec       q    Type
REMARK                         _______ _______ _______ _____ _____    ______ ____
ROOT
ATOM      1  O   UNL     1       0.883  -3.735  -0.746  0.00  0.00    +0.000 OA
ENDROOT
BRANCH   1   2
ATOM      2  C   UNL     1       0.545  -5.054  -0.423  0.00  0.00    +0.000 A 
ATOM      3  C   UNL     1      -0.314  -5.790  -1.242  0.00  0.00    +0.000 A 
ATOM      4  C   UNL     1      -0.585  -7.119  -0.921  0.00  0.00    +0.000 A 
ATOM      5  C   UNL     1       0.018  -7.693   0.196  0.00  0.00    +0.000 A 
ATOM      6  C   UNL     1       0.891  -6.963   0.999  0.00  0.00    +0.000 A 
ATOM      7  C   UNL     1       1.165  -5.633   0.685  0.00  0.00    +0.000 A 
ATOM      8  F   UNL     1      -0.241  -8.971   0.499  0.00  0.00    +0.000 F 
ENDBRANCH   1   2
BRANCH   1   9
ATOM      9  C   UNL     1      -0.150  -2.805  -0.616  0.00  0.00    +0.000 C 
ATOM     10  O   UNL     1      -1.286  -3.066  -0.235  0.00  0.00    +0.000 OA
BRANCH   9  14
ATOM     11  C   UNL     1       1.692   0.280  -1.718  0.00  0.00    +0.000 A 
ATOM     12  C   UNL     1       0.496   0.923  -1.503  0.00  0.00    +0.000 A 
ATOM     13  S   UNL     1      -0.719  -0.148  -0.957  0.00  0.00    +0.000 S 
ATOM     14  C   UNL     1       0.345  -1.494  -1.003  0.00  0.00    +0.000 A 
ATOM     15  C   UNL     1       1.606  -1.114  -1.431  0.00  0.00    +0.000 A 
ENDBRANCH   9  14
ENDBRANCH   1   9
TORSDOF 3
