REMARK  Name = *****
REMARK  3 active torsions:
REMARK  status: ('A' for Active; 'I' for Inactive)
REMARK    1  A    between atoms: C_1  and  C_2
REMARK    2  A    between atoms: C_5  and  C_7
REMARK    3  A    between atoms: N_8  and  C_9
REMARK                            x       y       z     vdW  Elec       q    Type
REMARK                         _______ _______ _______ _____ _____    ______ ____
ROOT
ATOM      1  C   UNL     1      -3.055   0.513   0.116  0.00  0.00    +0.000 C 
ATOM      2  N   UNL     1      -4.058  -0.127  -0.399  0.00  0.00    +0.000 NA
ENDROOT
BRANCH   1   7
ATOM      3  C   UNL     1       2.171  -0.118   0.500  0.00  0.00    +0.000 C 
ATOM      4  C   UNL     1       0.727  -0.309   0.188  0.00  0.00    +0.000 A 
ATOM      5  C   UNL     1       0.124  -1.349  -0.487  0.00  0.00    +0.000 A 
ATOM      6  C   UNL     1      -1.287  -1.178  -0.591  0.00  0.00    +0.000 A 
ATOM      7  C   UNL     1      -1.716  -0.012   0.009  0.00  0.00    +0.000 A 
ATOM      8  S   UNL     1      -0.417   0.862   0.690  0.00  0.00    +0.000 S 
ENDBRANCH   1   7
BRANCH   2   9
ATOM      9  C   UNL     1      -5.311   0.479  -0.234  0.00  0.00    +0.000 A 
ATOM     10  C   UNL     1      -5.780   1.402  -1.173  0.00  0.00    +0.000 A 
ATOM     11  C   UNL     1      -7.032   1.998  -1.013  0.00  0.00    +0.000 A 
ATOM     12  C   UNL     1      -7.827   1.665   0.083  0.00  0.00    +0.000 A 
ATOM     13  C   UNL     1      -7.373   0.731   1.014  0.00  0.00    +0.000 A 
ATOM     14  C   UNL     1      -6.121   0.137   0.852  0.00  0.00    +0.000 A 
ENDBRANCH   2   9
TORSDOF 2
