REMARK  Name = *****
REMARK  2 active torsions:
REMARK  status: ('A' for Active; 'I' for Inactive)
REMARK    1  A    between atoms: C_4  and  C_7
REMARK    2  A    between atoms: C_10  and  C_12
REMARK                            x       y       z     vdW  Elec       q    Type
REMARK                         _______ _______ _______ _____ _____    ______ ____
ROOT
ATOM      1  C   UNL     1       2.825  -0.619  -0.301  0.00  0.00    +0.000 A 
ATOM      2  N   UNL     1       3.253  -0.769  -1.535  0.00  0.00    +0.000 NA
ATOM      3  N   UNL     1       4.605  -1.028  -1.444  0.00  0.00    +0.000 NA
ATOM      4  C   UNL     1       4.919  -1.019  -0.160  0.00  0.00    +0.000 A 
ATOM      5  O   UNL     1       3.818  -0.762   0.627  0.00  0.00    +0.000 OA
ENDROOT
BRANCH   1   9
ATOM      6  C   UNL     1      -1.399   0.318  -0.231  0.00  0.00    +0.000 C 
ATOM      7  C   UNL     1      -0.959  -1.074   0.213  0.00  0.00    +0.000 C 
ATOM      8  C   UNL     1       0.460  -1.392  -0.253  0.00  0.00    +0.000 C 
ATOM      9  C   UNL     1       1.458  -0.319   0.205  0.00  0.00    +0.000 C 
ATOM     10  C   UNL     1       1.009   1.078  -0.247  0.00  0.00    +0.000 C 
ATOM     11  C   UNL     1      -0.411   1.390   0.218  0.00  0.00    +0.000 C 
ENDBRANCH   1   9
BRANCH   4  12
ATOM     12  C   UNL     1       6.243  -1.246   0.343  0.00  0.00    +0.000 A 
ATOM     13  C   UNL     1       7.382  -1.502  -0.398  0.00  0.00    +0.000 A 
ATOM     14  C   UNL     1       8.538  -1.680   0.418  0.00  0.00    +0.000 A 
ATOM     15  C   UNL     1       8.244  -1.555   1.757  0.00  0.00    +0.000 A 
ATOM     16  S   UNL     1       6.586  -1.226   2.022  0.00  0.00    +0.000 S 
ENDBRANCH   4  12
TORSDOF 2
