REMARK  Name = *****
REMARK  2 active torsions:
REMARK  status: ('A' for Active; 'I' for Inactive)
REMARK    1  A    between atoms: C_9  and  S_11
REMARK    2  A    between atoms: S_11  and  C_12
REMARK                            x       y       z     vdW  Elec       q    Type
REMARK                         _______ _______ _______ _____ _____    ______ ____
ROOT
ATOM      1  C   UNL     1       1.991   2.517   0.716  0.00  0.00    +0.000 C 
ATOM      2  C   UNL     1       1.332   3.210  -0.482  0.00  0.00    +0.000 C 
ATOM      3  C   UNL     1       0.808   2.316  -1.354  0.00  0.00    +0.000 C 
ATOM      4  C   UNL     1       0.877   0.976  -0.708  0.00  0.00    +0.000 C 
ATOM      5  C   UNL     1       2.230   1.205   0.017  0.00  0.00    +0.000 C 
ATOM      6  C   UNL     1       2.621  -0.202   0.464  0.00  0.00    +0.000 C 
ATOM      7  C   UNL     1       2.522  -0.838  -0.958  0.00  0.00    +0.000 C 
ATOM      8  C   UNL     1       1.028  -0.510  -1.124  0.00  0.00    +0.000 C 
ATOM      9  C   UNL     1       0.594  -1.252   0.143  0.00  0.00    +0.000 C 
ATOM     10  C   UNL     1       1.502  -0.991   1.103  0.00  0.00    +0.000 C 
ENDROOT
BRANCH   9  11
ATOM     11  S   UNL     1      -0.867  -2.122   0.297  0.00  0.00    +0.000 S 
BRANCH  11  12
ATOM     12  C   UNL     1      -0.215  -3.720   0.750  0.00  0.00    +0.000 A 
ATOM     13  C   UNL     1      -0.396  -4.202   2.050  0.00  0.00    +0.000 A 
ATOM     14  C   UNL     1       0.101  -5.456   2.411  0.00  0.00    +0.000 A 
ATOM     15  C   UNL     1       0.775  -6.237   1.473  0.00  0.00    +0.000 A 
ATOM     16  C   UNL     1       0.951  -5.766   0.172  0.00  0.00    +0.000 A 
ATOM     17  C   UNL     1       0.454  -4.512  -0.190  0.00  0.00    +0.000 A 
ENDBRANCH  11  12
ENDBRANCH   9  11
TORSDOF 2
