REMARK  Name = *****
REMARK  5 active torsions:
REMARK  status: ('A' for Active; 'I' for Inactive)
REMARK    1  A    between atoms: C_1  and  O_2
REMARK    2  A    between atoms: O_2  and  C_3
REMARK    3  A    between atoms: C_4  and  C_10
REMARK    4  A    between atoms: C_10  and  C_11
REMARK    5  A    between atoms: C_11  and  C_12
REMARK                            x       y       z     vdW  Elec       q    Type
REMARK                         _______ _______ _______ _____ _____    ______ ____
ROOT
ATOM      1  C   UNL     1       3.194   1.179  -0.646  0.00  0.00    +0.000 A 
ATOM      2  C   UNL     1       2.744   2.512  -0.492  0.00  0.00    +0.000 A 
ATOM      3  C   UNL     1       3.323   3.510  -1.291  0.00  0.00    +0.000 A 
ATOM      4  C   UNL     1       4.338   3.195  -2.189  0.00  0.00    +0.000 A 
ATOM      5  C   UNL     1       4.788   1.892  -2.331  0.00  0.00    +0.000 A 
ATOM      6  C   UNL     1       4.212   0.880  -1.562  0.00  0.00    +0.000 A 
ATOM      7  F   UNL     1       4.882   4.165  -2.935  0.00  0.00    +0.000 F 
ENDROOT
BRANCH   1   9
ATOM      8  C   UNL     1       3.058  -1.088   0.097  0.00  0.00    +0.000 C 
ATOM      9  O   UNL     1       2.562   0.244   0.135  0.00  0.00    +0.000 OA
ENDBRANCH   1   9
BRANCH   2  10
ATOM     10  C   UNL     1       1.626   2.807   0.495  0.00  0.00    +0.000 C 
BRANCH  10  11
ATOM     11  C   UNL     1       1.297   4.272   0.838  0.00  0.00    +0.000 C 
BRANCH  11  12
ATOM     12  C   UNL     1       2.375   5.035   1.576  0.00  0.00    +0.000 A 
ATOM     13  C   UNL     1       2.790   6.291   1.107  0.00  0.00    +0.000 A 
ATOM     14  C   UNL     1       3.777   7.013   1.780  0.00  0.00    +0.000 A 
ATOM     15  C   UNL     1       4.350   6.497   2.939  0.00  0.00    +0.000 A 
ATOM     16  C   UNL     1       3.932   5.261   3.429  0.00  0.00    +0.000 A 
ATOM     17  C   UNL     1       2.947   4.537   2.754  0.00  0.00    +0.000 A 
ENDBRANCH  11  12
ENDBRANCH  10  11
ENDBRANCH   2  10
TORSDOF 4
