REMARK  Name = *****
REMARK  2 active torsions:
REMARK  status: ('A' for Active; 'I' for Inactive)
REMARK    1  A    between atoms: C_5  and  C_7
REMARK    2  A    between atoms: C_8  and  C_9
REMARK                            x       y       z     vdW  Elec       q    Type
REMARK                         _______ _______ _______ _____ _____    ______ ____
ROOT
ATOM      1  C   UNL     1       0.981  -2.378   0.125  0.00  0.00    +0.000 C 
ATOM      2  C   UNL     1       2.320  -2.469   0.107  0.00  0.00    +0.000 C 
ENDROOT
BRANCH   1   7
ATOM      3  C   UNL     1      -1.746   0.053  -0.786  0.00  0.00    +0.000 A 
ATOM      4  C   UNL     1      -1.303   1.238  -0.201  0.00  0.00    +0.000 A 
ATOM      5  C   UNL     1      -0.100   1.253   0.500  0.00  0.00    +0.000 A 
ATOM      6  C   UNL     1       0.656   0.087   0.609  0.00  0.00    +0.000 A 
ATOM      7  C   UNL     1       0.238  -1.112   0.015  0.00  0.00    +0.000 A 
ATOM      8  C   UNL     1      -0.984  -1.115  -0.674  0.00  0.00    +0.000 A 
ATOM      9  F   UNL     1       1.797   0.142   1.314  0.00  0.00    +0.000 F 
ENDBRANCH   1   7
BRANCH   2  10
ATOM     10  C   UNL     1       3.056  -3.738   0.196  0.00  0.00    +0.000 A 
ATOM     11  C   UNL     1       4.230  -3.893  -0.549  0.00  0.00    +0.000 A 
ATOM     12  C   UNL     1       4.961  -5.074  -0.459  0.00  0.00    +0.000 A 
ATOM     13  C   UNL     1       4.553  -6.110   0.372  0.00  0.00    +0.000 A 
ATOM     14  C   UNL     1       3.396  -5.961   1.132  0.00  0.00    +0.000 A 
ATOM     15  C   UNL     1       2.654  -4.778   1.048  0.00  0.00    +0.000 A 
ATOM     16  F   UNL     1       6.078  -5.214  -1.184  0.00  0.00    +0.000 F 
ENDBRANCH   2  10
TORSDOF 2
