REMARK  Name = *****
REMARK  5 active torsions:
REMARK  status: ('A' for Active; 'I' for Inactive)
REMARK    1  A    between atoms: C_1  and  O_2
REMARK    2  A    between atoms: O_2  and  C_3
REMARK    3  A    between atoms: C_3  and  C_5
REMARK    4  A    between atoms: C_8  and  C_11
REMARK    5  A    between atoms: C_12  and  C_13
REMARK                            x       y       z     vdW  Elec       q    Type
REMARK                         _______ _______ _______ _____ _____    ______ ____
ROOT
ATOM      1  C   UNL     1       4.621  -0.744   0.995  0.00  0.00    +0.000 A 
ATOM      2  C   UNL     1       5.300   0.449   0.712  0.00  0.00    +0.000 A 
ATOM      3  C   UNL     1       6.675   0.432   0.453  0.00  0.00    +0.000 A 
ATOM      4  C   UNL     1       7.378  -0.775   0.475  0.00  0.00    +0.000 A 
ATOM      5  C   UNL     1       6.707  -1.966   0.758  0.00  0.00    +0.000 A 
ATOM      6  C   UNL     1       5.334  -1.952   1.017  0.00  0.00    +0.000 A 
ENDROOT
BRANCH   1   7
ATOM      7  C   UNL     1       3.159  -0.786   1.276  0.00  0.00    +0.000 C 
ATOM      8  O   UNL     1       2.550  -1.815   1.521  0.00  0.00    +0.000 OA
BRANCH   7  10
ATOM      9  C   UNL     1       1.219   0.497   1.473  0.00  0.00    +0.000 C 
ATOM     10  O   UNL     1       2.624   0.458   1.216  0.00  0.00    +0.000 OA
ENDBRANCH   7  10
ENDBRANCH   1   7
BRANCH   4  11
ATOM     11  C   UNL     1       8.783  -0.790   0.206  0.00  0.00    +0.000 C 
ATOM     12  C   UNL     1       9.962  -0.804  -0.024  0.00  0.00    +0.000 C 
BRANCH  12  13
ATOM     13  C   UNL     1      11.365  -0.822  -0.301  0.00  0.00    +0.000 A 
ATOM     14  C   UNL     1      12.068   0.380  -0.430  0.00  0.00    +0.000 A 
ATOM     15  C   UNL     1      13.437   0.361  -0.703  0.00  0.00    +0.000 A 
ATOM     16  C   UNL     1      14.091  -0.859  -0.844  0.00  0.00    +0.000 A 
ATOM     17  C   UNL     1      13.402  -2.060  -0.717  0.00  0.00    +0.000 A 
ATOM     18  C   UNL     1      12.033  -2.043  -0.445  0.00  0.00    +0.000 A 
ATOM     19  F   UNL     1      15.404  -0.876  -1.106  0.00  0.00    +0.000 F 
ENDBRANCH  12  13
ENDBRANCH   4  11
TORSDOF 4
