REMARK  Name = *****
REMARK  4 active torsions:
REMARK  status: ('A' for Active; 'I' for Inactive)
REMARK    1  A    between atoms: C_1  and  C_2
REMARK    2  A    between atoms: C_2  and  C_4
REMARK    3  A    between atoms: C_9  and  C_10
REMARK    4  A    between atoms: C_11  and  C_12
REMARK                            x       y       z     vdW  Elec       q    Type
REMARK                         _______ _______ _______ _____ _____    ______ ____
ROOT
ATOM      1  C   UNL     1       3.492   0.107   1.231  0.00  0.00    +0.000 A 
ATOM      2  C   UNL     1       3.093  -0.553   2.404  0.00  0.00    +0.000 A 
ATOM      3  C   UNL     1       3.794  -0.356   3.594  0.00  0.00    +0.000 A 
ATOM      4  C   UNL     1       4.895   0.496   3.617  0.00  0.00    +0.000 A 
ATOM      5  C   UNL     1       5.296   1.154   2.452  0.00  0.00    +0.000 A 
ATOM      6  C   UNL     1       4.600   0.973   1.245  0.00  0.00    +0.000 A 
ENDROOT
BRANCH   1   8
ATOM      7  C   UNL     1       1.207  -0.041   0.083  0.00  0.00    +0.000 C 
ATOM      8  C   UNL     1       2.708  -0.131  -0.010  0.00  0.00    +0.000 C 
ATOM      9  O   UNL     1       3.272  -0.425  -1.061  0.00  0.00    +0.000 OA
ENDBRANCH   1   8
BRANCH   6  10
ATOM     10  C   UNL     1       5.057   1.691   0.047  0.00  0.00    +0.000 C 
ATOM     11  C   UNL     1       5.144   3.029  -0.006  0.00  0.00    +0.000 C 
BRANCH  11  12
ATOM     12  C   UNL     1       5.590   3.760  -1.206  0.00  0.00    +0.000 A 
ATOM     13  C   UNL     1       5.064   3.419  -2.464  0.00  0.00    +0.000 A 
ATOM     14  C   UNL     1       5.443   4.115  -3.614  0.00  0.00    +0.000 A 
ATOM     15  C   UNL     1       6.348   5.170  -3.526  0.00  0.00    +0.000 A 
ATOM     16  C   UNL     1       6.872   5.531  -2.285  0.00  0.00    +0.000 A 
ATOM     17  C   UNL     1       6.493   4.836  -1.131  0.00  0.00    +0.000 A 
ATOM     18 CL   UNL     1       7.197   5.342   0.369  0.00  0.00    +0.000 Cl
ENDBRANCH  11  12
ENDBRANCH   6  10
TORSDOF 3
