REMARK  Name = *****
REMARK  4 active torsions:
REMARK  status: ('A' for Active; 'I' for Inactive)
REMARK    1  A    between atoms: C_4  and  C_6
REMARK    2  A    between atoms: C_6  and  C_7
REMARK    3  A    between atoms: C_7  and  C_8
REMARK    4  A    between atoms: C_7  and  C_10
REMARK                            x       y       z     vdW  Elec       q    Type
REMARK                         _______ _______ _______ _____ _____    ______ ____
ROOT
ATOM      1  C   UNL     1      -2.679   0.901   1.917  0.00  0.00    +0.000 C 
ENDROOT
BRANCH   1   2
ATOM      2  C   UNL     1      -2.987   1.488   3.292  0.00  0.00    +0.000 A 
ATOM      3  C   UNL     1      -3.927   2.526   3.417  0.00  0.00    +0.000 A 
ATOM      4  C   UNL     1      -4.204   3.086   4.666  0.00  0.00    +0.000 A 
ATOM      5  C   UNL     1      -3.544   2.613   5.793  0.00  0.00    +0.000 A 
ATOM      6  C   UNL     1      -2.610   1.590   5.696  0.00  0.00    +0.000 A 
ATOM      7  C   UNL     1      -2.330   1.028   4.450  0.00  0.00    +0.000 A 
ATOM      8  F   UNL     1      -3.809   3.154   6.989  0.00  0.00    +0.000 F 
ENDBRANCH   1   2
BRANCH   1   9
ATOM      9  C   UNL     1      -2.908  -0.560   1.882  0.00  0.00    +0.000 C 
ATOM     10  N   UNL     1      -3.077  -1.708   1.839  0.00  0.00    +0.000 NA
ENDBRANCH   1   9
BRANCH   1  11
ATOM     11  C   UNL     1      -1.233   1.256   1.502  0.00  0.00    +0.000 C 
BRANCH  11  15
ATOM     12  C   UNL     1      -0.598   2.733  -1.578  0.00  0.00    +0.000 C 
ATOM     13  C   UNL     1       0.669   1.899  -1.578  0.00  0.00    +0.000 C 
ATOM     14  C   UNL     1       0.615   1.189  -0.234  0.00  0.00    +0.000 C 
ATOM     15  C   UNL     1      -0.880   0.930   0.038  0.00  0.00    +0.000 C 
ATOM     16  C   UNL     1      -1.637   1.789  -0.990  0.00  0.00    +0.000 C 
ENDBRANCH  11  15
ENDBRANCH   1  11
TORSDOF 4
