REMARK  Name = *****
REMARK  4 active torsions:
REMARK  status: ('A' for Active; 'I' for Inactive)
REMARK    1  A    between atoms: C_1  and  C_2
REMARK    2  A    between atoms: C_5  and  C_8
REMARK    3  A    between atoms: N_9  and  C_10
REMARK    4  A    between atoms: C_13  and  C_16
REMARK                            x       y       z     vdW  Elec       q    Type
REMARK                         _______ _______ _______ _____ _____    ______ ____
ROOT
ATOM      1  C   UNL     1      -3.326   0.215  -0.209  0.00  0.00    +0.000 C 
ATOM      2  N   UNL     1      -3.996   1.214   0.275  0.00  0.00    +0.000 NA
ENDROOT
BRANCH   2   3
ATOM      3  C   UNL     1      -5.390   1.140   0.144  0.00  0.00    +0.000 A 
ATOM      4  C   UNL     1      -6.156   0.439   1.076  0.00  0.00    +0.000 A 
ATOM      5  C   UNL     1      -7.546   0.384   0.947  0.00  0.00    +0.000 A 
ATOM      6  C   UNL     1      -8.195   1.040  -0.111  0.00  0.00    +0.000 A 
ATOM      7  C   UNL     1      -7.418   1.758  -1.032  0.00  0.00    +0.000 A 
ATOM      8  C   UNL     1      -6.028   1.809  -0.900  0.00  0.00    +0.000 A 
ATOM      9  C   UNL     1      -9.689   1.002  -0.274  0.00  0.00    +0.000 C 
ATOM     10 CL   UNL     1      -8.431  -0.514   2.129  0.00  0.00    +0.000 Cl
ENDBRANCH   2   3
BRANCH   1  15
ATOM     11  C   UNL     1       2.436  -0.096   0.044  0.00  0.00    +0.000 C 
ATOM     12  C   UNL     1       0.942   0.003  -0.046  0.00  0.00    +0.000 A 
ATOM     13  C   UNL     1       0.274   1.111   0.492  0.00  0.00    +0.000 A 
ATOM     14  C   UNL     1      -1.120   1.191   0.440  0.00  0.00    +0.000 A 
ATOM     15  C   UNL     1      -1.854   0.155  -0.142  0.00  0.00    +0.000 A 
ATOM     16  C   UNL     1      -1.200  -0.961  -0.668  0.00  0.00    +0.000 A 
ATOM     17  C   UNL     1       0.194  -1.037  -0.614  0.00  0.00    +0.000 A 
ENDBRANCH   1  15
TORSDOF 2
