REMARK  Name = *****
REMARK  5 active torsions:
REMARK  status: ('A' for Active; 'I' for Inactive)
REMARK    1  A    between atoms: C_1  and  C_2
REMARK    2  A    between atoms: C_2  and  O_3
REMARK    3  A    between atoms: O_3  and  C_4
REMARK    4  A    between atoms: C_7  and  C_10
REMARK    5  A    between atoms: C_11  and  C_12
REMARK                            x       y       z     vdW  Elec       q    Type
REMARK                         _______ _______ _______ _____ _____    ______ ____
ROOT
ATOM      1  C   UNL     1       4.252  -1.357   0.716  0.00  0.00    +0.000 A 
ATOM      2  C   UNL     1       5.092  -0.309   1.089  0.00  0.00    +0.000 A 
ATOM      3  C   UNL     1       6.473  -0.520   1.204  0.00  0.00    +0.000 A 
ATOM      4  C   UNL     1       7.029  -1.782   0.959  0.00  0.00    +0.000 A 
ATOM      5  C   UNL     1       6.182  -2.823   0.569  0.00  0.00    +0.000 A 
ATOM      6  C   UNL     1       4.804  -2.612   0.455  0.00  0.00    +0.000 A 
ENDROOT
BRANCH   4   7
ATOM      7  C   UNL     1       8.476  -2.030   1.038  0.00  0.00    +0.000 C 
ATOM      8  C   UNL     1       9.261  -1.528   2.005  0.00  0.00    +0.000 C 
BRANCH   8   9
ATOM      9  C   UNL     1      10.664  -1.783   2.068  0.00  0.00    +0.000 A 
ATOM     10  C   UNL     1      11.499  -2.518   1.239  0.00  0.00    +0.000 A 
ATOM     11  C   UNL     1      12.860  -2.519   1.665  0.00  0.00    +0.000 A 
ATOM     12  C   UNL     1      13.039  -1.784   2.811  0.00  0.00    +0.000 A 
ATOM     13  S   UNL     1      11.578  -1.100   3.366  0.00  0.00    +0.000 S 
ENDBRANCH   8   9
ENDBRANCH   4   7
BRANCH   1  14
ATOM     14  O   UNL     1       2.895  -1.287   0.565  0.00  0.00    +0.000 OA
BRANCH  14  16
ATOM     15  C   UNL     1       0.782  -0.188   0.608  0.00  0.00    +0.000 C 
ATOM     16  C   UNL     1       2.275  -0.029   0.828  0.00  0.00    +0.000 C 
ENDBRANCH  14  16
ENDBRANCH   1  14
TORSDOF 4
