REMARK  Name = *****
REMARK  4 active torsions:
REMARK  status: ('A' for Active; 'I' for Inactive)
REMARK    1  A    between atoms: C_1  and  C_2
REMARK    2  A    between atoms: C_4  and  S_8
REMARK    3  A    between atoms: S_8  and  C_9
REMARK    4  A    between atoms: C_9  and  C_10
REMARK                            x       y       z     vdW  Elec       q    Type
REMARK                         _______ _______ _______ _____ _____    ______ ____
ROOT
ATOM      1  S   UNL     1      -1.961   2.764   0.189  0.00  0.00    +0.000 S 
ENDROOT
BRANCH   1   5
ATOM      2  C   UNL     1       1.787  -0.828   1.258  0.00  0.00    +0.000 C 
ATOM      3  C   UNL     1       0.632  -0.393   0.405  0.00  0.00    +0.000 A 
ATOM      4  C   UNL     1      -0.019   0.823   0.660  0.00  0.00    +0.000 A 
ATOM      5  C   UNL     1      -1.117   1.222  -0.112  0.00  0.00    +0.000 A 
ATOM      6  C   UNL     1      -1.586   0.378  -1.122  0.00  0.00    +0.000 A 
ATOM      7  C   UNL     1      -0.955  -0.841  -1.372  0.00  0.00    +0.000 A 
ATOM      8  C   UNL     1       0.149  -1.225  -0.611  0.00  0.00    +0.000 A 
ENDBRANCH   1   5
BRANCH   1   9
ATOM      9  C   UNL     1      -0.574   3.926  -0.034  0.00  0.00    +0.000 C 
BRANCH   9  10
ATOM     10  C   UNL     1      -1.047   5.358  -0.027  0.00  0.00    +0.000 A 
ATOM     11  C   UNL     1      -1.186   6.058   1.180  0.00  0.00    +0.000 A 
ATOM     12  C   UNL     1      -1.632   7.381   1.185  0.00  0.00    +0.000 A 
ATOM     13  C   UNL     1      -1.949   8.015  -0.015  0.00  0.00    +0.000 A 
ATOM     14  C   UNL     1      -1.824   7.327  -1.220  0.00  0.00    +0.000 A 
ATOM     15  C   UNL     1      -1.379   6.004  -1.227  0.00  0.00    +0.000 A 
ENDBRANCH   9  10
ENDBRANCH   1   9
TORSDOF 3
