REMARK  Name = *****
REMARK  6 active torsions:
REMARK  status: ('A' for Active; 'I' for Inactive)
REMARK    1  A    between atoms: C_1  and  C_2
REMARK    2  A    between atoms: C_2  and  C_3
REMARK    3  A    between atoms: C_3  and  C_4
REMARK    4  A    between atoms: C_4  and  C_5
REMARK    5  A    between atoms: C_5  and  C_6
REMARK    6  A    between atoms: C_6  and  C_7
REMARK                            x       y       z     vdW  Elec       q    Type
REMARK                         _______ _______ _______ _____ _____    ______ ____
ROOT
ATOM      1  C   UNL     1       1.024   2.624  -0.009  0.00  0.00    +0.000 C 
ENDROOT
BRANCH   1   2
ATOM      2  C   UNL     1       2.534   2.438   0.202  0.00  0.00    +0.000 C 
ATOM      3 CL   UNL     1       2.886   0.724   0.622  0.00  0.00    +0.000 Cl
BRANCH   2   4
ATOM      4  C   UNL     1       3.427   2.841  -0.983  0.00  0.00    +0.000 C 
BRANCH   4   6
ATOM      5  C   UNL     1       4.153   4.567  -2.671  0.00  0.00    +0.000 C 
ATOM      6  C   UNL     1       3.242   4.280  -1.482  0.00  0.00    +0.000 C 
ATOM      7 CL   UNL     1       3.593   5.461  -0.187  0.00  0.00    +0.000 Cl
ENDBRANCH   4   6
ENDBRANCH   2   4
ENDBRANCH   1   2
BRANCH   1   8
ATOM      8  C   UNL     1       0.446   1.896  -1.228  0.00  0.00    +0.000 C 
BRANCH   8   9
ATOM      9  C   UNL     1      -1.040   2.132  -1.350  0.00  0.00    +0.000 A 
ATOM     10  C   UNL     1      -1.532   3.214  -2.092  0.00  0.00    +0.000 A 
ATOM     11  C   UNL     1      -2.906   3.440  -2.187  0.00  0.00    +0.000 A 
ATOM     12  C   UNL     1      -3.800   2.590  -1.538  0.00  0.00    +0.000 A 
ATOM     13  C   UNL     1      -3.321   1.514  -0.793  0.00  0.00    +0.000 A 
ATOM     14  C   UNL     1      -1.947   1.287  -0.697  0.00  0.00    +0.000 A 
ENDBRANCH   8   9
ENDBRANCH   1   8
TORSDOF 5
