REMARK  Name = *****
REMARK  4 active torsions:
REMARK  status: ('A' for Active; 'I' for Inactive)
REMARK    1  A    between atoms: C_1  and  C_2
REMARK    2  A    between atoms: C_5  and  C_8
REMARK    3  A    between atoms: C_9  and  C_10
REMARK    4  A    between atoms: C_15  and  C_16
REMARK                            x       y       z     vdW  Elec       q    Type
REMARK                         _______ _______ _______ _____ _____    ______ ____
ROOT
ATOM      1  C   UNL     1       6.797   0.078  -0.658  0.00  0.00    +0.000 C 
ATOM      2  C   UNL     1       7.974   0.088  -0.898  0.00  0.00    +0.000 C 
ENDROOT
BRANCH   1   7
ATOM      3  C   UNL     1       1.149  -0.018   0.340  0.00  0.00    +0.000 C 
ATOM      4  C   UNL     1       2.630   0.017   0.104  0.00  0.00    +0.000 A 
ATOM      5  C   UNL     1       3.306   1.234  -0.042  0.00  0.00    +0.000 A 
ATOM      6  C   UNL     1       4.682   1.254  -0.286  0.00  0.00    +0.000 A 
ATOM      7  C   UNL     1       5.392   0.058  -0.392  0.00  0.00    +0.000 A 
ATOM      8  C   UNL     1       4.725  -1.160  -0.251  0.00  0.00    +0.000 A 
ATOM      9  C   UNL     1       3.349  -1.180  -0.007  0.00  0.00    +0.000 A 
ENDBRANCH   1   7
BRANCH   2  10
ATOM     10  C   UNL     1       9.375   0.095  -1.202  0.00  0.00    +0.000 A 
ATOM     11  C   UNL     1      10.027   1.329  -1.320  0.00  0.00    +0.000 A 
ATOM     12  C   UNL     1      11.387   1.382  -1.626  0.00  0.00    +0.000 A 
ATOM     13  C   UNL     1      12.102   0.203  -1.815  0.00  0.00    +0.000 A 
ATOM     14  C   UNL     1      11.459  -1.031  -1.698  0.00  0.00    +0.000 A 
ATOM     15  C   UNL     1      10.091  -1.101  -1.390  0.00  0.00    +0.000 A 
ATOM     16  C   UNL     1       9.426  -2.444  -1.270  0.00  0.00    +0.000 C 
ENDBRANCH   2  10
TORSDOF 2
