REMARK  Name = *****
REMARK  3 active torsions:
REMARK  status: ('A' for Active; 'I' for Inactive)
REMARK    1  A    between atoms: C_4  and  S_7
REMARK    2  A    between atoms: S_7  and  S_8
REMARK    3  A    between atoms: S_8  and  C_10
REMARK                            x       y       z     vdW  Elec       q    Type
REMARK                         _______ _______ _______ _____ _____    ______ ____
ROOT
ATOM      1  S   UNL     1       3.795  -2.383   0.647  0.00  0.00    +0.000 S 
ATOM      2  O   UNL     1       2.737  -3.325   0.155  0.00  0.00    +0.000 OA
ENDROOT
BRANCH   1   3
ATOM      3  C   UNL     1       5.353  -2.754  -0.254  0.00  0.00    +0.000 C 
ATOM      4  C   UNL     1       5.741  -4.218  -0.013  0.00  0.00    +0.000 C 
ATOM      5  C   UNL     1       7.072  -4.562  -0.676  0.00  0.00    +0.000 C 
ATOM      6  C   UNL     1       8.183  -3.618  -0.228  0.00  0.00    +0.000 C 
ATOM      7  C   UNL     1       7.803  -2.159  -0.456  0.00  0.00    +0.000 C 
ATOM      8  C   UNL     1       6.471  -1.812   0.207  0.00  0.00    +0.000 C 
ENDBRANCH   1   3
BRANCH   1   9
ATOM      9  S   UNL     1       3.175  -0.675  -0.259  0.00  0.00    +0.000 S 
BRANCH   9  13
ATOM     10  C   UNL     1      -0.982   0.904   1.054  0.00  0.00    +0.000 C 
ATOM     11  C   UNL     1      -0.760   0.592  -0.423  0.00  0.00    +0.000 C 
ATOM     12  C   UNL     1       0.725   0.443  -0.750  0.00  0.00    +0.000 C 
ATOM     13  C   UNL     1       1.390  -0.613   0.144  0.00  0.00    +0.000 C 
ATOM     14  C   UNL     1       1.175  -0.284   1.627  0.00  0.00    +0.000 C 
ATOM     15  C   UNL     1      -0.312  -0.131   1.952  0.00  0.00    +0.000 C 
ENDBRANCH   9  13
ENDBRANCH   1   9
TORSDOF 3
