REMARK  Name = *****
REMARK  4 active torsions:
REMARK  status: ('A' for Active; 'I' for Inactive)
REMARK    1  A    between atoms: C_1  and  C_2
REMARK    2  A    between atoms: C_4  and  C_8
REMARK    3  A    between atoms: C_8  and  O_10
REMARK    4  A    between atoms: O_10  and  C_11
REMARK                            x       y       z     vdW  Elec       q    Type
REMARK                         _______ _______ _______ _____ _____    ______ ____
ROOT
ATOM      1  C   UNL     1      -1.587   2.367  -0.820  0.00  0.00    +0.000 C 
ATOM      2  O   UNL     1      -2.797   2.529  -0.779  0.00  0.00    +0.000 OA
ENDROOT
BRANCH   1   6
ATOM      3  C   UNL     1       2.561  -0.378   0.109  0.00  0.00    +0.000 C 
ATOM      4  C   UNL     1       1.075  -0.183   0.188  0.00  0.00    +0.000 A 
ATOM      5  C   UNL     1       0.484   0.978  -0.333  0.00  0.00    +0.000 A 
ATOM      6  C   UNL     1      -0.908   1.151  -0.289  0.00  0.00    +0.000 A 
ATOM      7  C   UNL     1      -1.708   0.146   0.271  0.00  0.00    +0.000 A 
ATOM      8  C   UNL     1      -1.126  -1.017   0.776  0.00  0.00    +0.000 A 
ATOM      9  C   UNL     1       0.258  -1.182   0.730  0.00  0.00    +0.000 A 
ENDBRANCH   1   6
BRANCH   1  10
ATOM     10  O   UNL     1      -0.647   3.238  -1.341  0.00  0.00    +0.000 OA
BRANCH  10  11
ATOM     11  C   UNL     1      -1.169   4.416  -1.886  0.00  0.00    +0.000 A 
ATOM     12  C   UNL     1      -1.945   4.387  -3.044  0.00  0.00    +0.000 A 
ATOM     13  C   UNL     1      -2.401   5.588  -3.590  0.00  0.00    +0.000 A 
ATOM     14  C   UNL     1      -2.062   6.798  -2.983  0.00  0.00    +0.000 A 
ATOM     15  C   UNL     1      -1.266   6.821  -1.836  0.00  0.00    +0.000 A 
ATOM     16  C   UNL     1      -0.809   5.623  -1.286  0.00  0.00    +0.000 A 
ATOM     17 CL   UNL     1      -2.621   8.278  -3.661  0.00  0.00    +0.000 Cl
ENDBRANCH  10  11
ENDBRANCH   1  10
TORSDOF 3
