REMARK  Name = *****
REMARK  4 active torsions:
REMARK  status: ('A' for Active; 'I' for Inactive)
REMARK    1  A    between atoms: C_1  and  C_2
REMARK    2  A    between atoms: C_5  and  O_8
REMARK    3  A    between atoms: O_8  and  C_9
REMARK    4  A    between atoms: C_9  and  C_10
REMARK                            x       y       z     vdW  Elec       q    Type
REMARK                         _______ _______ _______ _____ _____    ______ ____
ROOT
ATOM      1  O   UNL     1      -3.112   0.258  -0.052  0.00  0.00    +0.000 OA
ENDROOT
BRANCH   1   6
ATOM      2  C   UNL     1       2.356  -1.104   0.631  0.00  0.00    +0.000 C 
ATOM      3  C   UNL     1       0.923  -0.721   0.412  0.00  0.00    +0.000 A 
ATOM      4  C   UNL     1       0.590   0.559  -0.046  0.00  0.00    +0.000 A 
ATOM      5  C   UNL     1      -0.748   0.930  -0.221  0.00  0.00    +0.000 A 
ATOM      6  C   UNL     1      -1.770   0.027   0.072  0.00  0.00    +0.000 A 
ATOM      7  C   UNL     1      -1.440  -1.244   0.547  0.00  0.00    +0.000 A 
ATOM      8  C   UNL     1      -0.105  -1.616   0.722  0.00  0.00    +0.000 A 
ENDBRANCH   1   6
BRANCH   1   9
ATOM      9  C   UNL     1      -3.506   1.512  -0.609  0.00  0.00    +0.000 C 
BRANCH   9  10
ATOM     10  C   UNL     1      -5.012   1.553  -0.752  0.00  0.00    +0.000 A 
ATOM     11  C   UNL     1      -5.720   0.442  -1.238  0.00  0.00    +0.000 A 
ATOM     12  C   UNL     1      -7.106   0.497  -1.403  0.00  0.00    +0.000 A 
ATOM     13  C   UNL     1      -7.792   1.669  -1.095  0.00  0.00    +0.000 A 
ATOM     14  C   UNL     1      -7.105   2.785  -0.625  0.00  0.00    +0.000 A 
ATOM     15  C   UNL     1      -5.719   2.729  -0.459  0.00  0.00    +0.000 A 
ATOM     16 CL   UNL     1      -9.499   1.740  -1.300  0.00  0.00    +0.000 Cl
ENDBRANCH   9  10
ENDBRANCH   1   9
TORSDOF 3
