REMARK  Name = *****
REMARK  6 active torsions:
REMARK  status: ('A' for Active; 'I' for Inactive)
REMARK    1  A    between atoms: C_1  and  C_2
REMARK    2  A    between atoms: C_2  and  C_3
REMARK    3  A    between atoms: C_3  and  C_16
REMARK    4  A    between atoms: C_6  and  S_8
REMARK    5  A    between atoms: S_8  and  C_9
REMARK    6  A    between atoms: C_9  and  C_10
REMARK                            x       y       z     vdW  Elec       q    Type
REMARK                         _______ _______ _______ _____ _____    ______ ____
ROOT
ATOM      1  C   UNL     1       2.815   1.622  -0.039  0.00  0.00    +0.000 C 
ATOM      2  C   UNL     1       2.430   2.998  -0.576  0.00  0.00    +0.000 C 
ATOM      3  N   UNL     1       3.148   3.132  -1.852  0.00  0.00    +0.000 NA
ATOM      4  C   UNL     1       4.019   2.175  -1.819  0.00  0.00    +0.000 C 
ATOM      5  O   UNL     1       4.015   1.324  -0.759  0.00  0.00    +0.000 OA
ATOM      6  C   UNL     1       1.779   0.553  -0.400  0.00  0.00    +0.000 C 
ENDROOT
BRANCH   1   8
ATOM      7  C   UNL     1       1.977   1.982   2.369  0.00  0.00    +0.000 C 
ATOM      8  C   UNL     1       3.147   1.632   1.461  0.00  0.00    +0.000 C 
ENDBRANCH   1   8
BRANCH   4   9
ATOM      9  S   UNL     1       5.184   1.915  -3.076  0.00  0.00    +0.000 S 
BRANCH   9  10
ATOM     10  C   UNL     1       5.223   3.576  -3.800  0.00  0.00    +0.000 C 
BRANCH  10  11
ATOM     11  C   UNL     1       6.200   3.662  -4.948  0.00  0.00    +0.000 A 
ATOM     12  C   UNL     1       5.747   3.609  -6.274  0.00  0.00    +0.000 A 
ATOM     13  C   UNL     1       6.649   3.686  -7.336  0.00  0.00    +0.000 A 
ATOM     14  C   UNL     1       8.014   3.810  -7.085  0.00  0.00    +0.000 A 
ATOM     15  C   UNL     1       8.479   3.855  -5.772  0.00  0.00    +0.000 A 
ATOM     16  C   UNL     1       7.578   3.782  -4.708  0.00  0.00    +0.000 A 
ENDBRANCH  10  11
ENDBRANCH   9  10
ENDBRANCH   4   9
TORSDOF 4
