REMARK  Name = *****
REMARK  3 active torsions:
REMARK  status: ('A' for Active; 'I' for Inactive)
REMARK    1  A    between atoms: C_4  and  C_7
REMARK    2  A    between atoms: C_8  and  C_9
REMARK    3  A    between atoms: C_12  and  C_14
REMARK                            x       y       z     vdW  Elec       q    Type
REMARK                         _______ _______ _______ _____ _____    ______ ____
ROOT
ATOM      1  C   UNL     1      -2.813   0.482  -0.404  0.00  0.00    +0.000 C 
ATOM      2  C   UNL     1      -3.787  -0.441  -0.316  0.00  0.00    +0.000 C 
ENDROOT
BRANCH   1   6
ATOM      3  C   UNL     1       1.347  -0.238   0.268  0.00  0.00    +0.000 A 
ATOM      4  C   UNL     1       0.594  -1.175  -0.437  0.00  0.00    +0.000 A 
ATOM      5  C   UNL     1      -0.768  -0.955  -0.658  0.00  0.00    +0.000 A 
ATOM      6  C   UNL     1      -1.391   0.199  -0.167  0.00  0.00    +0.000 A 
ATOM      7  C   UNL     1      -0.620   1.142   0.524  0.00  0.00    +0.000 A 
ATOM      8  C   UNL     1       0.742   0.922   0.746  0.00  0.00    +0.000 A 
ENDBRANCH   1   6
BRANCH   2   9
ATOM      9  C   UNL     1      -5.179  -0.185  -0.532  0.00  0.00    +0.000 A 
ATOM     10  N   UNL     1      -5.704   1.002  -0.869  0.00  0.00    +0.000 NA
ATOM     11  O   UNL     1      -7.065   0.805  -0.981  0.00  0.00    +0.000 OA
ATOM     12  C   UNL     1      -7.361  -0.494  -0.711  0.00  0.00    +0.000 A 
ATOM     13  C   UNL     1      -6.197  -1.162  -0.412  0.00  0.00    +0.000 A 
BRANCH  12  14
ATOM     14  C   UNL     1      -8.789  -0.860  -0.768  0.00  0.00    +0.000 C 
ATOM     15 CL   UNL     1      -9.024  -2.392  -1.642  0.00  0.00    +0.000 Cl
ENDBRANCH  12  14
ENDBRANCH   2   9
TORSDOF 3
