REMARK  Name = *****
REMARK  4 active torsions:
REMARK  status: ('A' for Active; 'I' for Inactive)
REMARK    1  A    between atoms: C_1  and  C_2
REMARK    2  A    between atoms: C_5  and  C_8
REMARK    3  A    between atoms: C_8  and  C_17
REMARK    4  A    between atoms: N_9  and  C_10
REMARK                            x       y       z     vdW  Elec       q    Type
REMARK                         _______ _______ _______ _____ _____    ______ ____
ROOT
ATOM      1  C   UNL     1      -3.276  -0.057  -0.137  0.00  0.00    +0.000 C 
ATOM      2  N   UNL     1      -3.913  -1.151   0.163  0.00  0.00    +0.000 NA
ATOM      3  C   UNL     1      -4.071   1.229  -0.140  0.00  0.00    +0.000 C 
ENDROOT
BRANCH   1   8
ATOM      4  C   UNL     1       2.327   0.480  -1.445  0.00  0.00    +0.000 C 
ATOM      5  C   UNL     1       0.878   0.318  -1.090  0.00  0.00    +0.000 A 
ATOM      6  C   UNL     1       0.034  -0.447  -1.906  0.00  0.00    +0.000 A 
ATOM      7  C   UNL     1      -1.321  -0.577  -1.597  0.00  0.00    +0.000 A 
ATOM      8  C   UNL     1      -1.836   0.063  -0.469  0.00  0.00    +0.000 A 
ATOM      9  C   UNL     1      -1.011   0.847   0.341  0.00  0.00    +0.000 A 
ATOM     10  C   UNL     1       0.343   0.975   0.026  0.00  0.00    +0.000 A 
ENDBRANCH   1   8
BRANCH   2  11
ATOM     11  C   UNL     1      -3.248  -2.380   0.245  0.00  0.00    +0.000 A 
ATOM     12  C   UNL     1      -2.385  -2.672   1.307  0.00  0.00    +0.000 A 
ATOM     13  C   UNL     1      -1.748  -3.913   1.382  0.00  0.00    +0.000 A 
ATOM     14  C   UNL     1      -1.991  -4.874   0.402  0.00  0.00    +0.000 A 
ATOM     15  C   UNL     1      -2.871  -4.607  -0.645  0.00  0.00    +0.000 A 
ATOM     16  C   UNL     1      -3.503  -3.363  -0.716  0.00  0.00    +0.000 A 
ATOM     17 CL   UNL     1      -1.209  -6.403   0.492  0.00  0.00    +0.000 Cl
ENDBRANCH   2  11
TORSDOF 2
