REMARK  Name = *****
REMARK  1 active torsions:
REMARK  status: ('A' for Active; 'I' for Inactive)
REMARK    1  A    between atoms: C_4  and  C_7
REMARK                            x       y       z     vdW  Elec       q    Type
REMARK                         _______ _______ _______ _____ _____    ______ ____
ROOT
ATOM      1  C   UNL     1      -2.983   1.149  -0.399  0.00  0.00    +0.000 C 
ATOM      2  C   UNL     1      -3.210   2.476  -0.362  0.00  0.00    +0.000 C 
ATOM      3  C   UNL     1      -4.438   3.235  -0.525  0.00  0.00    +0.000 A 
ATOM      4  C   UNL     1      -4.080   4.563  -0.384  0.00  0.00    +0.000 A 
ATOM      5  C   UNL     1      -4.984   5.613  -0.475  0.00  0.00    +0.000 A 
ATOM      6  C   UNL     1      -6.318   5.295  -0.721  0.00  0.00    +0.000 A 
ATOM      7  C   UNL     1      -6.693   3.955  -0.866  0.00  0.00    +0.000 A 
ATOM      8  C   UNL     1      -5.764   2.916  -0.771  0.00  0.00    +0.000 A 
ATOM      9  F   UNL     1      -7.978   3.661  -1.103  0.00  0.00    +0.000 F 
ATOM     10  C   UNL     1      -2.649   4.656  -0.136  0.00  0.00    +0.000 C 
ATOM     11  O   UNL     1      -2.022   5.685   0.027  0.00  0.00    +0.000 OA
ATOM     12  O   UNL     1      -2.149   3.382  -0.126  0.00  0.00    +0.000 OA
ATOM     13 CL   UNL     1      -4.210  -0.041  -0.664  0.00  0.00    +0.000 Cl
ENDROOT
BRANCH   1  17
ATOM     14  C   UNL     1       0.937  -0.468   0.177  0.00  0.00    +0.000 A 
ATOM     15  C   UNL     1      -0.046  -0.657   1.147  0.00  0.00    +0.000 A 
ATOM     16  C   UNL     1      -1.325  -0.129   0.960  0.00  0.00    +0.000 A 
ATOM     17  C   UNL     1      -1.632   0.593  -0.203  0.00  0.00    +0.000 A 
ATOM     18  C   UNL     1      -0.636   0.775  -1.173  0.00  0.00    +0.000 A 
ATOM     19  C   UNL     1       0.642   0.247  -0.983  0.00  0.00    +0.000 A 
ENDBRANCH   1  17
TORSDOF 1
