REMARK  Name = *****
REMARK  2 active torsions:
REMARK  status: ('A' for Active; 'I' for Inactive)
REMARK    1  A    between atoms: C_3  and  C_7
REMARK    2  A    between atoms: C_8  and  C_9
REMARK                            x       y       z     vdW  Elec       q    Type
REMARK                         _______ _______ _______ _____ _____    ______ ____
ROOT
ATOM      1  C   UNL     1      -0.944   0.784  -1.800  0.00  0.00    +0.000 C 
ATOM      2  C   UNL     1      -1.507   1.758  -2.534  0.00  0.00    +0.000 C 
ENDROOT
BRANCH   1   5
ATOM      3  C   UNL     1       1.293  -0.176   0.168  0.00  0.00    +0.000 C 
ATOM      4  C   UNL     1       0.267   0.936   0.406  0.00  0.00    +0.000 C 
ATOM      5  C   UNL     1      -1.077   0.678  -0.294  0.00  0.00    +0.000 C 
ATOM      6  C   UNL     1      -1.651  -0.693   0.126  0.00  0.00    +0.000 C 
ATOM      7  C   UNL     1      -0.621  -1.785   0.237  0.00  0.00    +0.000 C 
ATOM      8  C   UNL     1       0.700  -1.553   0.242  0.00  0.00    +0.000 C 
ENDBRANCH   1   5
BRANCH   2   9
ATOM      9  C   UNL     1      -1.381   1.859  -4.041  0.00  0.00    +0.000 C 
ATOM     10  C   UNL     1      -0.541   3.080  -4.452  0.00  0.00    +0.000 C 
ATOM     11  C   UNL     1      -1.241   4.413  -4.170  0.00  0.00    +0.000 C 
ATOM     12  C   UNL     1      -2.701   4.399  -4.516  0.00  0.00    +0.000 C 
ATOM     13  C   UNL     1      -3.383   3.274  -4.777  0.00  0.00    +0.000 C 
ATOM     14  C   UNL     1      -2.767   1.903  -4.720  0.00  0.00    +0.000 C 
ENDBRANCH   2   9
TORSDOF 2
