REMARK  Name = *****
REMARK  8 active torsions:
REMARK  status: ('A' for Active; 'I' for Inactive)
REMARK    1  A    between atoms: C_1  and  C_2
REMARK    2  A    between atoms: C_3  and  C_9
REMARK    3  A    between atoms: C_4  and  C_8
REMARK    4  A    between atoms: C_9  and  C_10
REMARK    5  A    between atoms: C_10  and  C_11
REMARK    6  A    between atoms: C_11  and  C_13
REMARK    7  A    between atoms: C_15  and  C_20
REMARK    8  A    between atoms: C_17  and  C_19
REMARK                            x       y       z     vdW  Elec       q    Type
REMARK                         _______ _______ _______ _____ _____    ______ ____
ROOT
ATOM      1  C   UNL     1       1.380   3.175  -0.141  0.00  0.00    +0.000 C 
ENDROOT
BRANCH   1   2
ATOM      2  C   UNL     1       1.254   4.685  -0.061  0.00  0.00    +0.000 C 
ATOM      3  O   UNL     1       0.162   5.248   0.006  0.00  0.00    +0.000 OA
BRANCH   2   4
ATOM      4  C   UNL     1       2.503   5.509  -0.064  0.00  0.00    +0.000 A 
ATOM      5  C   UNL     1       3.780   4.934  -0.080  0.00  0.00    +0.000 A 
ATOM      6  C   UNL     1       4.925   5.743  -0.102  0.00  0.00    +0.000 A 
ATOM      7  C   UNL     1       4.782   7.136  -0.074  0.00  0.00    +0.000 A 
ATOM      8  C   UNL     1       3.514   7.727  -0.039  0.00  0.00    +0.000 A 
ATOM      9  C   UNL     1       2.379   6.906  -0.050  0.00  0.00    +0.000 A 
ATOM     10  C   UNL     1       3.366   9.220  -0.052  0.00  0.00    +0.000 C 
ATOM     11  C   UNL     1       6.293   5.124  -0.093  0.00  0.00    +0.000 C 
ENDBRANCH   2   4
ENDBRANCH   1   2
BRANCH   1  12
ATOM     12  C   UNL     1       0.010   2.494  -0.197  0.00  0.00    +0.000 C 
BRANCH  12  15
ATOM     13  C   UNL     1       0.091   0.781   2.254  0.00  0.00    +0.000 C 
ATOM     14  C   UNL     1       0.206   0.188   0.874  0.00  0.00    +0.000 A 
ATOM     15  C   UNL     1       0.140   0.983  -0.298  0.00  0.00    +0.000 A 
ATOM     16  C   UNL     1       0.227   0.354  -1.566  0.00  0.00    +0.000 A 
ATOM     17  C   UNL     1       0.366  -1.040  -1.641  0.00  0.00    +0.000 A 
ATOM     18  C   UNL     1       0.428  -1.814  -0.487  0.00  0.00    +0.000 A 
ATOM     19  C   UNL     1       0.345  -1.204   0.760  0.00  0.00    +0.000 A 
ATOM     20  C   UNL     1       0.135   1.129  -2.855  0.00  0.00    +0.000 C 
ENDBRANCH  12  15
ENDBRANCH   1  12
TORSDOF 4
