REMARK  Name = *****
REMARK  4 active torsions:
REMARK  status: ('A' for Active; 'I' for Inactive)
REMARK    1  A    between atoms: C_1  and  C_2
REMARK    2  A    between atoms: C_4  and  C_8
REMARK    3  A    between atoms: C_9  and  C_10
REMARK    4  A    between atoms: C_15  and  C_16
REMARK                            x       y       z     vdW  Elec       q    Type
REMARK                         _______ _______ _______ _____ _____    ______ ____
ROOT
ATOM      1  C   UNL     1      -3.642   3.971   0.159  0.00  0.00    +0.000 A 
ATOM      2  C   UNL     1      -3.636   4.670  -1.060  0.00  0.00    +0.000 A 
ATOM      3  C   UNL     1      -4.210   5.937  -1.158  0.00  0.00    +0.000 A 
ATOM      4  C   UNL     1      -4.799   6.521  -0.042  0.00  0.00    +0.000 A 
ATOM      5  C   UNL     1      -4.814   5.837   1.174  0.00  0.00    +0.000 A 
ATOM      6  C   UNL     1      -4.241   4.555   1.291  0.00  0.00    +0.000 A 
ENDROOT
BRANCH   6   7
ATOM      7  C   UNL     1      -4.264   3.849   2.625  0.00  0.00    +0.000 C 
ATOM      8  F   UNL     1      -4.860   2.623   2.569  0.00  0.00    +0.000 F 
ATOM      9  F   UNL     1      -3.020   3.638   3.140  0.00  0.00    +0.000 F 
ATOM     10  F   UNL     1      -4.944   4.534   3.589  0.00  0.00    +0.000 F 
ENDBRANCH   6   7
BRANCH   1  12
ATOM     11  C   UNL     1      -1.725   2.443  -0.012  0.00  0.00    +0.000 C 
ATOM     12  C   UNL     1      -3.035   2.635   0.210  0.00  0.00    +0.000 C 
BRANCH  11  16
ATOM     13  C   UNL     1       2.034  -0.083  -1.604  0.00  0.00    +0.000 C 
ATOM     14  C   UNL     1       0.799  -0.051  -0.755  0.00  0.00    +0.000 A 
ATOM     15  N   UNL     1       0.085   1.100  -0.742  0.00  0.00    +0.000 NA
ATOM     16  C   UNL     1      -1.037   1.147   0.014  0.00  0.00    +0.000 A 
ATOM     17  C   UNL     1      -1.460   0.073   0.789  0.00  0.00    +0.000 A 
ATOM     18  C   UNL     1      -0.716  -1.103   0.766  0.00  0.00    +0.000 A 
ATOM     19  C   UNL     1       0.428  -1.171  -0.019  0.00  0.00    +0.000 A 
ENDBRANCH  11  16
ENDBRANCH   1  12
TORSDOF 3
