REMARK  Name = *****
REMARK  6 active torsions:
REMARK  status: ('A' for Active; 'I' for Inactive)
REMARK    1  A    between atoms: C_1  and  C_2
REMARK    2  A    between atoms: C_2  and  O_4
REMARK    3  A    between atoms: O_4  and  C_5
REMARK    4  A    between atoms: C_5  and  C_6
REMARK    5  A    between atoms: C_5  and  C_13
REMARK    6  A    between atoms: C_6  and  C_7
REMARK                            x       y       z     vdW  Elec       q    Type
REMARK                         _______ _______ _______ _____ _____    ______ ____
ROOT
ATOM      1  C   UNL     1       4.487  -1.067   0.333  0.00  0.00    +0.000 C 
ENDROOT
BRANCH   1   2
ATOM      2  C   UNL     1       5.007  -2.459   0.659  0.00  0.00    +0.000 A 
ATOM      3  C   UNL     1       5.944  -3.074  -0.186  0.00  0.00    +0.000 A 
ATOM      4  C   UNL     1       6.440  -4.345   0.110  0.00  0.00    +0.000 A 
ATOM      5  C   UNL     1       6.009  -5.016   1.252  0.00  0.00    +0.000 A 
ATOM      6  C   UNL     1       5.079  -4.418   2.100  0.00  0.00    +0.000 A 
ATOM      7  C   UNL     1       4.581  -3.148   1.806  0.00  0.00    +0.000 A 
ENDBRANCH   1   2
BRANCH   1   8
ATOM      8  O   UNL     1       3.053  -1.084   0.481  0.00  0.00    +0.000 OA
BRANCH   8  10
ATOM      9  C   UNL     1       0.867  -0.798  -0.298  0.00  0.00    +0.000 C 
ATOM     10  C   UNL     1       2.329  -0.767  -0.624  0.00  0.00    +0.000 C 
ATOM     11  O   UNL     1       2.777  -0.508  -1.732  0.00  0.00    +0.000 OA
ENDBRANCH   8  10
ENDBRANCH   1   8
BRANCH   1  12
ATOM     12  C   UNL     1       5.082  -0.022   1.300  0.00  0.00    +0.000 C 
BRANCH  12  13
ATOM     13  C   UNL     1       4.642   1.403   1.034  0.00  0.00    +0.000 A 
ATOM     14  C   UNL     1       4.078   2.167   2.067  0.00  0.00    +0.000 A 
ATOM     15  C   UNL     1       3.680   3.486   1.843  0.00  0.00    +0.000 A 
ATOM     16  C   UNL     1       3.844   4.059   0.584  0.00  0.00    +0.000 A 
ATOM     17  C   UNL     1       4.411   3.316  -0.448  0.00  0.00    +0.000 A 
ATOM     18  C   UNL     1       4.815   1.998  -0.224  0.00  0.00    +0.000 A 
ENDBRANCH  12  13
ENDBRANCH   1  12
TORSDOF 5
