REMARK  Name = *****
REMARK  6 active torsions:
REMARK  status: ('A' for Active; 'I' for Inactive)
REMARK    1  A    between atoms: C_1  and  N_2
REMARK    2  A    between atoms: N_2  and  C_3
REMARK    3  A    between atoms: N_2  and  C_4
REMARK    4  A    between atoms: C_4  and  C_5
REMARK    5  A    between atoms: C_4  and  C_12
REMARK    6  A    between atoms: C_5  and  C_6
REMARK                            x       y       z     vdW  Elec       q    Type
REMARK                         _______ _______ _______ _____ _____    ______ ____
ROOT
ATOM      1  C   UNL     1       3.026  -0.102   1.252  0.00  0.00    +0.000 C 
ENDROOT
BRANCH   1   2
ATOM      2  C   UNL     1       4.547  -0.036   1.094  0.00  0.00    +0.000 A 
ATOM      3  C   UNL     1       5.260   1.008   1.710  0.00  0.00    +0.000 A 
ATOM      4  C   UNL     1       6.647   1.104   1.586  0.00  0.00    +0.000 A 
ATOM      5  C   UNL     1       7.347   0.157   0.843  0.00  0.00    +0.000 A 
ATOM      6  C   UNL     1       6.660  -0.885   0.226  0.00  0.00    +0.000 A 
ATOM      7  C   UNL     1       5.272  -0.981   0.350  0.00  0.00    +0.000 A 
ENDBRANCH   1   2
BRANCH   1   9
ATOM      8  C   UNL     1       2.983  -0.769   3.613  0.00  0.00    +0.000 C 
ATOM      9  N   UNL     1       2.541  -1.088   2.256  0.00  0.00    +0.000 N 
ATOM     10  C   UNL     1       2.812  -2.487   1.946  0.00  0.00    +0.000 C 
ATOM     11  H   UNL     1       1.527  -0.990   2.206  0.00  0.00    +0.000 HD
ENDBRANCH   1   9
BRANCH   1  12
ATOM     12  C   UNL     1       2.270  -0.254  -0.102  0.00  0.00    +0.000 C 
BRANCH  12  13
ATOM     13  C   UNL     1       2.348   0.978  -0.981  0.00  0.00    +0.000 A 
ATOM     14  C   UNL     1       3.291   1.064  -2.014  0.00  0.00    +0.000 A 
ATOM     15  C   UNL     1       3.368   2.208  -2.809  0.00  0.00    +0.000 A 
ATOM     16  C   UNL     1       2.505   3.278  -2.579  0.00  0.00    +0.000 A 
ATOM     17  C   UNL     1       1.565   3.205  -1.553  0.00  0.00    +0.000 A 
ATOM     18  C   UNL     1       1.487   2.062  -0.757  0.00  0.00    +0.000 A 
ENDBRANCH  12  13
ENDBRANCH   1  12
TORSDOF 4
