REMARK  Name = *****
REMARK  3 active torsions:
REMARK  status: ('A' for Active; 'I' for Inactive)
REMARK    1  A    between atoms: C_1  and  C_2
REMARK    2  A    between atoms: C_7  and  N_8
REMARK    3  A    between atoms: C_9  and  C_10
REMARK                            x       y       z     vdW  Elec       q    Type
REMARK                         _______ _______ _______ _____ _____    ______ ____
ROOT
ATOM      1  N   UNL     1       1.221  -2.337  -0.262  0.00  0.00    +0.000 NA
ATOM      2  C   UNL     1       1.906  -2.762   0.752  0.00  0.00    +0.000 C 
ENDROOT
BRANCH   1   9
ATOM      3  C   UNL     1       2.414   0.213  -0.975  0.00  0.00    +0.000 C 
ATOM      4  C   UNL     1       1.035   0.102  -0.390  0.00  0.00    +0.000 A 
ATOM      5  C   UNL     1       0.276   1.260  -0.161  0.00  0.00    +0.000 A 
ATOM      6  C   UNL     1      -1.011   1.173   0.374  0.00  0.00    +0.000 A 
ATOM      7  C   UNL     1      -1.553  -0.072   0.682  0.00  0.00    +0.000 A 
ATOM      8  C   UNL     1      -0.803  -1.228   0.465  0.00  0.00    +0.000 A 
ATOM      9  C   UNL     1       0.495  -1.152  -0.053  0.00  0.00    +0.000 A 
ENDBRANCH   1   9
BRANCH   2  10
ATOM     10  C   UNL     1       2.719  -3.991   0.681  0.00  0.00    +0.000 A 
ATOM     11  C   UNL     1       2.771  -4.748  -0.494  0.00  0.00    +0.000 A 
ATOM     12  C   UNL     1       3.548  -5.908  -0.539  0.00  0.00    +0.000 A 
ATOM     13  C   UNL     1       4.267  -6.304   0.588  0.00  0.00    +0.000 A 
ATOM     14  C   UNL     1       4.217  -5.551   1.762  0.00  0.00    +0.000 A 
ATOM     15  C   UNL     1       3.441  -4.390   1.811  0.00  0.00    +0.000 A 
ATOM     16 CL   UNL     1       5.224  -7.733   0.532  0.00  0.00    +0.000 Cl
ENDBRANCH   2  10
TORSDOF 2
