REMARK  Name = *****
REMARK  4 active torsions:
REMARK  status: ('A' for Active; 'I' for Inactive)
REMARK    1  A    between atoms: C_6  and  C_7
REMARK    2  A    between atoms: C_7  and  C_9
REMARK    3  A    between atoms: C_9  and  C_10
REMARK    4  A    between atoms: C_10  and  C_11
REMARK                            x       y       z     vdW  Elec       q    Type
REMARK                         _______ _______ _______ _____ _____    ______ ____
ROOT
ATOM      1  C   UNL     1       3.811   0.077  -0.593  0.00  0.00    +0.000 C 
ATOM      2  O   UNL     1       4.266  -0.959  -1.071  0.00  0.00    +0.000 OA
ENDROOT
BRANCH   1   8
ATOM      3  C   UNL     1       1.561  -0.984  -0.493  0.00  0.00    +0.000 A 
ATOM      4  C   UNL     1       0.198  -0.973  -0.186  0.00  0.00    +0.000 A 
ATOM      5  C   UNL     1      -0.374   0.164   0.378  0.00  0.00    +0.000 A 
ATOM      6  C   UNL     1       0.408   1.289   0.638  0.00  0.00    +0.000 A 
ATOM      7  C   UNL     1       1.774   1.280   0.331  0.00  0.00    +0.000 A 
ATOM      8  C   UNL     1       2.359   0.142  -0.239  0.00  0.00    +0.000 A 
ATOM      9 CL   UNL     1      -2.051   0.182   0.756  0.00  0.00    +0.000 Cl
ENDBRANCH   1   8
BRANCH   1  10
ATOM     10  C   UNL     1       4.677   1.304  -0.360  0.00  0.00    +0.000 C 
BRANCH  10  11
ATOM     11  C   UNL     1       6.134   1.060  -0.772  0.00  0.00    +0.000 C 
BRANCH  11  12
ATOM     12  C   UNL     1       6.959   2.333  -0.639  0.00  0.00    +0.000 C 
ATOM     13  S   UNL     1       8.727   2.063  -1.010  0.00  0.00    +0.000 S 
ATOM     14  C   UNL     1       8.872   3.158   0.298  0.00  0.00    +0.000 C 
ATOM     15  O   UNL     1       9.762   3.920   0.612  0.00  0.00    +0.000 OA
ATOM     16  S   UNL     1       7.400   2.759   1.078  0.00  0.00    +0.000 S 
ENDBRANCH  11  12
ENDBRANCH  10  11
ENDBRANCH   1  10
TORSDOF 4
