REMARK  Name = *****
REMARK  4 active torsions:
REMARK  status: ('A' for Active; 'I' for Inactive)
REMARK    1  A    between atoms: C_1  and  C_2
REMARK    2  A    between atoms: C_4  and  N_8
REMARK    3  A    between atoms: C_9  and  O_18
REMARK    4  A    between atoms: O_18  and  O_19
REMARK                            x       y       z     vdW  Elec       q    Type
REMARK                         _______ _______ _______ _____ _____    ______ ____
ROOT
ATOM      1  N   UNL     1      -1.534   2.641   0.135  0.00  0.00    +0.000 N 
ATOM      2  C   UNL     1      -2.474   3.110   1.152  0.00  0.00    +0.000 C 
ATOM      3  C   UNL     1      -3.082   4.358   0.593  0.00  0.00    +0.000 C 
ATOM      4  C   UNL     1      -2.734   4.649  -0.665  0.00  0.00    +0.000 C 
ATOM      5  S   UNL     1      -1.690   3.401  -1.368  0.00  0.00    +0.000 S 
ATOM      6  O   UNL     1      -0.418   4.091  -1.755  0.00  0.00    +0.000 OA
ATOM      7  C   UNL     1      -3.159   5.884  -1.390  0.00  0.00    +0.000 C 
ATOM      8  C   UNL     1      -3.767   6.926  -0.443  0.00  0.00    +0.000 C 
ATOM      9  C   UNL     1      -4.705   6.281   0.578  0.00  0.00    +0.000 C 
ATOM     10  C   UNL     1      -3.985   5.219   1.420  0.00  0.00    +0.000 C 
ENDROOT
BRANCH   1  14
ATOM     11  C   UNL     1      -1.560  -2.092   1.724  0.00  0.00    +0.000 C 
ATOM     12  C   UNL     1      -0.927  -0.983   0.934  0.00  0.00    +0.000 A 
ATOM     13  C   UNL     1      -1.526   0.289   0.893  0.00  0.00    +0.000 A 
ATOM     14  C   UNL     1      -0.952   1.364   0.191  0.00  0.00    +0.000 A 
ATOM     15  C   UNL     1       0.265   1.109  -0.467  0.00  0.00    +0.000 A 
ATOM     16  C   UNL     1       0.881  -0.145  -0.423  0.00  0.00    +0.000 A 
ATOM     17  C   UNL     1       0.288  -1.187   0.280  0.00  0.00    +0.000 A 
ENDBRANCH   1  14
BRANCH   2  18
ATOM     18  O   UNL     1      -1.791   3.487   2.359  0.00  0.00    +0.000 OA
BRANCH  18  19
ATOM     19  O   UNL     1      -1.691   2.297   3.200  0.00  0.00    +0.000 OA
ATOM     20  H   UNL     1      -1.233   2.521   4.025  0.00  0.00    +0.000 HD
ENDBRANCH  18  19
ENDBRANCH   2  18
TORSDOF 3
