REMARK  Name = *****
REMARK  2 active torsions:
REMARK  status: ('A' for Active; 'I' for Inactive)
REMARK    1  A    between atoms: C_4  and  C_7
REMARK    2  A    between atoms: N_9  and  C_10
REMARK                            x       y       z     vdW  Elec       q    Type
REMARK                         _______ _______ _______ _____ _____    ______ ____
ROOT
ATOM      1  C   UNL     1      -2.841  -0.725  -0.491  0.00  0.00    +0.000 C 
ATOM      2  C   UNL     1      -3.301  -1.946  -0.214  0.00  0.00    +0.000 C 
ATOM      3  N   UNL     1      -3.914  -0.875   0.360  0.00  0.00    +0.000 N 
ENDROOT
BRANCH   1   7
ATOM      4  C   UNL     1       1.119   0.493   0.537  0.00  0.00    +0.000 A 
ATOM      5  C   UNL     1       0.757   0.287  -0.793  0.00  0.00    +0.000 A 
ATOM      6  C   UNL     1      -0.544  -0.112  -1.110  0.00  0.00    +0.000 A 
ATOM      7  C   UNL     1      -1.494  -0.315  -0.100  0.00  0.00    +0.000 A 
ATOM      8  C   UNL     1      -1.119  -0.097   1.234  0.00  0.00    +0.000 A 
ATOM      9  C   UNL     1       0.182   0.302   1.550  0.00  0.00    +0.000 A 
ENDBRANCH   1   7
BRANCH   3  10
ATOM     10  C   UNL     1      -5.207  -0.475  -0.076  0.00  0.00    +0.000 A 
ATOM     11  C   UNL     1      -5.694  -0.614  -1.387  0.00  0.00    +0.000 A 
ATOM     12  C   UNL     1      -6.984  -0.190  -1.723  0.00  0.00    +0.000 A 
ATOM     13  C   UNL     1      -7.808   0.380  -0.755  0.00  0.00    +0.000 A 
ATOM     14  C   UNL     1      -7.344   0.525   0.550  0.00  0.00    +0.000 A 
ATOM     15  C   UNL     1      -6.056   0.100   0.884  0.00  0.00    +0.000 A 
ENDBRANCH   3  10
TORSDOF 2
