REMARK  Name = *****
REMARK  2 active torsions:
REMARK  status: ('A' for Active; 'I' for Inactive)
REMARK    1  A    between atoms: C_1  and  C_2
REMARK    2  A    between atoms: C_5  and  C_8
REMARK                            x       y       z     vdW  Elec       q    Type
REMARK                         _______ _______ _______ _____ _____    ______ ____
ROOT
ATOM      1  C   UNL     1      -3.172  -0.016  -0.023  0.00  0.00    +0.000 A 
ATOM      2  C   UNL     1      -3.964  -0.591   0.889  0.00  0.00    +0.000 A 
ATOM      3  C   UNL     1      -5.425  -0.610   0.807  0.00  0.00    +0.000 A 
ATOM      4  C   UNL     1      -6.139  -1.279   1.816  0.00  0.00    +0.000 A 
ATOM      5  C   UNL     1      -7.534  -1.328   1.798  0.00  0.00    +0.000 A 
ATOM      6  C   UNL     1      -8.237  -0.708   0.771  0.00  0.00    +0.000 A 
ATOM      7  C   UNL     1      -7.542  -0.039  -0.236  0.00  0.00    +0.000 A 
ATOM      8  C   UNL     1      -6.135   0.014  -0.227  0.00  0.00    +0.000 A 
ATOM      9  C   UNL     1      -5.466   0.744  -1.331  0.00  0.00    +0.000 A 
ATOM     10  O   UNL     1      -6.138   1.313  -2.186  0.00  0.00    +0.000 OA
ATOM     11  S   UNL     1      -3.719   0.791  -1.437  0.00  0.00    +0.000 S 
ENDROOT
BRANCH   1  16
ATOM     12  C   UNL     1       2.556  -0.219   0.764  0.00  0.00    +0.000 C 
ATOM     13  C   UNL     1       1.071  -0.175   0.553  0.00  0.00    +0.000 A 
ATOM     14  C   UNL     1       0.406  -1.217  -0.102  0.00  0.00    +0.000 A 
ATOM     15  C   UNL     1      -0.977  -1.162  -0.296  0.00  0.00    +0.000 A 
ATOM     16  C   UNL     1      -1.714  -0.061   0.158  0.00  0.00    +0.000 A 
ATOM     17  C   UNL     1      -1.049   0.981   0.816  0.00  0.00    +0.000 A 
ATOM     18  C   UNL     1       0.334   0.924   1.010  0.00  0.00    +0.000 A 
ENDBRANCH   1  16
TORSDOF 1
