REMARK  Name = *****
REMARK  7 active torsions:
REMARK  status: ('A' for Active; 'I' for Inactive)
REMARK    1  A    between atoms: C_1  and  C_2
REMARK    2  A    between atoms: C_4  and  C_18
REMARK    3  A    between atoms: C_6  and  C_8
REMARK    4  A    between atoms: C_8  and  C_9
REMARK    5  A    between atoms: C_9  and  C_10
REMARK    6  A    between atoms: C_13  and  O_16
REMARK    7  A    between atoms: O_16  and  C_17
REMARK                            x       y       z     vdW  Elec       q    Type
REMARK                         _______ _______ _______ _____ _____    ______ ____
ROOT
ATOM      1  C   UNL     1      -2.455   1.041   0.148  0.00  0.00    +0.000 C 
ENDROOT
BRANCH   1   7
ATOM      2  C   UNL     1       1.052  -1.692   2.523  0.00  0.00    +0.000 C 
ATOM      3  C   UNL     1       0.543  -1.038   1.273  0.00  0.00    +0.000 A 
ATOM      4  C   UNL     1       1.224  -1.202   0.060  0.00  0.00    +0.000 A 
ATOM      5  C   UNL     1       0.743  -0.617  -1.118  0.00  0.00    +0.000 A 
ATOM      6  C   UNL     1      -0.453   0.109  -1.080  0.00  0.00    +0.000 A 
ATOM      7  C   UNL     1      -1.155   0.275   0.121  0.00  0.00    +0.000 A 
ATOM      8  C   UNL     1      -0.652  -0.310   1.292  0.00  0.00    +0.000 A 
ATOM      9  C   UNL     1       1.465  -0.825  -2.417  0.00  0.00    +0.000 C 
ENDBRANCH   1   7
BRANCH   1  10
ATOM     10  C   UNL     1      -3.644   0.145  -0.211  0.00  0.00    +0.000 C 
BRANCH  10  11
ATOM     11  C   UNL     1      -4.947   0.905  -0.160  0.00  0.00    +0.000 A 
ATOM     12  C   UNL     1      -5.388   1.638  -1.269  0.00  0.00    +0.000 A 
ATOM     13  C   UNL     1      -6.585   2.360  -1.217  0.00  0.00    +0.000 A 
ATOM     14  C   UNL     1      -7.355   2.361  -0.054  0.00  0.00    +0.000 A 
ATOM     15  C   UNL     1      -6.915   1.634   1.054  0.00  0.00    +0.000 A 
ATOM     16  C   UNL     1      -5.720   0.913   1.006  0.00  0.00    +0.000 A 
BRANCH  14  17
ATOM     17  O   UNL     1      -8.538   3.022   0.128  0.00  0.00    +0.000 OA
ATOM     18  C   UNL     1      -9.026   3.782  -0.970  0.00  0.00    +0.000 C 
ENDBRANCH  14  17
ENDBRANCH  10  11
ENDBRANCH   1  10
TORSDOF 4
