REMARK  Name = *****
REMARK  2 active torsions:
REMARK  status: ('A' for Active; 'I' for Inactive)
REMARK    1  A    between atoms: C_4  and  C_7
REMARK    2  A    between atoms: C_8  and  C_9
REMARK                            x       y       z     vdW  Elec       q    Type
REMARK                         _______ _______ _______ _____ _____    ______ ____
ROOT
ATOM      1  C   UNL     1       2.934   0.196  -0.318  0.00  0.00    +0.000 C 
ATOM      2  C   UNL     1       4.125   0.268  -0.453  0.00  0.00    +0.000 C 
ENDROOT
BRANCH   1   6
ATOM      3  C   UNL     1      -1.257  -0.057   0.144  0.00  0.00    +0.000 A 
ATOM      4  C   UNL     1      -0.638   1.191   0.066  0.00  0.00    +0.000 A 
ATOM      5  C   UNL     1       0.747   1.275  -0.086  0.00  0.00    +0.000 A 
ATOM      6  C   UNL     1       1.515   0.110  -0.160  0.00  0.00    +0.000 A 
ATOM      7  C   UNL     1       0.893  -1.138  -0.082  0.00  0.00    +0.000 A 
ATOM      8  C   UNL     1      -0.493  -1.221   0.070  0.00  0.00    +0.000 A 
ENDBRANCH   1   6
BRANCH   2   9
ATOM      9  C   UNL     1       5.544   0.354  -0.616  0.00  0.00    +0.000 A 
ATOM     10  C   UNL     1       6.166   1.603  -0.679  0.00  0.00    +0.000 A 
ATOM     11  C   UNL     1       7.551   1.687  -0.840  0.00  0.00    +0.000 A 
ATOM     12  C   UNL     1       8.313   0.523  -0.938  0.00  0.00    +0.000 A 
ATOM     13  C   UNL     1       7.694  -0.725  -0.875  0.00  0.00    +0.000 A 
ATOM     14  C   UNL     1       6.309  -0.810  -0.714  0.00  0.00    +0.000 A 
ENDBRANCH   2   9
TORSDOF 2
