REMARK  Name = *****
REMARK  3 active torsions:
REMARK  status: ('A' for Active; 'I' for Inactive)
REMARK    1  A    between atoms: C_5  and  C_6
REMARK    2  A    between atoms: C_6  and  C_7
REMARK    3  A    between atoms: C_7  and  C_8
REMARK                            x       y       z     vdW  Elec       q    Type
REMARK                         _______ _______ _______ _____ _____    ______ ____
ROOT
ATOM      1  C   UNL     1      -1.826   0.067  -1.545  0.00  0.00    +0.000 C 
ENDROOT
BRANCH   1   6
ATOM      2  C   UNL     1      -2.404  -0.281   0.930  0.00  0.00    +0.000 C 
ATOM      3  C   UNL     1      -2.220  -1.759   1.098  0.00  0.00    +0.000 C 
ATOM      4  C   UNL     1      -1.015  -2.140   0.657  0.00  0.00    +0.000 C 
ATOM      5  C   UNL     1      -0.234  -0.975   0.159  0.00  0.00    +0.000 C 
ATOM      6  C   UNL     1      -1.307   0.095  -0.091  0.00  0.00    +0.000 C 
ATOM      7  F   UNL     1       0.493  -1.245  -0.945  0.00  0.00    +0.000 F 
ATOM      8  F   UNL     1       0.630  -0.544   1.112  0.00  0.00    +0.000 F 
ENDBRANCH   1   6
BRANCH   1   9
ATOM      9  C   UNL     1      -2.764   1.239  -1.857  0.00  0.00    +0.000 C 
BRANCH   9  10
ATOM     10  C   UNL     1      -3.208   1.224  -3.298  0.00  0.00    +0.000 A 
ATOM     11  C   UNL     1      -4.323   0.470  -3.689  0.00  0.00    +0.000 A 
ATOM     12  C   UNL     1      -4.725   0.442  -5.026  0.00  0.00    +0.000 A 
ATOM     13  C   UNL     1      -4.013   1.162  -5.983  0.00  0.00    +0.000 A 
ATOM     14  C   UNL     1      -2.899   1.909  -5.606  0.00  0.00    +0.000 A 
ATOM     15  C   UNL     1      -2.496   1.938  -4.271  0.00  0.00    +0.000 A 
ENDBRANCH   9  10
ENDBRANCH   1   9
TORSDOF 3
