REMARK  Name = *****
REMARK  5 active torsions:
REMARK  status: ('A' for Active; 'I' for Inactive)
REMARK    1  A    between atoms: C_1  and  C_2
REMARK    2  A    between atoms: C_2  and  C_3
REMARK    3  A    between atoms: C_2  and  O_8
REMARK    4  A    between atoms: O_8  and  C_9
REMARK    5  A    between atoms: C_9  and  C_11
REMARK                            x       y       z     vdW  Elec       q    Type
REMARK                         _______ _______ _______ _____ _____    ______ ____
ROOT
ATOM      1  C   UNL     1       3.088   1.714  -1.462  0.00  0.00    +0.000 C 
ATOM      2  O   UNL     1       3.106   2.512  -0.539  0.00  0.00    +0.000 OA
ENDROOT
BRANCH   1   3
ATOM      3  C   UNL     1       3.208   2.121  -2.889  0.00  0.00    +0.000 A 
ATOM      4  C   UNL     1       3.424   3.479  -3.171  0.00  0.00    +0.000 A 
ATOM      5  C   UNL     1       3.498   3.924  -4.494  0.00  0.00    +0.000 A 
ATOM      6  C   UNL     1       3.355   3.013  -5.538  0.00  0.00    +0.000 A 
ATOM      7  C   UNL     1       3.146   1.660  -5.271  0.00  0.00    +0.000 A 
ATOM      8  C   UNL     1       3.073   1.212  -3.948  0.00  0.00    +0.000 A 
ATOM      9 CL   UNL     1       3.430   3.561  -7.166  0.00  0.00    +0.000 Cl
ENDBRANCH   1   3
BRANCH   1  10
ATOM     10  O   UNL     1       2.918   0.372  -1.357  0.00  0.00    +0.000 OA
BRANCH  10  12
ATOM     11  C   UNL     1       1.094  -0.058   0.147  0.00  0.00    +0.000 C 
ATOM     12  C   UNL     1       2.609  -0.121  -0.038  0.00  0.00    +0.000 C 
BRANCH  12  13
ATOM     13  C   UNL     1       3.136  -1.554   0.128  0.00  0.00    +0.000 C 
ATOM     14  C   UNL     1       4.657  -1.662   0.007  0.00  0.00    +0.000 C 
ATOM     15  C   UNL     1       4.919  -3.152  -0.201  0.00  0.00    +0.000 C 
ATOM     16  C   UNL     1       3.611  -3.744  -0.726  0.00  0.00    +0.000 C 
ATOM     17  C   UNL     1       2.670  -2.560  -0.926  0.00  0.00    +0.000 C 
ENDBRANCH  12  13
ENDBRANCH  10  12
ENDBRANCH   1  10
TORSDOF 4
