REMARK  Name = *****
REMARK  3 active torsions:
REMARK  status: ('A' for Active; 'I' for Inactive)
REMARK    1  A    between atoms: C_2  and  C_3
REMARK    2  A    between atoms: C_4  and  C_8
REMARK    3  A    between atoms: C_9  and  C_10
REMARK                            x       y       z     vdW  Elec       q    Type
REMARK                         _______ _______ _______ _____ _____    ______ ____
ROOT
ATOM      1  C   UNL     1       4.055   2.542   0.004  0.00  0.00    +0.000 C 
ATOM      2  C   UNL     1       3.639   3.668  -0.030  0.00  0.00    +0.000 C 
ENDROOT
BRANCH   2   3
ATOM      3  C   UNL     1       3.145   5.009  -0.072  0.00  0.00    +0.000 A 
ATOM      4  C   UNL     1       1.827   5.257  -0.465  0.00  0.00    +0.000 A 
ATOM      5  C   UNL     1       1.345   6.567  -0.507  0.00  0.00    +0.000 A 
ATOM      6  C   UNL     1       2.179   7.629  -0.157  0.00  0.00    +0.000 A 
ATOM      7  C   UNL     1       3.495   7.383   0.236  0.00  0.00    +0.000 A 
ATOM      8  C   UNL     1       3.978   6.074   0.279  0.00  0.00    +0.000 A 
ENDBRANCH   2   3
BRANCH   1  10
ATOM      9  C   UNL     1       3.784   0.051   0.064  0.00  0.00    +0.000 A 
ATOM     10  C   UNL     1       4.548   1.202   0.042  0.00  0.00    +0.000 A 
ATOM     11  S   UNL     1       6.225   0.848   0.067  0.00  0.00    +0.000 S 
ATOM     12  C   UNL     1       5.936  -0.837   0.105  0.00  0.00    +0.000 A 
ATOM     13  C   UNL     1       4.589  -1.127   0.100  0.00  0.00    +0.000 A 
BRANCH   9  15
ATOM     14  C   UNL     1       1.151   0.015   0.041  0.00  0.00    +0.000 C 
ATOM     15  C   UNL     1       2.352   0.033   0.051  0.00  0.00    +0.000 C 
ENDBRANCH   9  15
ENDBRANCH   1  10
TORSDOF 3
