REMARK  Name = *****
REMARK  3 active torsions:
REMARK  status: ('A' for Active; 'I' for Inactive)
REMARK    1  A    between atoms: C_4  and  C_7
REMARK    2  A    between atoms: C_8  and  C_9
REMARK    3  A    between atoms: C_14  and  C_15
REMARK                            x       y       z     vdW  Elec       q    Type
REMARK                         _______ _______ _______ _____ _____    ______ ____
ROOT
ATOM      1  C   UNL     1      -0.604   0.049  -0.033  0.00  0.00    +0.000 C 
ATOM      2  C   UNL     1       0.597   0.029  -0.026  0.00  0.00    +0.000 C 
ENDROOT
BRANCH   1   6
ATOM      3  C   UNL     1      -4.826   0.061  -0.069  0.00  0.00    +0.000 A 
ATOM      4  C   UNL     1      -4.130  -1.122  -0.314  0.00  0.00    +0.000 A 
ATOM      5  C   UNL     1      -2.734  -1.126  -0.303  0.00  0.00    +0.000 A 
ATOM      6  C   UNL     1      -2.034   0.055  -0.046  0.00  0.00    +0.000 A 
ATOM      7  C   UNL     1      -2.732   1.239   0.199  0.00  0.00    +0.000 A 
ATOM      8  C   UNL     1      -4.129   1.242   0.187  0.00  0.00    +0.000 A 
ENDBRANCH   1   6
BRANCH   2   9
ATOM      9  C   UNL     1       2.030  -0.013  -0.026  0.00  0.00    +0.000 A 
ATOM     10  C   UNL     1       2.727   1.188  -0.211  0.00  0.00    +0.000 A 
ATOM     11  C   UNL     1       4.122   1.200  -0.231  0.00  0.00    +0.000 A 
ATOM     12  C   UNL     1       4.827   0.012  -0.069  0.00  0.00    +0.000 A 
ATOM     13  C   UNL     1       4.140  -1.189   0.116  0.00  0.00    +0.000 A 
ATOM     14  C   UNL     1       2.734  -1.219   0.147  0.00  0.00    +0.000 A 
BRANCH  14  15
ATOM     15  C   UNL     1       2.037  -2.535   0.343  0.00  0.00    +0.000 C 
ATOM     16 BR   UNL     1       1.640  -3.332  -1.386  0.00  0.00    +0.000 Br
ENDBRANCH  14  15
ENDBRANCH   2   9
TORSDOF 3
