REMARK  Name = *****
REMARK  3 active torsions:
REMARK  status: ('A' for Active; 'I' for Inactive)
REMARK    1  A    between atoms: C_5  and  C_6
REMARK    2  A    between atoms: C_6  and  C_7
REMARK    3  A    between atoms: C_7  and  C_8
REMARK                            x       y       z     vdW  Elec       q    Type
REMARK                         _______ _______ _______ _____ _____    ______ ____
ROOT
ATOM      1  C   UNL     1       1.285  -2.708   2.074  0.00  0.00    +0.000 C 
ENDROOT
BRANCH   1   2
ATOM      2  C   UNL     1       1.283  -3.065   3.540  0.00  0.00    +0.000 A 
ATOM      3  C   UNL     1       0.435  -4.068   4.027  0.00  0.00    +0.000 A 
ATOM      4  C   UNL     1       0.423  -4.386   5.386  0.00  0.00    +0.000 A 
ATOM      5  C   UNL     1       1.253  -3.700   6.271  0.00  0.00    +0.000 A 
ATOM      6  C   UNL     1       2.094  -2.695   5.798  0.00  0.00    +0.000 A 
ATOM      7  C   UNL     1       2.108  -2.377   4.439  0.00  0.00    +0.000 A 
ENDBRANCH   1   2
BRANCH   1   8
ATOM      8  C   UNL     1       0.314  -1.560   1.771  0.00  0.00    +0.000 C 
BRANCH   8  13
ATOM      9  C   UNL     1       1.551  -0.478  -0.213  0.00  0.00    +0.000 C 
ATOM     10  C   UNL     1       1.249   0.986  -0.300  0.00  0.00    +0.000 C 
ATOM     11  C   UNL     1      -0.043   1.313  -0.229  0.00  0.00    +0.000 C 
ATOM     12  S   UNL     1      -1.098  -0.042  -0.046  0.00  0.00    +0.000 S 
ATOM     13  C   UNL     1       0.288  -1.211   0.275  0.00  0.00    +0.000 C 
ENDBRANCH   8  13
ENDBRANCH   1   8
TORSDOF 3
