REMARK  Name = *****
REMARK  4 active torsions:
REMARK  status: ('A' for Active; 'I' for Inactive)
REMARK    1  A    between atoms: C_1  and  C_2
REMARK    2  A    between atoms: C_4  and  O_8
REMARK    3  A    between atoms: O_8  and  C_9
REMARK    4  A    between atoms: C_9  and  C_11
REMARK                            x       y       z     vdW  Elec       q    Type
REMARK                         _______ _______ _______ _____ _____    ______ ____
ROOT
ATOM      1  C   UNL     1      -1.352   3.557  -0.503  0.00  0.00    +0.000 C 
ATOM      2  O   UNL     1      -0.436   3.608  -1.309  0.00  0.00    +0.000 OA
ENDROOT
BRANCH   1   3
ATOM      3  C   UNL     1      -2.212   4.731  -0.180  0.00  0.00    +0.000 A 
ATOM      4  C   UNL     1      -1.940   5.945  -0.830  0.00  0.00    +0.000 A 
ATOM      5  C   UNL     1      -2.714   7.079  -0.565  0.00  0.00    +0.000 A 
ATOM      6  C   UNL     1      -3.761   7.003   0.350  0.00  0.00    +0.000 A 
ATOM      7  C   UNL     1      -4.043   5.804   1.003  0.00  0.00    +0.000 A 
ATOM      8  C   UNL     1      -3.270   4.668   0.740  0.00  0.00    +0.000 A 
ATOM      9 CL   UNL     1      -4.714   8.397   0.677  0.00  0.00    +0.000 Cl
ENDBRANCH   1   3
BRANCH   1  10
ATOM     10  O   UNL     1      -1.764   2.462   0.233  0.00  0.00    +0.000 OA
BRANCH  10  14
ATOM     11  C   UNL     1       2.467  -0.091   0.571  0.00  0.00    +0.000 C 
ATOM     12  C   UNL     1       1.012   0.003   0.216  0.00  0.00    +0.000 A 
ATOM     13  C   UNL     1       0.325   1.214   0.367  0.00  0.00    +0.000 A 
ATOM     14  C   UNL     1      -1.031   1.283   0.045  0.00  0.00    +0.000 A 
ATOM     15  C   UNL     1      -1.730   0.155  -0.378  0.00  0.00    +0.000 A 
ATOM     16  C   UNL     1      -1.053  -1.055  -0.512  0.00  0.00    +0.000 A 
ATOM     17  C   UNL     1       0.310  -1.132  -0.214  0.00  0.00    +0.000 A 
ENDBRANCH  10  14
ENDBRANCH   1  10
TORSDOF 3
