REMARK  Name = *****
REMARK  4 active torsions:
REMARK  status: ('A' for Active; 'I' for Inactive)
REMARK    1  A    between atoms: C_1  and  C_2
REMARK    2  A    between atoms: C_2  and  C_13
REMARK    3  A    between atoms: C_3  and  C_6
REMARK    4  A    between atoms: C_3  and  C_7
REMARK                            x       y       z     vdW  Elec       q    Type
REMARK                         _______ _______ _______ _____ _____    ______ ____
ROOT
ATOM      1  C   UNL     1       0.953   0.052  -0.185  0.00  0.00    +0.000 C 
ATOM      2  C   UNL     1       2.449   0.204  -0.018  0.00  0.00    +0.000 C 
ATOM      3  C   UNL     1       3.287   0.978  -1.083  0.00  0.00    +0.000 C 
ATOM      4  N   UNL     1       3.327  -0.485  -0.971  0.00  0.00    +0.000 NA
ATOM      5  F   UNL     1       2.628  -1.109  -1.974  0.00  0.00    +0.000 F 
ATOM      6  C   UNL     1       2.611   1.584  -2.293  0.00  0.00    +0.000 C 
ENDROOT
BRANCH   3   7
ATOM      7  C   UNL     1       4.561   1.716  -0.660  0.00  0.00    +0.000 A 
ATOM      8  C   UNL     1       5.845   1.184  -0.886  0.00  0.00    +0.000 A 
ATOM      9  C   UNL     1       7.002   1.874  -0.514  0.00  0.00    +0.000 A 
ATOM     10  C   UNL     1       6.904   3.124   0.087  0.00  0.00    +0.000 A 
ATOM     11  C   UNL     1       5.650   3.685   0.312  0.00  0.00    +0.000 A 
ATOM     12  C   UNL     1       4.497   2.989  -0.062  0.00  0.00    +0.000 A 
ENDBRANCH   3   7
BRANCH   2  13
ATOM     13  C   UNL     1       2.906   0.191   1.445  0.00  0.00    +0.000 A 
ATOM     14  C   UNL     1       3.582  -0.908   2.010  0.00  0.00    +0.000 A 
ATOM     15  C   UNL     1       3.977  -0.917   3.350  0.00  0.00    +0.000 A 
ATOM     16  C   UNL     1       3.697   0.174   4.166  0.00  0.00    +0.000 A 
ATOM     17  C   UNL     1       3.019   1.270   3.643  0.00  0.00    +0.000 A 
ATOM     18  C   UNL     1       2.626   1.273   2.301  0.00  0.00    +0.000 A 
ENDBRANCH   2  13
TORSDOF 2
