REMARK  Name = *****
REMARK  3 active torsions:
REMARK  status: ('A' for Active; 'I' for Inactive)
REMARK    1  A    between atoms: C_4  and  O_7
REMARK    2  A    between atoms: O_7  and  C_8
REMARK    3  A    between atoms: C_8  and  C_10
REMARK                            x       y       z     vdW  Elec       q    Type
REMARK                         _______ _______ _______ _____ _____    ______ ____
ROOT
ATOM      1  C   UNL     1      -3.616  -0.619  -0.480  0.00  0.00    +0.000 C 
ATOM      2  S   UNL     1      -3.004  -1.952  -1.275  0.00  0.00    +0.000 S 
ENDROOT
BRANCH   1   3
ATOM      3  C   UNL     1      -4.982  -0.047  -0.598  0.00  0.00    +0.000 A 
ATOM      4  C   UNL     1      -5.567   0.601   0.498  0.00  0.00    +0.000 A 
ATOM      5  C   UNL     1      -6.848   1.130   0.383  0.00  0.00    +0.000 A 
ATOM      6  C   UNL     1      -7.567   1.027  -0.802  0.00  0.00    +0.000 A 
ATOM      7  C   UNL     1      -6.995   0.384  -1.897  0.00  0.00    +0.000 A 
ATOM      8  C   UNL     1      -5.707  -0.152  -1.797  0.00  0.00    +0.000 A 
ATOM      9  F   UNL     1      -7.402   1.746   1.435  0.00  0.00    +0.000 F 
ENDBRANCH   1   3
BRANCH   1  10
ATOM     10  O   UNL     1      -2.875   0.182   0.394  0.00  0.00    +0.000 OA
BRANCH  10  14
ATOM     11  C   UNL     1       1.059  -0.552   1.590  0.00  0.00    +0.000 A 
ATOM     12  C   UNL     1       0.802   0.337   0.542  0.00  0.00    +0.000 A 
ATOM     13  C   UNL     1      -0.509   0.574   0.134  0.00  0.00    +0.000 A 
ATOM     14  C   UNL     1      -1.545  -0.099   0.777  0.00  0.00    +0.000 A 
ATOM     15  C   UNL     1      -1.310  -0.971   1.836  0.00  0.00    +0.000 A 
ATOM     16  C   UNL     1       0.005  -1.203   2.238  0.00  0.00    +0.000 A 
ENDBRANCH  10  14
ENDBRANCH   1  10
TORSDOF 3
