REMARK  Name = *****
REMARK  4 active torsions:
REMARK  status: ('A' for Active; 'I' for Inactive)
REMARK    1  A    between atoms: C_4  and  N_7
REMARK    2  A    between atoms: N_7  and  S_8
REMARK    3  A    between atoms: S_8  and  N_9
REMARK    4  A    between atoms: N_9  and  C_10
REMARK                            x       y       z     vdW  Elec       q    Type
REMARK                         _______ _______ _______ _____ _____    ______ ____
ROOT
ATOM      1  S   UNL     1      -3.782  -0.777  -0.278  0.00  0.00    +0.000 S 
ENDROOT
BRANCH   1   2
ATOM      2  N   UNL     1      -2.840   0.409  -0.323  0.00  0.00    +0.000 NA
BRANCH   2   6
ATOM      3  C   UNL     1       1.290  -0.213   0.207  0.00  0.00    +0.000 A 
ATOM      4  C   UNL     1       0.563  -1.125  -0.551  0.00  0.00    +0.000 A 
ATOM      5  C   UNL     1      -0.815  -0.947  -0.731  0.00  0.00    +0.000 A 
ATOM      6  C   UNL     1      -1.516   0.131  -0.153  0.00  0.00    +0.000 A 
ATOM      7  C   UNL     1      -0.742   1.040   0.591  0.00  0.00    +0.000 A 
ATOM      8  C   UNL     1       0.636   0.874   0.777  0.00  0.00    +0.000 A 
ENDBRANCH   2   6
ENDBRANCH   1   2
BRANCH   1   9
ATOM      9  N   UNL     1      -5.167  -0.224  -0.532  0.00  0.00    +0.000 NA
BRANCH   9  10
ATOM     10  C   UNL     1      -6.207  -1.105  -0.560  0.00  0.00    +0.000 A 
ATOM     11  C   UNL     1      -6.316  -2.311   0.163  0.00  0.00    +0.000 A 
ATOM     12  C   UNL     1      -7.451  -3.128   0.091  0.00  0.00    +0.000 A 
ATOM     13  C   UNL     1      -8.530  -2.756  -0.705  0.00  0.00    +0.000 A 
ATOM     14  C   UNL     1      -8.468  -1.566  -1.421  0.00  0.00    +0.000 A 
ATOM     15  C   UNL     1      -7.327  -0.758  -1.340  0.00  0.00    +0.000 A 
ENDBRANCH   9  10
ENDBRANCH   1   9
TORSDOF 4
