REMARK  Name = *****
REMARK  4 active torsions:
REMARK  status: ('A' for Active; 'I' for Inactive)
REMARK    1  A    between atoms: C_1  and  C_2
REMARK    2  A    between atoms: C_2  and  C_4
REMARK    3  A    between atoms: C_5  and  C_11
REMARK    4  A    between atoms: C_12  and  C_13
REMARK                            x       y       z     vdW  Elec       q    Type
REMARK                         _______ _______ _______ _____ _____    ______ ____
ROOT
ATOM      1  C   UNL     1       3.132   0.965   0.936  0.00  0.00    +0.000 A 
ATOM      2  C   UNL     1       2.544   1.282   2.172  0.00  0.00    +0.000 A 
ATOM      3  C   UNL     1       3.131   2.268   2.977  0.00  0.00    +0.000 A 
ATOM      4  C   UNL     1       4.290   2.911   2.555  0.00  0.00    +0.000 A 
ATOM      5  C   UNL     1       4.890   2.589   1.345  0.00  0.00    +0.000 A 
ATOM      6  C   UNL     1       4.315   1.610   0.535  0.00  0.00    +0.000 A 
ATOM      7  F   UNL     1       4.842   3.850   3.334  0.00  0.00    +0.000 F 
ENDROOT
BRANCH   1   9
ATOM      8  C   UNL     1       1.121  -0.036  -0.334  0.00  0.00    +0.000 C 
ATOM      9  C   UNL     1       2.588  -0.056   0.005  0.00  0.00    +0.000 C 
ATOM     10  O   UNL     1       3.360  -0.861  -0.512  0.00  0.00    +0.000 OA
ENDBRANCH   1   9
BRANCH   2  11
ATOM     11  C   UNL     1       1.389   0.606   2.682  0.00  0.00    +0.000 C 
ATOM     12  C   UNL     1       0.422   0.039   3.114  0.00  0.00    +0.000 C 
BRANCH  12  13
ATOM     13  C   UNL     1      -0.730  -0.644   3.613  0.00  0.00    +0.000 A 
ATOM     14  C   UNL     1      -0.725  -2.037   3.718  0.00  0.00    +0.000 A 
ATOM     15  C   UNL     1      -1.853  -2.705   4.199  0.00  0.00    +0.000 A 
ATOM     16  C   UNL     1      -2.985  -1.982   4.574  0.00  0.00    +0.000 A 
ATOM     17  C   UNL     1      -2.992  -0.592   4.469  0.00  0.00    +0.000 A 
ATOM     18  C   UNL     1      -1.865   0.078   3.989  0.00  0.00    +0.000 A 
ENDBRANCH  12  13
ENDBRANCH   2  11
TORSDOF 3
