REMARK  Name = *****
REMARK  4 active torsions:
REMARK  status: ('A' for Active; 'I' for Inactive)
REMARK    1  A    between atoms: C_1  and  O_2
REMARK    2  A    between atoms: O_2  and  N_3
REMARK    3  A    between atoms: C_9  and  C_11
REMARK    4  A    between atoms: C_12  and  C_13
REMARK                            x       y       z     vdW  Elec       q    Type
REMARK                         _______ _______ _______ _____ _____    ______ ____
ROOT
ATOM      1  N   UNL     1       2.780  -0.086   0.963  0.00  0.00    +0.000 NA
ATOM      2  C   UNL     1       4.067  -0.228   0.871  0.00  0.00    +0.000 C 
ATOM      3  C   UNL     1       4.932   0.066  -0.333  0.00  0.00    +0.000 C 
ATOM      4  C   UNL     1       6.082   0.973   0.094  0.00  0.00    +0.000 C 
ATOM      5  C   UNL     1       7.001   0.278   1.097  0.00  0.00    +0.000 C 
ATOM      6  C   UNL     1       6.274  -0.389   2.226  0.00  0.00    +0.000 C 
ATOM      7  C   UNL     1       4.794  -0.722   2.087  0.00  0.00    +0.000 C 
ATOM      8  C   UNL     1       5.268   0.332   3.078  0.00  0.00    +0.000 C 
ENDROOT
BRANCH   1  10
ATOM      9  C   UNL     1       0.809   0.407  -0.088  0.00  0.00    +0.000 C 
ATOM     10  O   UNL     1       2.223   0.370  -0.238  0.00  0.00    +0.000 OA
ENDBRANCH   1  10
BRANCH   7  11
ATOM     11  C   UNL     1       4.386  -2.001   2.618  0.00  0.00    +0.000 C 
ATOM     12  C   UNL     1       4.028  -3.060   3.057  0.00  0.00    +0.000 C 
BRANCH  12  13
ATOM     13  C   UNL     1       3.582  -4.313   3.581  0.00  0.00    +0.000 A 
ATOM     14  C   UNL     1       2.579  -4.346   4.553  0.00  0.00    +0.000 A 
ATOM     15  C   UNL     1       2.139  -5.568   5.064  0.00  0.00    +0.000 A 
ATOM     16  C   UNL     1       2.700  -6.759   4.602  0.00  0.00    +0.000 A 
ATOM     17  C   UNL     1       3.701  -6.729   3.631  0.00  0.00    +0.000 A 
ATOM     18  C   UNL     1       4.142  -5.507   3.120  0.00  0.00    +0.000 A 
ENDBRANCH  12  13
ENDBRANCH   7  11
TORSDOF 3
