REMARK  Name = *****
REMARK  4 active torsions:
REMARK  status: ('A' for Active; 'I' for Inactive)
REMARK    1  A    between atoms: C_1  and  C_2
REMARK    2  A    between atoms: C_4  and  O_8
REMARK    3  A    between atoms: O_8  and  C_9
REMARK    4  A    between atoms: C_9  and  C_10
REMARK                            x       y       z     vdW  Elec       q    Type
REMARK                         _______ _______ _______ _____ _____    ______ ____
ROOT
ATOM      1  O   UNL     1      -1.613   2.419  -0.237  0.00  0.00    +0.000 OA
ENDROOT
BRANCH   1   5
ATOM      2  C   UNL     1       2.091  -0.849   0.434  0.00  0.00    +0.000 C 
ATOM      3  C   UNL     1       0.719  -0.479  -0.049  0.00  0.00    +0.000 A 
ATOM      4  C   UNL     1       0.245   0.835   0.103  0.00  0.00    +0.000 A 
ATOM      5  C   UNL     1      -1.041   1.179  -0.320  0.00  0.00    +0.000 A 
ATOM      6  C   UNL     1      -1.858   0.200  -0.890  0.00  0.00    +0.000 A 
ATOM      7  C   UNL     1      -1.404  -1.111  -1.029  0.00  0.00    +0.000 A 
ATOM      8  C   UNL     1      -0.121  -1.451  -0.605  0.00  0.00    +0.000 A 
ENDBRANCH   1   5
BRANCH   1   9
ATOM      9  C   UNL     1      -0.865   3.437   0.426  0.00  0.00    +0.000 C 
BRANCH   9  10
ATOM     10  C   UNL     1      -1.667   4.721   0.490  0.00  0.00    +0.000 A 
ATOM     11  C   UNL     1      -3.067   4.703   0.616  0.00  0.00    +0.000 A 
ATOM     12  C   UNL     1      -3.786   5.896   0.713  0.00  0.00    +0.000 A 
ATOM     13  C   UNL     1      -3.107   7.108   0.699  0.00  0.00    +0.000 A 
ATOM     14  C   UNL     1      -1.723   7.150   0.593  0.00  0.00    +0.000 A 
ATOM     15  C   UNL     1      -1.002   5.959   0.494  0.00  0.00    +0.000 A 
ATOM     16  F   UNL     1      -3.797   8.252   0.795  0.00  0.00    +0.000 F 
ENDBRANCH   9  10
ENDBRANCH   1   9
TORSDOF 3
