REMARK  Name = *****
REMARK  4 active torsions:
REMARK  status: ('A' for Active; 'I' for Inactive)
REMARK    1  A    between atoms: C_1  and  C_2
REMARK    2  A    between atoms: C_4  and  C_8
REMARK    3  A    between atoms: C_8  and  N_9
REMARK    4  A    between atoms: N_9  and  C_10
REMARK                            x       y       z     vdW  Elec       q    Type
REMARK                         _______ _______ _______ _____ _____    ______ ____
ROOT
ATOM      1  C   UNL     1       7.489  -3.366  -0.370  0.00  0.00    +0.000 A 
ATOM      2  C   UNL     1       7.495  -4.251  -1.459  0.00  0.00    +0.000 A 
ATOM      3  C   UNL     1       8.191  -5.453  -1.397  0.00  0.00    +0.000 A 
ATOM      4  C   UNL     1       8.900  -5.788  -0.253  0.00  0.00    +0.000 A 
ATOM      5  C   UNL     1       8.919  -4.920   0.829  0.00  0.00    +0.000 A 
ATOM      6  C   UNL     1       8.224  -3.717   0.771  0.00  0.00    +0.000 A 
ATOM      7  F   UNL     1       8.276  -2.888   1.825  0.00  0.00    +0.000 F 
ATOM      8  F   UNL     1       9.623  -5.238   1.926  0.00  0.00    +0.000 F 
ATOM      9  F   UNL     1       9.581  -6.942  -0.199  0.00  0.00    +0.000 F 
ATOM     10  F   UNL     1       8.192  -6.286  -2.448  0.00  0.00    +0.000 F 
ATOM     11  F   UNL     1       6.835  -3.942  -2.586  0.00  0.00    +0.000 F 
ENDROOT
BRANCH   1  12
ATOM     12  N   UNL     1       6.803  -2.140  -0.434  0.00  0.00    +0.000 NA
BRANCH  12  13
ATOM     13  C   UNL     1       5.540  -2.197  -0.109  0.00  0.00    +0.000 C 
BRANCH  13  17
ATOM     14  C   UNL     1       1.043   0.025   0.578  0.00  0.00    +0.000 C 
ATOM     15  C   UNL     1       2.514   0.042   0.216  0.00  0.00    +0.000 A 
ATOM     16  C   UNL     1       3.273  -1.165   0.256  0.00  0.00    +0.000 A 
ATOM     17  C   UNL     1       4.644  -1.009  -0.111  0.00  0.00    +0.000 A 
ATOM     18  C   UNL     1       5.206   0.227  -0.480  0.00  0.00    +0.000 A 
ATOM     19  C   UNL     1       4.425   1.372  -0.502  0.00  0.00    +0.000 A 
ATOM     20  C   UNL     1       3.084   1.279  -0.156  0.00  0.00    +0.000 A 
ATOM     21  O   UNL     1       2.754  -2.288   0.595  0.00  0.00    +0.000 OA
ENDBRANCH  13  17
ENDBRANCH  12  13
ENDBRANCH   1  12
TORSDOF 3
