REMARK  Name = *****
REMARK  5 active torsions:
REMARK  status: ('A' for Active; 'I' for Inactive)
REMARK    1  A    between atoms: C_1  and  O_2
REMARK    2  A    between atoms: O_2  and  C_3
REMARK    3  A    between atoms: C_3  and  C_12
REMARK    4  A    between atoms: N_4  and  C_5
REMARK    5  A    between atoms: C_5  and  C_6
REMARK                            x       y       z     vdW  Elec       q    Type
REMARK                         _______ _______ _______ _____ _____    ______ ____
ROOT
ATOM      1  C   UNL     1       3.054   1.193   0.597  0.00  0.00    +0.000 C 
ATOM      2  N   UNL     1       2.462   2.293   0.898  0.00  0.00    +0.000 NA
ENDROOT
BRANCH   1   3
ATOM      3  C   UNL     1       4.527   1.094   0.417  0.00  0.00    +0.000 A 
ATOM      4  C   UNL     1       5.158  -0.115   0.089  0.00  0.00    +0.000 A 
ATOM      5  C   UNL     1       6.545  -0.163  -0.077  0.00  0.00    +0.000 A 
ATOM      6  C   UNL     1       7.309   0.991   0.086  0.00  0.00    +0.000 A 
ATOM      7  C   UNL     1       6.692   2.196   0.415  0.00  0.00    +0.000 A 
ATOM      8  C   UNL     1       5.306   2.248   0.580  0.00  0.00    +0.000 A 
ENDBRANCH   1   3
BRANCH   1  10
ATOM      9  C   UNL     1       1.588  -0.113  -0.704  0.00  0.00    +0.000 C 
ATOM     10  O   UNL     1       2.447  -0.008   0.438  0.00  0.00    +0.000 OA
ENDBRANCH   1  10
BRANCH   2  11
ATOM     11  C   UNL     1       1.032   2.264   1.198  0.00  0.00    +0.000 C 
BRANCH  11  12
ATOM     12  C   UNL     1       0.592   3.506   1.941  0.00  0.00    +0.000 A 
ATOM     13  C   UNL     1       0.968   4.780   1.489  0.00  0.00    +0.000 A 
ATOM     14  C   UNL     1       0.534   5.928   2.153  0.00  0.00    +0.000 A 
ATOM     15  C   UNL     1      -0.288   5.817   3.272  0.00  0.00    +0.000 A 
ATOM     16  C   UNL     1      -0.678   4.559   3.727  0.00  0.00    +0.000 A 
ATOM     17  C   UNL     1      -0.243   3.409   3.063  0.00  0.00    +0.000 A 
ENDBRANCH  11  12
ENDBRANCH   2  11
TORSDOF 4
