REMARK  Name = *****
REMARK  3 active torsions:
REMARK  status: ('A' for Active; 'I' for Inactive)
REMARK    1  A    between atoms: C_6  and  C_7
REMARK    2  A    between atoms: C_7  and  O_9
REMARK    3  A    between atoms: O_9  and  C_10
REMARK                            x       y       z     vdW  Elec       q    Type
REMARK                         _______ _______ _______ _____ _____    ______ ____
ROOT
ATOM      1  C   UNL     1       3.586   0.029  -0.922  0.00  0.00    +0.000 C 
ATOM      2  O   UNL     1       4.195  -0.995  -1.191  0.00  0.00    +0.000 OA
ENDROOT
BRANCH   1   8
ATOM      3  C   UNL     1       1.514   1.207  -0.042  0.00  0.00    +0.000 A 
ATOM      4  C   UNL     1       0.220   1.143   0.486  0.00  0.00    +0.000 A 
ATOM      5  C   UNL     1      -0.385  -0.095   0.698  0.00  0.00    +0.000 A 
ATOM      6  C   UNL     1       0.292  -1.272   0.388  0.00  0.00    +0.000 A 
ATOM      7  C   UNL     1       1.585  -1.211  -0.139  0.00  0.00    +0.000 A 
ATOM      8  C   UNL     1       2.206   0.028  -0.358  0.00  0.00    +0.000 A 
ATOM      9 CL   UNL     1      -1.976  -0.168   1.347  0.00  0.00    +0.000 Cl
ENDBRANCH   1   8
BRANCH   1  10
ATOM     10  O   UNL     1       4.027   1.331  -1.076  0.00  0.00    +0.000 OA
BRANCH  10  11
ATOM     11  C   UNL     1       5.312   1.456  -1.615  0.00  0.00    +0.000 A 
ATOM     12  C   UNL     1       5.567   1.107  -2.943  0.00  0.00    +0.000 A 
ATOM     13  C   UNL     1       6.847   1.300  -3.461  0.00  0.00    +0.000 A 
ATOM     14  C   UNL     1       7.839   1.852  -2.655  0.00  0.00    +0.000 A 
ATOM     15  C   UNL     1       7.576   2.220  -1.337  0.00  0.00    +0.000 A 
ATOM     16  C   UNL     1       6.299   2.028  -0.812  0.00  0.00    +0.000 A 
ATOM     17  F   UNL     1       9.066   2.041  -3.157  0.00  0.00    +0.000 F 
ENDBRANCH  10  11
ENDBRANCH   1  10
TORSDOF 3
