REMARK  Name = *****
REMARK  3 active torsions:
REMARK  status: ('A' for Active; 'I' for Inactive)
REMARK    1  A    between atoms: C_6  and  C_7
REMARK    2  A    between atoms: C_7  and  S_8
REMARK    3  A    between atoms: S_8  and  C_10
REMARK                            x       y       z     vdW  Elec       q    Type
REMARK                         _______ _______ _______ _____ _____    ______ ____
ROOT
ATOM      1  S   UNL     1      -4.056   1.881   0.448  0.00  0.00    +0.000 S 
ATOM      2  O   UNL     1      -3.525   3.029  -0.362  0.00  0.00    +0.000 OA
ENDROOT
BRANCH   1   3
ATOM      3  C   UNL     1      -5.806   1.743  -0.002  0.00  0.00    +0.000 A 
ATOM      4  C   UNL     1      -6.599   0.729   0.554  0.00  0.00    +0.000 A 
ATOM      5  C   UNL     1      -7.951   0.632   0.216  0.00  0.00    +0.000 A 
ATOM      6  C   UNL     1      -8.509   1.554  -0.661  0.00  0.00    +0.000 A 
ATOM      7  C   UNL     1      -7.742   2.574  -1.208  0.00  0.00    +0.000 A 
ATOM      8  C   UNL     1      -6.389   2.671  -0.877  0.00  0.00    +0.000 A 
ATOM      9  F   UNL     1      -9.807   1.460  -0.979  0.00  0.00    +0.000 F 
ENDBRANCH   1   3
BRANCH   1  10
ATOM     10  C   UNL     1      -3.482   0.333  -0.332  0.00  0.00    +0.000 C 
BRANCH  10  16
ATOM     11  C   UNL     1      -1.112   0.706  -1.120  0.00  0.00    +0.000 A 
ATOM     12  C   UNL     1       0.267   0.553  -0.977  0.00  0.00    +0.000 A 
ATOM     13  C   UNL     1       0.769  -0.150   0.111  0.00  0.00    +0.000 A 
ATOM     14  C   UNL     1      -0.083  -0.701   1.060  0.00  0.00    +0.000 A 
ATOM     15  C   UNL     1      -1.464  -0.551   0.919  0.00  0.00    +0.000 A 
ATOM     16  C   UNL     1      -1.992   0.149  -0.178  0.00  0.00    +0.000 A 
ATOM     17  F   UNL     1       2.093  -0.295   0.250  0.00  0.00    +0.000 F 
ENDBRANCH  10  16
ENDBRANCH   1  10
TORSDOF 3
