REMARK  Name = *****
REMARK  3 active torsions:
REMARK  status: ('A' for Active; 'I' for Inactive)
REMARK    1  A    between atoms: C_4  and  C_7
REMARK    2  A    between atoms: C_7  and  O_8
REMARK    3  A    between atoms: O_8  and  C_9
REMARK                            x       y       z     vdW  Elec       q    Type
REMARK                         _______ _______ _______ _____ _____    ______ ____
ROOT
ATOM      1  C   UNL     1      -4.907  -0.787  -0.103  0.00  0.00    +0.000 C 
ATOM      2  C   UNL     1      -5.907  -1.690  -0.011  0.00  0.00    +0.000 C 
ATOM      3  C   UNL     1      -7.024  -0.691  -0.255  0.00  0.00    +0.000 C 
ATOM      4  C   UNL     1      -5.884   0.368  -0.404  0.00  0.00    +0.000 C 
ATOM      5  F   UNL     1      -5.781   0.956  -1.626  0.00  0.00    +0.000 F 
ATOM      6  F   UNL     1      -5.912   1.396   0.485  0.00  0.00    +0.000 F 
ATOM      7  F   UNL     1      -7.897  -0.464   0.762  0.00  0.00    +0.000 F 
ATOM      8  F   UNL     1      -7.798  -0.870  -1.358  0.00  0.00    +0.000 F 
ATOM      9  F   UNL     1      -5.911  -2.980   0.227  0.00  0.00    +0.000 F 
ENDROOT
BRANCH   1  10
ATOM     10  O   UNL     1      -3.631  -0.868   0.006  0.00  0.00    +0.000 OA
BRANCH  10  11
ATOM     11  C   UNL     1      -2.946   0.370  -0.192  0.00  0.00    +0.000 C 
BRANCH  11  15
ATOM     12  C   UNL     1       1.336  -0.158   0.056  0.00  0.00    +0.000 A 
ATOM     13  C   UNL     1       0.537  -1.199  -0.410  0.00  0.00    +0.000 A 
ATOM     14  C   UNL     1      -0.848  -1.037  -0.486  0.00  0.00    +0.000 A 
ATOM     15  C   UNL     1      -1.452   0.163  -0.083  0.00  0.00    +0.000 A 
ATOM     16  C   UNL     1      -0.633   1.209   0.369  0.00  0.00    +0.000 A 
ATOM     17  C   UNL     1       0.753   1.047   0.442  0.00  0.00    +0.000 A 
ENDBRANCH  11  15
ENDBRANCH  10  11
ENDBRANCH   1  10
TORSDOF 3
