REMARK  Name = *****
REMARK  2 active torsions:
REMARK  status: ('A' for Active; 'I' for Inactive)
REMARK    1  A    between atoms: C_1  and  C_2
REMARK    2  A    between atoms: C_3  and  C_11
REMARK                            x       y       z     vdW  Elec       q    Type
REMARK                         _______ _______ _______ _____ _____    ______ ____
ROOT
ATOM      1  C   UNL     1       0.662  -0.116   0.137  0.00  0.00    +0.000 C 
ATOM      2  C   UNL     1       2.159  -0.017  -0.144  0.00  0.00    +0.000 C 
ATOM      3  C   UNL     1       2.813   1.184   0.606  0.00  0.00    +0.000 C 
ATOM      4  C   UNL     1       3.477   0.609   1.884  0.00  0.00    +0.000 C 
ATOM      5  C   UNL     1       3.644  -0.841   1.552  0.00  0.00    +0.000 A 
ATOM      6  C   UNL     1       4.390  -1.783   2.244  0.00  0.00    +0.000 A 
ATOM      7  C   UNL     1       4.396  -3.099   1.778  0.00  0.00    +0.000 A 
ATOM      8  C   UNL     1       3.656  -3.456   0.641  0.00  0.00    +0.000 A 
ATOM      9  C   UNL     1       2.900  -2.503  -0.044  0.00  0.00    +0.000 A 
ATOM     10  C   UNL     1       2.901  -1.197   0.424  0.00  0.00    +0.000 A 
ENDROOT
BRANCH   3  11
ATOM     11  C   UNL     1       3.783   1.956  -0.282  0.00  0.00    +0.000 A 
ATOM     12  C   UNL     1       3.469   3.269  -0.668  0.00  0.00    +0.000 A 
ATOM     13  C   UNL     1       4.331   4.000  -1.489  0.00  0.00    +0.000 A 
ATOM     14  C   UNL     1       5.518   3.428  -1.938  0.00  0.00    +0.000 A 
ATOM     15  C   UNL     1       5.842   2.125  -1.569  0.00  0.00    +0.000 A 
ATOM     16  C   UNL     1       4.981   1.393  -0.749  0.00  0.00    +0.000 A 
ENDBRANCH   3  11
TORSDOF 1
