REMARK  Name = *****
REMARK  5 active torsions:
REMARK  status: ('A' for Active; 'I' for Inactive)
REMARK    1  A    between atoms: C_1  and  C_2
REMARK    2  A    between atoms: C_5  and  C_8
REMARK    3  A    between atoms: C_9  and  C_10
REMARK    4  A    between atoms: C_9  and  C_12
REMARK    5  A    between atoms: C_15  and  C_18
REMARK                            x       y       z     vdW  Elec       q    Type
REMARK                         _______ _______ _______ _____ _____    ______ ____
ROOT
ATOM      1  C   UNL     1      -3.270   0.277  -0.093  0.00  0.00    +0.000 C 
ATOM      2  C   UNL     1      -4.014   1.397   0.018  0.00  0.00    +0.000 C 
ENDROOT
BRANCH   1   7
ATOM      3  C   UNL     1       2.496  -0.001   0.007  0.00  0.00    +0.000 C 
ATOM      4  C   UNL     1       0.999   0.097  -0.017  0.00  0.00    +0.000 A 
ATOM      5  C   UNL     1       0.271   0.132   1.178  0.00  0.00    +0.000 A 
ATOM      6  C   UNL     1      -1.125   0.190   1.156  0.00  0.00    +0.000 A 
ATOM      7  C   UNL     1      -1.808   0.203  -0.064  0.00  0.00    +0.000 A 
ATOM      8  C   UNL     1      -1.087   0.149  -1.259  0.00  0.00    +0.000 A 
ATOM      9  C   UNL     1       0.309   0.091  -1.235  0.00  0.00    +0.000 A 
ENDBRANCH   1   7
BRANCH   2  10
ATOM     10  C   UNL     1      -5.487   1.280  -0.037  0.00  0.00    +0.000 A 
ATOM     11  C   UNL     1      -6.177   0.426   0.837  0.00  0.00    +0.000 A 
ATOM     12  C   UNL     1      -7.569   0.310   0.774  0.00  0.00    +0.000 A 
ATOM     13  C   UNL     1      -8.299   1.042  -0.169  0.00  0.00    +0.000 A 
ATOM     14  C   UNL     1      -7.618   1.911  -1.027  0.00  0.00    +0.000 A 
ATOM     15  C   UNL     1      -6.226   2.026  -0.964  0.00  0.00    +0.000 A 
ATOM     16  C   UNL     1      -9.795   0.950  -0.210  0.00  0.00    +0.000 C 
ENDBRANCH   2  10
BRANCH   2  17
ATOM     17  C   UNL     1      -3.361   2.737   0.153  0.00  0.00    +0.000 C 
ATOM     18  O   UNL     1      -3.986   3.786   0.266  0.00  0.00    +0.000 OA
ENDBRANCH   2  17
TORSDOF 3
