REMARK  Name = *****
REMARK  3 active torsions:
REMARK  status: ('A' for Active; 'I' for Inactive)
REMARK    1  A    between atoms: C_2  and  C_3
REMARK    2  A    between atoms: C_2  and  S_9
REMARK    3  A    between atoms: S_9  and  C_10
REMARK                            x       y       z     vdW  Elec       q    Type
REMARK                         _______ _______ _______ _____ _____    ______ ____
ROOT
ATOM      1  C   UNL     1       0.581   0.257   0.127  0.00  0.00    +0.000 C 
ATOM      2  C   UNL     1       1.898   0.096  -0.056  0.00  0.00    +0.000 C 
ENDROOT
BRANCH   2   3
ATOM      3  C   UNL     1       2.860   1.101   0.432  0.00  0.00    +0.000 A 
ATOM      4  C   UNL     1       3.834   0.762   1.383  0.00  0.00    +0.000 A 
ATOM      5  C   UNL     1       4.743   1.719   1.842  0.00  0.00    +0.000 A 
ATOM      6  C   UNL     1       4.687   3.024   1.357  0.00  0.00    +0.000 A 
ATOM      7  C   UNL     1       3.723   3.375   0.414  0.00  0.00    +0.000 A 
ATOM      8  C   UNL     1       2.813   2.420  -0.044  0.00  0.00    +0.000 A 
ENDBRANCH   2   3
BRANCH   2   9
ATOM      9  S   UNL     1       2.513  -1.339  -0.809  0.00  0.00    +0.000 S 
BRANCH   9  10
ATOM     10  C   UNL     1       3.453  -0.644  -2.200  0.00  0.00    +0.000 C 
ATOM     11  C   UNL     1       2.572  -0.000  -3.268  0.00  0.00    +0.000 C 
ATOM     12  C   UNL     1       3.447   0.012  -4.521  0.00  0.00    +0.000 C 
ATOM     13  C   UNL     1       4.518  -1.057  -4.306  0.00  0.00    +0.000 C 
ATOM     14  C   UNL     1       4.166  -1.740  -2.988  0.00  0.00    +0.000 C 
ENDBRANCH   9  10
ENDBRANCH   2   9
TORSDOF 3
