REMARK  Name = *****
REMARK  5 active torsions:
REMARK  status: ('A' for Active; 'I' for Inactive)
REMARK    1  A    between atoms: C_1  and  C_2
REMARK    2  A    between atoms: C_5  and  S_8
REMARK    3  A    between atoms: S_8  and  C_9
REMARK    4  A    between atoms: C_9  and  C_11
REMARK    5  A    between atoms: C_14  and  C_17
REMARK                            x       y       z     vdW  Elec       q    Type
REMARK                         _______ _______ _______ _____ _____    ______ ____
ROOT
ATOM      1  C   UNL     1      -4.007   1.430   0.242  0.00  0.00    +0.000 C 
ATOM      2  O   UNL     1      -3.412   1.793  -0.766  0.00  0.00    +0.000 OA
ENDROOT
BRANCH   1   3
ATOM      3  C   UNL     1      -5.293   2.095   0.628  0.00  0.00    +0.000 A 
ATOM      4  C   UNL     1      -5.704   3.202  -0.134  0.00  0.00    +0.000 A 
ATOM      5  C   UNL     1      -6.891   3.880   0.165  0.00  0.00    +0.000 A 
ATOM      6  C   UNL     1      -7.687   3.460   1.232  0.00  0.00    +0.000 A 
ATOM      7  C   UNL     1      -7.291   2.358   1.996  0.00  0.00    +0.000 A 
ATOM      8  C   UNL     1      -6.102   1.679   1.697  0.00  0.00    +0.000 A 
BRANCH   6   9
ATOM      9  C   UNL     1      -8.904   4.153   1.543  0.00  0.00    +0.000 C 
ATOM     10  N   UNL     1      -9.888   4.713   1.797  0.00  0.00    +0.000 NA
ENDBRANCH   6   9
ENDBRANCH   1   3
BRANCH   1  11
ATOM     11  S   UNL     1      -3.400   0.136   1.271  0.00  0.00    +0.000 S 
BRANCH  11  16
ATOM     12  C   UNL     1       2.453  -0.435  -0.336  0.00  0.00    +0.000 C 
ATOM     13  C   UNL     1       1.006  -0.278   0.027  0.00  0.00    +0.000 A 
ATOM     14  C   UNL     1       0.532   0.935   0.539  0.00  0.00    +0.000 A 
ATOM     15  C   UNL     1      -0.810   1.074   0.907  0.00  0.00    +0.000 A 
ATOM     16  C   UNL     1      -1.697   0.003   0.767  0.00  0.00    +0.000 A 
ATOM     17  C   UNL     1      -1.219  -1.217   0.279  0.00  0.00    +0.000 A 
ATOM     18  C   UNL     1       0.123  -1.358  -0.086  0.00  0.00    +0.000 A 
ENDBRANCH  11  16
ENDBRANCH   1  11
TORSDOF 4
