REMARK  Name = *****
REMARK  4 active torsions:
REMARK  status: ('A' for Active; 'I' for Inactive)
REMARK    1  A    between atoms: C_4  and  C_8
REMARK    2  A    between atoms: C_8  and  O_9
REMARK    3  A    between atoms: O_9  and  C_10
REMARK    4  A    between atoms: C_10  and  C_12
REMARK                            x       y       z     vdW  Elec       q    Type
REMARK                         _______ _______ _______ _____ _____    ______ ____
ROOT
ATOM      1  O   UNL     1       1.781   1.494  -3.125  0.00  0.00    +0.000 OA
ENDROOT
BRANCH   1   2
ATOM      2  C   UNL     1       1.843   0.358  -3.861  0.00  0.00    +0.000 C 
ATOM      3  O   UNL     1       1.095  -0.602  -3.767  0.00  0.00    +0.000 OA
BRANCH   2   4
ATOM      4  C   UNL     1       2.975   0.423  -4.825  0.00  0.00    +0.000 A 
ATOM      5  C   UNL     1       3.835   1.529  -4.906  0.00  0.00    +0.000 A 
ATOM      6  C   UNL     1       4.884   1.538  -5.831  0.00  0.00    +0.000 A 
ATOM      7  C   UNL     1       5.077   0.445  -6.675  0.00  0.00    +0.000 A 
ATOM      8  C   UNL     1       4.230  -0.659  -6.603  0.00  0.00    +0.000 A 
ATOM      9  C   UNL     1       3.181  -0.671  -5.680  0.00  0.00    +0.000 A 
ATOM     10 CL   UNL     1       6.367   0.461  -7.811  0.00  0.00    +0.000 Cl
ENDBRANCH   2   4
ENDBRANCH   1   2
BRANCH   1  11
ATOM     11  C   UNL     1       0.720   1.559  -2.157  0.00  0.00    +0.000 C 
BRANCH  11  15
ATOM     12  C   UNL     1       2.267   0.893   1.227  0.00  0.00    +0.000 C 
ATOM     13  C   UNL     1       0.912   1.569   1.459  0.00  0.00    +0.000 C 
ATOM     14  C   UNL     1       0.081   1.010   0.282  0.00  0.00    +0.000 C 
ATOM     15  C   UNL     1       1.140   0.884  -0.855  0.00  0.00    +0.000 C 
ATOM     16  C   UNL     1       2.418   1.462  -0.190  0.00  0.00    +0.000 C 
ATOM     17  C   UNL     1       2.209   2.925   0.131  0.00  0.00    +0.000 C 
ATOM     18  C   UNL     1       1.299   2.989   1.115  0.00  0.00    +0.000 C 
ENDBRANCH  11  15
ENDBRANCH   1  11
TORSDOF 4
