REMARK  Name = *****
REMARK  2 active torsions:
REMARK  status: ('A' for Active; 'I' for Inactive)
REMARK    1  A    between atoms: C_1  and  C_2
REMARK    2  A    between atoms: C_5  and  C_7
REMARK                            x       y       z     vdW  Elec       q    Type
REMARK                         _______ _______ _______ _____ _____    ______ ____
ROOT
ATOM      1  C   UNL     1      -2.958   0.738   0.039  0.00  0.00    +0.000 A 
ATOM      2  N   UNL     1      -3.398   1.568  -0.897  0.00  0.00    +0.000 NA
ATOM      3  C   UNL     1      -4.679   1.866  -0.511  0.00  0.00    +0.000 A 
ATOM      4  C   UNL     1      -5.657   2.678  -1.099  0.00  0.00    +0.000 A 
ATOM      5  C   UNL     1      -6.902   2.782  -0.460  0.00  0.00    +0.000 A 
ATOM      6  C   UNL     1      -7.163   2.097   0.734  0.00  0.00    +0.000 A 
ATOM      7  C   UNL     1      -6.194   1.284   1.335  0.00  0.00    +0.000 A 
ATOM      8  C   UNL     1      -4.978   1.207   0.668  0.00  0.00    +0.000 A 
ATOM      9  O   UNL     1      -3.882   0.485   1.030  0.00  0.00    +0.000 OA
ENDROOT
BRANCH   1  14
ATOM     10  C   UNL     1       1.387  -2.116   1.051  0.00  0.00    +0.000 C 
ATOM     11  C   UNL     1       0.395  -1.178   0.455  0.00  0.00    +0.000 A 
ATOM     12  C   UNL     1       0.515  -0.407  -0.682  0.00  0.00    +0.000 A 
ATOM     13  C   UNL     1      -0.662   0.357  -0.938  0.00  0.00    +0.000 A 
ATOM     14  C   UNL     1      -1.647   0.147   0.008  0.00  0.00    +0.000 A 
ATOM     15  S   UNL     1      -1.128  -0.962   1.204  0.00  0.00    +0.000 S 
ENDBRANCH   1  14
TORSDOF 1
