REMARK  Name = *****
REMARK  2 active torsions:
REMARK  status: ('A' for Active; 'I' for Inactive)
REMARK    1  A    between atoms: C_2  and  C_10
REMARK    2  A    between atoms: C_3  and  C_4
REMARK                            x       y       z     vdW  Elec       q    Type
REMARK                         _______ _______ _______ _____ _____    ______ ____
ROOT
ATOM      1  C   UNL     1       0.075   0.902  -0.073  0.00  0.00    +0.000 C 
ATOM      2  C   UNL     1       0.815  -0.411  -0.042  0.00  0.00    +0.000 C 
ATOM      3  C   UNL     1      -0.708  -0.385  -0.053  0.00  0.00    +0.000 C 
ENDROOT
BRANCH   3   4
ATOM      4  C   UNL     1      -1.456  -0.839  -1.285  0.00  0.00    +0.000 A 
ATOM      5  C   UNL     1      -1.244  -2.112  -1.840  0.00  0.00    +0.000 A 
ATOM      6  C   UNL     1      -1.945  -2.540  -2.971  0.00  0.00    +0.000 A 
ATOM      7  C   UNL     1      -2.882  -1.701  -3.568  0.00  0.00    +0.000 A 
ATOM      8  C   UNL     1      -3.118  -0.439  -3.032  0.00  0.00    +0.000 A 
ATOM      9  C   UNL     1      -2.414  -0.017  -1.901  0.00  0.00    +0.000 A 
ENDBRANCH   3   4
BRANCH   2  10
ATOM     10  C   UNL     1       1.551  -0.838   1.206  0.00  0.00    +0.000 A 
ATOM     11  C   UNL     1       1.285  -2.070   1.826  0.00  0.00    +0.000 A 
ATOM     12  C   UNL     1       1.977  -2.474   2.971  0.00  0.00    +0.000 A 
ATOM     13  C   UNL     1       2.959  -1.653   3.517  0.00  0.00    +0.000 A 
ATOM     14  C   UNL     1       3.249  -0.431   2.916  0.00  0.00    +0.000 A 
ATOM     15  C   UNL     1       2.553  -0.033   1.772  0.00  0.00    +0.000 A 
ENDBRANCH   2  10
TORSDOF 2
