REMARK  Name = *****
REMARK  2 active torsions:
REMARK  status: ('A' for Active; 'I' for Inactive)
REMARK    1  A    between atoms: C_2  and  C_11
REMARK    2  A    between atoms: C_3  and  C_4
REMARK                            x       y       z     vdW  Elec       q    Type
REMARK                         _______ _______ _______ _____ _____    ______ ____
ROOT
ATOM      1  C   UNL     1      -0.265   0.967   0.098  0.00  0.00    +0.000 C 
ATOM      2  C   UNL     1       0.740  -0.154   0.061  0.00  0.00    +0.000 C 
ATOM      3  C   UNL     1      -0.717  -0.415  -0.321  0.00  0.00    +0.000 C 
ATOM      4 BR   UNL     1      -1.062  -0.647  -2.217  0.00  0.00    +0.000 Br
ENDROOT
BRANCH   3   5
ATOM      5  C   UNL     1      -1.688  -1.179   0.557  0.00  0.00    +0.000 A 
ATOM      6  C   UNL     1      -2.816  -0.556   1.125  0.00  0.00    +0.000 A 
ATOM      7  C   UNL     1      -3.721  -1.261   1.924  0.00  0.00    +0.000 A 
ATOM      8  C   UNL     1      -3.526  -2.616   2.167  0.00  0.00    +0.000 A 
ATOM      9  C   UNL     1      -2.432  -3.266   1.605  0.00  0.00    +0.000 A 
ATOM     10  C   UNL     1      -1.531  -2.555   0.806  0.00  0.00    +0.000 A 
ENDBRANCH   3   5
BRANCH   2  11
ATOM     11  C   UNL     1       1.354  -0.734   1.319  0.00  0.00    +0.000 A 
ATOM     12  C   UNL     1       1.437  -0.030   2.532  0.00  0.00    +0.000 A 
ATOM     13  C   UNL     1       2.028  -0.593   3.667  0.00  0.00    +0.000 A 
ATOM     14  C   UNL     1       2.565  -1.875   3.612  0.00  0.00    +0.000 A 
ATOM     15  C   UNL     1       2.516  -2.590   2.420  0.00  0.00    +0.000 A 
ATOM     16  C   UNL     1       1.923  -2.021   1.290  0.00  0.00    +0.000 A 
ENDBRANCH   2  11
TORSDOF 2
