REMARK  Name = *****
REMARK  9 active torsions:
REMARK  status: ('A' for Active; 'I' for Inactive)
REMARK    1  A    between atoms: C_1  and  C_2
REMARK    2  A    between atoms: C_7  and  O_8
REMARK    3  A    between atoms: C_7  and  O_10
REMARK    4  A    between atoms: O_8  and  O_9
REMARK    5  A    between atoms: O_10  and  O_11
REMARK    6  A    between atoms: O_11  and  C_12
REMARK    7  A    between atoms: C_12  and  O_19
REMARK    8  A    between atoms: C_17  and  C_18
REMARK    9  A    between atoms: O_19  and  O_20
REMARK                            x       y       z     vdW  Elec       q    Type
REMARK                         _______ _______ _______ _____ _____    ______ ____
ROOT
ATOM      1  O   UNL     1       0.672  -2.801  -0.326  0.00  0.00    +0.000 OA
ENDROOT
BRANCH   1   8
ATOM      2  C   UNL     1      -1.261  -1.443   1.547  0.00  0.00    +0.000 C 
ATOM      3  C   UNL     1      -1.159  -1.315   0.023  0.00  0.00    +0.000 C 
ATOM      4  C   UNL     1      -1.895  -0.053  -0.447  0.00  0.00    +0.000 C 
ATOM      5  C   UNL     1      -1.822   0.105  -1.961  0.00  0.00    +0.000 C 
ATOM      6  C   UNL     1      -0.384   0.138  -2.459  0.00  0.00    +0.000 C 
ATOM      7  C   UNL     1       0.419  -1.075  -1.989  0.00  0.00    +0.000 C 
ATOM      8  C   UNL     1       0.308  -1.399  -0.482  0.00  0.00    +0.000 C 
BRANCH   8   9
ATOM      9  O   UNL     1       1.204  -0.619   0.335  0.00  0.00    +0.000 OA
BRANCH   9  10
ATOM     10  O   UNL     1       0.992   0.796   0.085  0.00  0.00    +0.000 OA
ATOM     11  H   UNL     1       1.597   1.316   0.637  0.00  0.00    +0.000 HD
ENDBRANCH   9  10
ENDBRANCH   8   9
ENDBRANCH   1   8
BRANCH   1  12
ATOM     12  O   UNL     1       2.089  -2.926  -0.682  0.00  0.00    +0.000 OA
BRANCH  12  13
ATOM     13  C   UNL     1       2.729  -3.761   0.304  0.00  0.00    +0.000 C 
ATOM     14  C   UNL     1       2.686  -3.122   1.705  0.00  0.00    +0.000 C 
ATOM     15  C   UNL     1       3.323  -4.015   2.768  0.00  0.00    +0.000 C 
ATOM     16  C   UNL     1       2.688  -5.402   2.784  0.00  0.00    +0.000 C 
ATOM     17  C   UNL     1       2.728  -6.063   1.409  0.00  0.00    +0.000 C 
ATOM     18  C   UNL     1       2.084  -5.175   0.330  0.00  0.00    +0.000 C 
ATOM     19  C   UNL     1       2.160  -5.872  -1.033  0.00  0.00    +0.000 C 
BRANCH  13  20
ATOM     20  O   UNL     1       4.119  -3.941  -0.075  0.00  0.00    +0.000 OA
BRANCH  20  21
ATOM     21  O   UNL     1       4.669  -2.618  -0.369  0.00  0.00    +0.000 OA
ATOM     22  H   UNL     1       5.600  -2.704  -0.626  0.00  0.00    +0.000 HD
ENDBRANCH  20  21
ENDBRANCH  13  20
ENDBRANCH  12  13
ENDBRANCH   1  12
TORSDOF 7
