REMARK  Name = *****
REMARK  4 active torsions:
REMARK  status: ('A' for Active; 'I' for Inactive)
REMARK    1  A    between atoms: C_1  and  C_2
REMARK    2  A    between atoms: C_5  and  S_8
REMARK    3  A    between atoms: S_8  and  S_11
REMARK    4  A    between atoms: S_11  and  C_12
REMARK                            x       y       z     vdW  Elec       q    Type
REMARK                         _______ _______ _______ _____ _____    ______ ____
ROOT
ATOM      1  S   UNL     1      -3.613  -0.051   0.329  0.00  0.00    +0.000 S 
ATOM      2  O   UNL     1      -4.077  -0.453  -0.985  0.00  0.00    +0.000 OA
ATOM      3  O   UNL     1      -3.966  -0.808   1.513  0.00  0.00    +0.000 OA
ENDROOT
BRANCH   1   8
ATOM      4  C   UNL     1       2.444   0.314   0.132  0.00  0.00    +0.000 C 
ATOM      5  C   UNL     1       0.948   0.200   0.179  0.00  0.00    +0.000 A 
ATOM      6  C   UNL     1       0.197   0.271  -1.003  0.00  0.00    +0.000 A 
ATOM      7  C   UNL     1      -1.196   0.195  -0.962  0.00  0.00    +0.000 A 
ATOM      8  C   UNL     1      -1.842   0.069   0.270  0.00  0.00    +0.000 A 
ATOM      9  C   UNL     1      -1.107  -0.002   1.456  0.00  0.00    +0.000 A 
ATOM     10  C   UNL     1       0.285   0.074   1.408  0.00  0.00    +0.000 A 
ENDBRANCH   1   8
BRANCH   1  11
ATOM     11  S   UNL     1      -4.209   1.926   0.633  0.00  0.00    +0.000 S 
BRANCH  11  12
ATOM     12  C   UNL     1      -5.986   1.857   0.232  0.00  0.00    +0.000 C 
ATOM     13  C   UNL     1      -6.486   3.284  -0.033  0.00  0.00    +0.000 C 
ATOM     14  C   UNL     1      -7.987   3.303  -0.319  0.00  0.00    +0.000 C 
ATOM     15  C   UNL     1      -8.780   2.642   0.803  0.00  0.00    +0.000 C 
ATOM     16  C   UNL     1      -8.283   1.228   1.082  0.00  0.00    +0.000 C 
ATOM     17  C   UNL     1      -6.781   1.201   1.367  0.00  0.00    +0.000 C 
ENDBRANCH  11  12
ENDBRANCH   1  11
TORSDOF 3
