REMARK  Name = *****
REMARK  2 active torsions:
REMARK  status: ('A' for Active; 'I' for Inactive)
REMARK    1  A    between atoms: C_4  and  C_7
REMARK    2  A    between atoms: C_8  and  C_9
REMARK                            x       y       z     vdW  Elec       q    Type
REMARK                         _______ _______ _______ _____ _____    ______ ____
ROOT
ATOM      1  C   UNL     1      -2.812   0.427  -0.133  0.00  0.00    +0.000 C 
ATOM      2  C   UNL     1      -3.732  -0.545  -0.247  0.00  0.00    +0.000 C 
ENDROOT
BRANCH   2   3
ATOM      3  C   UNL     1      -5.178  -0.326  -0.322  0.00  0.00    +0.000 A 
ATOM      4  C   UNL     1      -5.784   0.472   0.574  0.00  0.00    +0.000 A 
ATOM      5  C   UNL     1      -7.187   0.733   0.765  0.00  0.00    +0.000 A 
ATOM      6  C   UNL     1      -8.169   0.639  -0.135  0.00  0.00    +0.000 A 
ATOM      7  C   UNL     1      -8.052   0.230  -1.506  0.00  0.00    +0.000 A 
ATOM      8  C   UNL     1      -7.106  -0.551  -2.039  0.00  0.00    +0.000 A 
ATOM      9  C   UNL     1      -5.898  -1.107  -1.386  0.00  0.00    +0.000 A 
ATOM     10  O   UNL     1      -5.431  -2.157  -1.830  0.00  0.00    +0.000 OA
ENDBRANCH   2   3
BRANCH   1  14
ATOM     11  C   UNL     1       1.424  -0.154   0.071  0.00  0.00    +0.000 A 
ATOM     12  C   UNL     1       0.651  -1.021  -0.698  0.00  0.00    +0.000 A 
ATOM     13  C   UNL     1      -0.734  -0.846  -0.771  0.00  0.00    +0.000 A 
ATOM     14  C   UNL     1      -1.362   0.189  -0.066  0.00  0.00    +0.000 A 
ATOM     15  C   UNL     1      -0.569   1.063   0.690  0.00  0.00    +0.000 A 
ATOM     16  C   UNL     1       0.815   0.890   0.763  0.00  0.00    +0.000 A 
ENDBRANCH   1  14
TORSDOF 2
