REMARK  Name = *****
REMARK  5 active torsions:
REMARK  status: ('A' for Active; 'I' for Inactive)
REMARK    1  A    between atoms: C_1  and  C_2
REMARK    2  A    between atoms: C_5  and  C_7
REMARK    3  A    between atoms: C_5  and  O_15
REMARK    4  A    between atoms: C_8  and  C_9
REMARK    5  A    between atoms: O_15  and  C_16
REMARK                            x       y       z     vdW  Elec       q    Type
REMARK                         _______ _______ _______ _____ _____    ______ ____
ROOT
ATOM      1  C   UNL     1      -2.216  -0.032   1.007  0.00  0.00    +0.000 C 
ATOM      2  C   UNL     1      -0.850   0.044   0.424  0.00  0.00    +0.000 C 
ATOM      3  C   UNL     1      -0.057   1.121   0.361  0.00  0.00    +0.000 C 
ATOM      4  C   UNL     1       1.241   0.827  -0.329  0.00  0.00    +0.000 C 
ATOM      5  C   UNL     1       1.258  -0.722  -0.445  0.00  0.00    +0.000 C 
ATOM      6  C   UNL     1      -0.215  -1.161  -0.214  0.00  0.00    +0.000 C 
ENDROOT
BRANCH   5   7
ATOM      7  C   UNL     1       1.706  -1.128  -1.843  0.00  0.00    +0.000 C 
ATOM      8  C   UNL     1       2.759  -1.904  -2.150  0.00  0.00    +0.000 C 
BRANCH   8   9
ATOM      9  C   UNL     1       3.142  -2.277  -3.518  0.00  0.00    +0.000 A 
ATOM     10  C   UNL     1       3.048  -1.385  -4.594  0.00  0.00    +0.000 A 
ATOM     11  C   UNL     1       3.451  -1.771  -5.876  0.00  0.00    +0.000 A 
ATOM     12  C   UNL     1       3.963  -3.048  -6.092  0.00  0.00    +0.000 A 
ATOM     13  C   UNL     1       4.078  -3.939  -5.028  0.00  0.00    +0.000 A 
ATOM     14  C   UNL     1       3.675  -3.553  -3.746  0.00  0.00    +0.000 A 
ENDBRANCH   8   9
ENDBRANCH   5   7
BRANCH   5  15
ATOM     15  O   UNL     1       2.161  -1.329   0.499  0.00  0.00    +0.000 OA
ATOM     16  C   UNL     1       1.933  -1.085   1.879  0.00  0.00    +0.000 C 
ENDBRANCH   5  15
TORSDOF 3
