REMARK  Name = *****
REMARK  4 active torsions:
REMARK  status: ('A' for Active; 'I' for Inactive)
REMARK    1  A    between atoms: N_4  and  C_6
REMARK    2  A    between atoms: C_6  and  S_8
REMARK    3  A    between atoms: S_8  and  C_9
REMARK    4  A    between atoms: C_9  and  C_10
REMARK                            x       y       z     vdW  Elec       q    Type
REMARK                         _______ _______ _______ _____ _____    ______ ____
ROOT
ATOM      1  S   UNL     1      -3.926   0.584  -0.142  0.00  0.00    +0.000 S 
ENDROOT
BRANCH   1   2
ATOM      2  C   UNL     1      -2.428   1.400   0.306  0.00  0.00    +0.000 C 
ATOM      3  S   UNL     1      -2.455   3.026   0.734  0.00  0.00    +0.000 S 
BRANCH   2   7
ATOM      4  C   UNL     1       0.997   0.035  -0.036  0.00  0.00    +0.000 C 
ATOM      5  C   UNL     1       0.197  -1.232   0.216  0.00  0.00    +0.000 C 
ATOM      6  C   UNL     1      -1.226  -0.803  -0.111  0.00  0.00    +0.000 C 
ATOM      7  N   UNL     1      -1.282   0.618   0.240  0.00  0.00    +0.000 N 
ATOM      8  C   UNL     1       0.070   1.127   0.478  0.00  0.00    +0.000 C 
ENDBRANCH   2   7
ENDBRANCH   1   2
BRANCH   1   9
ATOM      9  C   UNL     1      -4.608   0.325   1.524  0.00  0.00    +0.000 C 
BRANCH   9  10
ATOM     10  C   UNL     1      -5.872  -0.499   1.481  0.00  0.00    +0.000 A 
ATOM     11  C   UNL     1      -7.101   0.157   1.276  0.00  0.00    +0.000 A 
ATOM     12  C   UNL     1      -8.298  -0.559   1.214  0.00  0.00    +0.000 A 
ATOM     13  C   UNL     1      -8.288  -1.943   1.351  0.00  0.00    +0.000 A 
ATOM     14  C   UNL     1      -7.080  -2.612   1.544  0.00  0.00    +0.000 A 
ATOM     15  C   UNL     1      -5.878  -1.898   1.605  0.00  0.00    +0.000 A 
ATOM     16 CL   UNL     1      -4.426  -2.805   1.839  0.00  0.00    +0.000 Cl
ENDBRANCH   9  10
ENDBRANCH   1   9
TORSDOF 4
