REMARK  Name = *****
REMARK  3 active torsions:
REMARK  status: ('A' for Active; 'I' for Inactive)
REMARK    1  A    between atoms: C_6  and  S_7
REMARK    2  A    between atoms: S_7  and  C_8
REMARK    3  A    between atoms: C_8  and  C_10
REMARK                            x       y       z     vdW  Elec       q    Type
REMARK                         _______ _______ _______ _____ _____    ______ ____
ROOT
ATOM      1  S   UNL     1       4.231   0.278   0.328  0.00  0.00    +0.000 S 
ENDROOT
BRANCH   1   7
ATOM      2  C   UNL     1       1.654   1.337   0.219  0.00  0.00    +0.000 A 
ATOM      3  C   UNL     1       0.265   1.232   0.091  0.00  0.00    +0.000 A 
ATOM      4  C   UNL     1      -0.318  -0.014  -0.124  0.00  0.00    +0.000 A 
ATOM      5  C   UNL     1       0.475  -1.156  -0.212  0.00  0.00    +0.000 A 
ATOM      6  C   UNL     1       1.864  -1.048  -0.090  0.00  0.00    +0.000 A 
ATOM      7  C   UNL     1       2.465   0.201   0.114  0.00  0.00    +0.000 A 
ATOM      8 CL   UNL     1      -2.027  -0.145  -0.270  0.00  0.00    +0.000 Cl
ENDBRANCH   1   7
BRANCH   1   9
ATOM      9  C   UNL     1       4.749   1.452  -0.880  0.00  0.00    +0.000 C 
ATOM     10  O   UNL     1       3.962   2.080  -1.580  0.00  0.00    +0.000 OA
BRANCH   9  11
ATOM     11  C   UNL     1       6.194   1.640  -0.965  0.00  0.00    +0.000 A 
ATOM     12  C   UNL     1       6.787   2.595  -1.780  0.00  0.00    +0.000 A 
ATOM     13  S   UNL     1       8.483   2.475  -1.579  0.00  0.00    +0.000 S 
ATOM     14  N   UNL     1       8.359   1.224  -0.479  0.00  0.00    +0.000 NA
ATOM     15  N   UNL     1       7.107   0.875  -0.236  0.00  0.00    +0.000 NA
ENDBRANCH   9  11
ENDBRANCH   1   9
TORSDOF 3
