REMARK  Name = *****
REMARK  2 active torsions:
REMARK  status: ('A' for Active; 'I' for Inactive)
REMARK    1  A    between atoms: C_2  and  C_9
REMARK    2  A    between atoms: C_3  and  C_4
REMARK                            x       y       z     vdW  Elec       q    Type
REMARK                         _______ _______ _______ _____ _____    ______ ____
ROOT
ATOM      1  C   UNL     1       0.144   0.939  -0.197  0.00  0.00    +0.000 C 
ATOM      2  C   UNL     1       0.823  -0.389  -0.040  0.00  0.00    +0.000 C 
ATOM      3  C   UNL     1      -0.702  -0.305  -0.069  0.00  0.00    +0.000 C 
ENDROOT
BRANCH   2   4
ATOM      4  C   UNL     1       1.525  -0.735   1.253  0.00  0.00    +0.000 A 
ATOM      5  C   UNL     1       1.201  -1.899   1.971  0.00  0.00    +0.000 A 
ATOM      6  C   UNL     1       1.860  -2.230   3.160  0.00  0.00    +0.000 A 
ATOM      7  C   UNL     1       2.864  -1.400   3.645  0.00  0.00    +0.000 A 
ATOM      8  C   UNL     1       3.215  -0.246   2.952  0.00  0.00    +0.000 A 
ATOM      9  C   UNL     1       2.551   0.078   1.765  0.00  0.00    +0.000 A 
ATOM     10 CL   UNL     1       3.679  -1.803   5.106  0.00  0.00    +0.000 Cl
ENDBRANCH   2   4
BRANCH   3  11
ATOM     11  C   UNL     1      -1.451  -0.837  -1.292  0.00  0.00    +0.000 A 
ATOM     12  C   UNL     1      -1.021  -0.777  -2.600  0.00  0.00    +0.000 A 
ATOM     13  C   UNL     1      -1.961  -1.368  -3.496  0.00  0.00    +0.000 A 
ATOM     14  C   UNL     1      -3.068  -1.855  -2.837  0.00  0.00    +0.000 A 
ATOM     15  S   UNL     1      -2.972  -1.598  -1.148  0.00  0.00    +0.000 S 
ENDBRANCH   3  11
TORSDOF 2
