REMARK  Name = *****
REMARK  3 active torsions:
REMARK  status: ('A' for Active; 'I' for Inactive)
REMARK    1  A    between atoms: C_4  and  C_6
REMARK    2  A    between atoms: C_6  and  S_8
REMARK    3  A    between atoms: S_8  and  C_9
REMARK                            x       y       z     vdW  Elec       q    Type
REMARK                         _______ _______ _______ _____ _____    ______ ____
ROOT
ATOM      1  S   UNL     1       0.334  -3.969  -0.159  0.00  0.00    +0.000 S 
ENDROOT
BRANCH   1   2
ATOM      2  C   UNL     1      -0.788  -5.342  -0.016  0.00  0.00    +0.000 A 
ATOM      3  C   UNL     1      -1.260  -5.987  -1.165  0.00  0.00    +0.000 A 
ATOM      4  C   UNL     1      -2.116  -7.087  -1.054  0.00  0.00    +0.000 A 
ATOM      5  C   UNL     1      -2.494  -7.545   0.206  0.00  0.00    +0.000 A 
ATOM      6  C   UNL     1      -2.024  -6.915   1.356  0.00  0.00    +0.000 A 
ATOM      7  C   UNL     1      -1.169  -5.815   1.245  0.00  0.00    +0.000 A 
ATOM      8 CL   UNL     1      -3.542  -8.903   0.343  0.00  0.00    +0.000 Cl
ENDBRANCH   1   2
BRANCH   1   9
ATOM      9  C   UNL     1      -0.769  -2.590  -0.083  0.00  0.00    +0.000 C 
ATOM     10  O   UNL     1      -1.987  -2.735  -0.055  0.00  0.00    +0.000 OA
BRANCH   9  14
ATOM     11  C   UNL     1       0.421   0.890  -0.021  0.00  0.00    +0.000 A 
ATOM     12  C   UNL     1       1.564   0.129  -0.053  0.00  0.00    +0.000 A 
ATOM     13  O   UNL     1       1.256  -1.192  -0.079  0.00  0.00    +0.000 OA
ATOM     14  C   UNL     1      -0.113  -1.298  -0.064  0.00  0.00    +0.000 A 
ATOM     15  C   UNL     1      -0.658  -0.025  -0.027  0.00  0.00    +0.000 A 
ENDBRANCH   9  14
ENDBRANCH   1   9
TORSDOF 3
