REMARK  Name = *****
REMARK  4 active torsions:
REMARK  status: ('A' for Active; 'I' for Inactive)
REMARK    1  A    between atoms: C_4  and  O_7
REMARK    2  A    between atoms: O_7  and  S_8
REMARK    3  A    between atoms: S_8  and  S_10
REMARK    4  A    between atoms: S_10  and  C_11
REMARK                            x       y       z     vdW  Elec       q    Type
REMARK                         _______ _______ _______ _____ _____    ______ ____
ROOT
ATOM      1  S   UNL     1      -3.869  -0.743  -0.285  0.00  0.00    +0.000 S 
ATOM      2  O   UNL     1      -4.204  -0.780   1.179  0.00  0.00    +0.000 OA
ENDROOT
BRANCH   1   3
ATOM      3  O   UNL     1      -2.909   0.531  -0.525  0.00  0.00    +0.000 OA
BRANCH   3   7
ATOM      4  C   UNL     1       1.159  -0.296  -0.527  0.00  0.00    +0.000 A 
ATOM      5  C   UNL     1       0.484  -0.086  -1.731  0.00  0.00    +0.000 A 
ATOM      6  C   UNL     1      -0.884   0.186  -1.726  0.00  0.00    +0.000 A 
ATOM      7  C   UNL     1      -1.573   0.229  -0.514  0.00  0.00    +0.000 A 
ATOM      8  C   UNL     1      -0.898   0.044   0.694  0.00  0.00    +0.000 A 
ATOM      9  C   UNL     1       0.470  -0.227   0.685  0.00  0.00    +0.000 A 
ENDBRANCH   3   7
ENDBRANCH   1   3
BRANCH   1  10
ATOM     10  S   UNL     1      -5.604   0.023  -0.999  0.00  0.00    +0.000 S 
BRANCH  10  11
ATOM     11  C   UNL     1      -6.642  -1.424  -1.062  0.00  0.00    +0.000 A 
ATOM     12  C   UNL     1      -7.063  -2.069   0.106  0.00  0.00    +0.000 A 
ATOM     13  C   UNL     1      -7.885  -3.196   0.033  0.00  0.00    +0.000 A 
ATOM     14  C   UNL     1      -8.300  -3.678  -1.207  0.00  0.00    +0.000 A 
ATOM     15  C   UNL     1      -7.896  -3.034  -2.375  0.00  0.00    +0.000 A 
ATOM     16  C   UNL     1      -7.072  -1.908  -2.303  0.00  0.00    +0.000 A 
ENDBRANCH  10  11
ENDBRANCH   1  10
TORSDOF 4
