REMARK  Name = *****
REMARK  2 active torsions:
REMARK  status: ('A' for Active; 'I' for Inactive)
REMARK    1  A    between atoms: C_4  and  N_7
REMARK    2  A    between atoms: C_8  and  C_9
REMARK                            x       y       z     vdW  Elec       q    Type
REMARK                         _______ _______ _______ _____ _____    ______ ____
ROOT
ATOM      1  N   UNL     1      -2.708   0.421  -0.776  0.00  0.00    +0.000 NA
ATOM      2  C   UNL     1      -3.592  -0.330  -0.199  0.00  0.00    +0.000 C 
ENDROOT
BRANCH   2   3
ATOM      3  C   UNL     1      -5.033  -0.191  -0.480  0.00  0.00    +0.000 A 
ATOM      4  C   UNL     1      -5.496   0.774  -1.379  0.00  0.00    +0.000 A 
ATOM      5  C   UNL     1      -6.863   0.879  -1.622  0.00  0.00    +0.000 A 
ATOM      6  C   UNL     1      -7.766   0.033  -0.978  0.00  0.00    +0.000 A 
ATOM      7  C   UNL     1      -7.300  -0.930  -0.081  0.00  0.00    +0.000 A 
ATOM      8  C   UNL     1      -5.932  -1.044   0.170  0.00  0.00    +0.000 A 
ATOM      9 CL   UNL     1      -7.447   2.063  -2.726  0.00  0.00    +0.000 Cl
ENDBRANCH   2   3
BRANCH   1  13
ATOM     10  C   UNL     1       1.297  -0.272   0.289  0.00  0.00    +0.000 A 
ATOM     11  C   UNL     1       0.712  -1.010  -0.739  0.00  0.00    +0.000 A 
ATOM     12  C   UNL     1      -0.619  -0.780  -1.093  0.00  0.00    +0.000 A 
ATOM     13  C   UNL     1      -1.375   0.181  -0.415  0.00  0.00    +0.000 A 
ATOM     14  C   UNL     1      -0.777   0.928   0.603  0.00  0.00    +0.000 A 
ATOM     15  C   UNL     1       0.554   0.700   0.958  0.00  0.00    +0.000 A 
ENDBRANCH   1  13
TORSDOF 2
