REMARK  Name = *****
REMARK  6 active torsions:
REMARK  status: ('A' for Active; 'I' for Inactive)
REMARK    1  A    between atoms: C_1  and  C_2
REMARK    2  A    between atoms: C_3  and  C_17
REMARK    3  A    between atoms: C_4  and  C_15
REMARK    4  A    between atoms: C_4  and  C_16
REMARK    5  A    between atoms: N_7  and  C_8
REMARK    6  A    between atoms: C_8  and  C_9
REMARK                            x       y       z     vdW  Elec       q    Type
REMARK                         _______ _______ _______ _____ _____    ______ ____
ROOT
ATOM      1  C   UNL     1       0.980  -0.019  -0.005  0.00  0.00    +0.000 C 
ATOM      2  C   UNL     1       2.455  -0.128   0.084  0.00  0.00    +0.000 C 
ATOM      3  C   UNL     1       3.283  -1.175   0.032  0.00  0.00    +0.000 C 
ATOM      4  C   UNL     1       4.705  -0.733   0.174  0.00  0.00    +0.000 C 
ATOM      5  O   UNL     1       4.601   0.693   0.313  0.00  0.00    +0.000 OA
ATOM      6  C   UNL     1       3.293   1.063   0.266  0.00  0.00    +0.000 C 
ATOM      7  N   UNL     1       2.882   2.272   0.367  0.00  0.00    +0.000 NA
ATOM      8  C   UNL     1       5.548  -1.020  -1.068  0.00  0.00    +0.000 C 
ATOM      9  C   UNL     1       5.378  -1.276   1.435  0.00  0.00    +0.000 C 
ATOM     10  C   UNL     1       2.928  -2.613  -0.140  0.00  0.00    +0.000 C 
ENDROOT
BRANCH   7  11
ATOM     11  C   UNL     1       3.939   3.273   0.545  0.00  0.00    +0.000 C 
BRANCH  11  12
ATOM     12  C   UNL     1       3.386   4.674   0.694  0.00  0.00    +0.000 A 
ATOM     13  C   UNL     1       2.216   4.916   1.428  0.00  0.00    +0.000 A 
ATOM     14  C   UNL     1       1.737   6.216   1.597  0.00  0.00    +0.000 A 
ATOM     15  C   UNL     1       2.429   7.292   1.044  0.00  0.00    +0.000 A 
ATOM     16  C   UNL     1       3.601   7.068   0.324  0.00  0.00    +0.000 A 
ATOM     17  C   UNL     1       4.080   5.767   0.154  0.00  0.00    +0.000 A 
ENDBRANCH  11  12
ENDBRANCH   7  11
TORSDOF 2
