REMARK  Name = *****
REMARK  3 active torsions:
REMARK  status: ('A' for Active; 'I' for Inactive)
REMARK    1  A    between atoms: C_4  and  N_7
REMARK    2  A    between atoms: N_7  and  C_8
REMARK    3  A    between atoms: C_8  and  C_9
REMARK                            x       y       z     vdW  Elec       q    Type
REMARK                         _______ _______ _______ _____ _____    ______ ____
ROOT
ATOM      1  N   UNL     1      -2.702   0.156  -0.485  0.00  0.00    +0.000 N 
ATOM      2  C   UNL     1      -3.761  -0.783  -0.418  0.00  0.00    +0.000 C 
ATOM      3  O   UNL     1      -3.743  -1.771   0.314  0.00  0.00    +0.000 OA
ATOM      4 CL   UNL     1      -5.154  -0.497  -1.461  0.00  0.00    +0.000 Cl
ENDROOT
BRANCH   1   8
ATOM      5  C   UNL     1       1.276  -0.726   0.896  0.00  0.00    +0.000 A 
ATOM      6  C   UNL     1       0.334  -1.738   0.780  0.00  0.00    +0.000 A 
ATOM      7  C   UNL     1      -0.964  -1.450   0.332  0.00  0.00    +0.000 A 
ATOM      8  C   UNL     1      -1.364  -0.144   0.002  0.00  0.00    +0.000 A 
ATOM      9  C   UNL     1      -0.377   0.855   0.109  0.00  0.00    +0.000 A 
ATOM     10  C   UNL     1       0.922   0.571   0.555  0.00  0.00    +0.000 A 
ENDBRANCH   1   8
BRANCH   1  11
ATOM     11  C   UNL     1      -2.972   1.508  -1.007  0.00  0.00    +0.000 C 
BRANCH  11  12
ATOM     12  C   UNL     1      -2.451   1.793  -2.404  0.00  0.00    +0.000 A 
ATOM     13  C   UNL     1      -2.063   0.759  -3.276  0.00  0.00    +0.000 A 
ATOM     14  C   UNL     1      -1.606   1.035  -4.567  0.00  0.00    +0.000 A 
ATOM     15  C   UNL     1      -1.537   2.348  -5.019  0.00  0.00    +0.000 A 
ATOM     16  C   UNL     1      -1.930   3.388  -4.180  0.00  0.00    +0.000 A 
ATOM     17  C   UNL     1      -2.388   3.114  -2.887  0.00  0.00    +0.000 A 
ATOM     18 CL   UNL     1      -2.875   4.462  -1.918  0.00  0.00    +0.000 Cl
ENDBRANCH  11  12
ENDBRANCH   1  11
TORSDOF 3
