REMARK  Name = *****
REMARK  1 active torsions:
REMARK  status: ('A' for Active; 'I' for Inactive)
REMARK    1  A    between atoms: C_6  and  C_7
REMARK                            x       y       z     vdW  Elec       q    Type
REMARK                         _______ _______ _______ _____ _____    ______ ____
ROOT
ATOM      1  C   UNL     1       0.727   1.228  -0.284  0.00  0.00    +0.000 C 
ATOM      2  C   UNL     1       1.446  -0.023   0.224  0.00  0.00    +0.000 C 
ATOM      3  C   UNL     1       0.704  -1.303  -0.165  0.00  0.00    +0.000 C 
ATOM      4  C   UNL     1      -0.741  -1.237   0.262  0.00  0.00    +0.000 C 
ATOM      5  C   UNL     1      -1.291  -2.135   1.032  0.00  0.00    +0.000 C 
ATOM      6  C   UNL     1      -1.841  -3.022   1.810  0.00  0.00    +0.000 C 
ATOM      7  C   UNL     1      -1.480  -0.012  -0.215  0.00  0.00    +0.000 C 
ATOM      8  C   UNL     1      -0.731   1.262   0.176  0.00  0.00    +0.000 C 
ENDROOT
BRANCH   6   9
ATOM      9  C   UNL     1      -2.173  -2.791   3.224  0.00  0.00    +0.000 A 
ATOM     10  C   UNL     1      -1.906  -1.576   3.874  0.00  0.00    +0.000 A 
ATOM     11  C   UNL     1      -2.238  -1.395   5.220  0.00  0.00    +0.000 A 
ATOM     12  C   UNL     1      -2.841  -2.431   5.928  0.00  0.00    +0.000 A 
ATOM     13  C   UNL     1      -3.115  -3.644   5.302  0.00  0.00    +0.000 A 
ATOM     14  C   UNL     1      -2.781  -3.822   3.956  0.00  0.00    +0.000 A 
ATOM     15 BR   UNL     1      -3.292  -2.188   7.747  0.00  0.00    +0.000 Br
ENDBRANCH   6   9
TORSDOF 1
