REMARK  Name = *****
REMARK  4 active torsions:
REMARK  status: ('A' for Active; 'I' for Inactive)
REMARK    1  A    between atoms: C_1  and  C_2
REMARK    2  A    between atoms: C_4  and  C_18
REMARK    3  A    between atoms: C_5  and  C_9
REMARK    4  A    between atoms: C_6  and  C_8
REMARK                            x       y       z     vdW  Elec       q    Type
REMARK                         _______ _______ _______ _____ _____    ______ ____
ROOT
ATOM      1  C   UNL     1       2.205   1.853   0.168  0.00  0.00    +0.000 C 
ATOM      2  C   UNL     1       1.063   0.886   0.065  0.00  0.00    +0.000 A 
ATOM      3  C   UNL     1       1.302  -0.487  -0.021  0.00  0.00    +0.000 A 
ATOM      4  C   UNL     1       0.241  -1.408  -0.097  0.00  0.00    +0.000 A 
ATOM      5  C   UNL     1      -1.097  -0.945  -0.060  0.00  0.00    +0.000 A 
ATOM      6  C   UNL     1      -1.340   0.445   0.069  0.00  0.00    +0.000 A 
ATOM      7  C   UNL     1      -0.256   1.341   0.119  0.00  0.00    +0.000 A 
ATOM      8  C   UNL     1      -2.733   1.018   0.145  0.00  0.00    +0.000 C 
ATOM      9  C   UNL     1       0.577  -2.874  -0.201  0.00  0.00    +0.000 C 
ENDROOT
BRANCH   5  10
ATOM     10  C   UNL     1      -2.204  -1.904  -0.135  0.00  0.00    +0.000 A 
ATOM     11  N   UNL     1      -2.367  -3.049   0.505  0.00  0.00    +0.000 NA
ATOM     12  C   UNL     1      -3.553  -3.532   0.015  0.00  0.00    +0.000 A 
ATOM     13  C   UNL     1      -4.265  -4.702   0.309  0.00  0.00    +0.000 A 
ATOM     14  C   UNL     1      -5.471  -4.930  -0.371  0.00  0.00    +0.000 A 
ATOM     15  C   UNL     1      -5.953  -4.017  -1.318  0.00  0.00    +0.000 A 
ATOM     16  C   UNL     1      -5.252  -2.843  -1.623  0.00  0.00    +0.000 A 
ATOM     17  C   UNL     1      -4.064  -2.656  -0.927  0.00  0.00    +0.000 A 
ATOM     18  O   UNL     1      -3.199  -1.608  -1.035  0.00  0.00    +0.000 OA
ENDBRANCH   5  10
TORSDOF 1
