REMARK  Name = *****
REMARK  1 active torsions:
REMARK  status: ('A' for Active; 'I' for Inactive)
REMARK    1  A    between atoms: C_6  and  C_7
REMARK                            x       y       z     vdW  Elec       q    Type
REMARK                         _______ _______ _______ _____ _____    ______ ____
ROOT
ATOM      1  C   UNL     1      -3.470  -0.030   0.122  0.00  0.00    +0.000 A 
ATOM      2  N   UNL     1      -4.207  -0.622   1.046  0.00  0.00    +0.000 NA
ATOM      3  C   UNL     1      -5.496  -0.375   0.647  0.00  0.00    +0.000 A 
ATOM      4  C   UNL     1      -5.489   0.361  -0.526  0.00  0.00    +0.000 A 
ATOM      5  O   UNL     1      -4.190   0.588  -0.871  0.00  0.00    +0.000 OA
ATOM      6  C   UNL     1      -6.627   0.782  -1.205  0.00  0.00    +0.000 A 
ATOM      7  C   UNL     1      -7.847   0.415  -0.623  0.00  0.00    +0.000 A 
ATOM      8  C   UNL     1      -7.889  -0.327   0.565  0.00  0.00    +0.000 A 
ATOM      9  C   UNL     1      -6.721  -0.737   1.220  0.00  0.00    +0.000 A 
ATOM     10 CL   UNL     1      -9.419  -0.746   1.240  0.00  0.00    +0.000 Cl
ENDROOT
BRANCH   1  16
ATOM     11  C   UNL     1      -1.375   0.798  -0.979  0.00  0.00    +0.000 A 
ATOM     12  C   UNL     1       0.020   0.866  -1.039  0.00  0.00    +0.000 A 
ATOM     13  C   UNL     1       0.782   0.187  -0.096  0.00  0.00    +0.000 A 
ATOM     14  C   UNL     1       0.176  -0.559   0.907  0.00  0.00    +0.000 A 
ATOM     15  C   UNL     1      -1.219  -0.625   0.968  0.00  0.00    +0.000 A 
ATOM     16  C   UNL     1      -2.014   0.052   0.026  0.00  0.00    +0.000 A 
ATOM     17  F   UNL     1       2.118   0.254  -0.153  0.00  0.00    +0.000 F 
ENDBRANCH   1  16
TORSDOF 1
