REMARK  Name = *****
REMARK  4 active torsions:
REMARK  status: ('A' for Active; 'I' for Inactive)
REMARK    1  A    between atoms: C_1  and  C_2
REMARK    2  A    between atoms: C_3  and  C_16
REMARK    3  A    between atoms: C_6  and  C_7
REMARK    4  A    between atoms: C_8  and  C_9
REMARK                            x       y       z     vdW  Elec       q    Type
REMARK                         _______ _______ _______ _____ _____    ______ ____
ROOT
ATOM      1  C   UNL     1       1.024   0.315   0.494  0.00  0.00    +0.000 C 
ATOM      2  C   UNL     1       2.438   0.070   0.097  0.00  0.00    +0.000 C 
ATOM      3  C   UNL     1       3.106  -1.093  -0.010  0.00  0.00    +0.000 C 
ATOM      4  C   UNL     1       4.530  -0.871  -0.446  0.00  0.00    +0.000 C 
ATOM      5  C   UNL     1       4.647   0.624  -0.606  0.00  0.00    +0.000 C 
ATOM      6  C   UNL     1       5.720   1.328  -0.998  0.00  0.00    +0.000 C 
ATOM      7  C   UNL     1       3.317   1.241  -0.252  0.00  0.00    +0.000 C 
ATOM      8  C   UNL     1       2.629  -2.481   0.237  0.00  0.00    +0.000 C 
ENDROOT
BRANCH   6   9
ATOM      9  C   UNL     1       7.001   0.756  -1.346  0.00  0.00    +0.000 C 
ATOM     10  C   UNL     1       8.046   1.504  -1.736  0.00  0.00    +0.000 C 
BRANCH  10  11
ATOM     11  C   UNL     1       9.363   0.954  -2.092  0.00  0.00    +0.000 A 
ATOM     12  C   UNL     1       9.506  -0.237  -2.814  0.00  0.00    +0.000 A 
ATOM     13  C   UNL     1      10.775  -0.710  -3.161  0.00  0.00    +0.000 A 
ATOM     14  C   UNL     1      11.911   0.009  -2.798  0.00  0.00    +0.000 A 
ATOM     15  C   UNL     1      11.781   1.204  -2.094  0.00  0.00    +0.000 A 
ATOM     16  C   UNL     1      10.513   1.677  -1.748  0.00  0.00    +0.000 A 
ENDBRANCH  10  11
ENDBRANCH   6   9
TORSDOF 2
