REMARK  Name = *****
REMARK  1 active torsions:
REMARK  status: ('A' for Active; 'I' for Inactive)
REMARK    1  A    between atoms: C_7  and  C_10
REMARK                            x       y       z     vdW  Elec       q    Type
REMARK                         _______ _______ _______ _____ _____    ______ ____
ROOT
ATOM      1  C   UNL     1       2.481  -0.060  -0.185  0.00  0.00    +0.000 C 
ATOM      2  C   UNL     1       1.669   1.220   0.059  0.00  0.00    +0.000 C 
ATOM      3  C   UNL     1       0.270   0.704  -0.066  0.00  0.00    +0.000 A 
ATOM      4  C   UNL     1       0.238  -0.686   0.069  0.00  0.00    +0.000 A 
ATOM      5  C   UNL     1       1.613  -1.231   0.299  0.00  0.00    +0.000 C 
ATOM      6  C   UNL     1      -0.961  -1.381   0.034  0.00  0.00    +0.000 A 
ATOM      7  C   UNL     1      -2.164  -0.676  -0.156  0.00  0.00    +0.000 A 
ATOM      8  C   UNL     1      -2.107   0.731  -0.293  0.00  0.00    +0.000 A 
ATOM      9  C   UNL     1      -0.894   1.428  -0.241  0.00  0.00    +0.000 A 
ENDROOT
BRANCH   7  10
ATOM     10  C   UNL     1      -3.455  -1.387  -0.208  0.00  0.00    +0.000 A 
ATOM     11  C   UNL     1      -4.538  -0.985   0.593  0.00  0.00    +0.000 A 
ATOM     12  C   UNL     1      -5.762  -1.658   0.543  0.00  0.00    +0.000 A 
ATOM     13  C   UNL     1      -5.925  -2.747  -0.310  0.00  0.00    +0.000 A 
ATOM     14  C   UNL     1      -4.866  -3.162  -1.112  0.00  0.00    +0.000 A 
ATOM     15  C   UNL     1      -3.642  -2.488  -1.061  0.00  0.00    +0.000 A 
ENDBRANCH   7  10
TORSDOF 1
