REMARK  Name = *****
REMARK  1 active torsions:
REMARK  status: ('A' for Active; 'I' for Inactive)
REMARK    1  A    between atoms: C_6  and  C_7
REMARK                            x       y       z     vdW  Elec       q    Type
REMARK                         _______ _______ _______ _____ _____    ______ ____
ROOT
ATOM      1  C   UNL     1       3.927   0.125   0.079  0.00  0.00    +0.000 A 
ATOM      2  N   UNL     1       4.624   0.680   1.056  0.00  0.00    +0.000 NA
ATOM      3  C   UNL     1       5.927   0.419   0.721  0.00  0.00    +0.000 A 
ATOM      4  C   UNL     1       5.973  -0.297  -0.466  0.00  0.00    +0.000 A 
ATOM      5  O   UNL     1       4.690  -0.490  -0.885  0.00  0.00    +0.000 OA
ATOM      6  C   UNL     1       7.136  -0.725  -1.090  0.00  0.00    +0.000 A 
ATOM      7  C   UNL     1       8.317  -0.383  -0.432  0.00  0.00    +0.000 A 
ATOM      8  C   UNL     1       8.328   0.336   0.766  0.00  0.00    +0.000 A 
ATOM      9  C   UNL     1       7.128   0.750   1.363  0.00  0.00    +0.000 A 
ATOM     10  F   UNL     1       9.486  -0.758  -0.969  0.00  0.00    +0.000 F 
ENDROOT
BRANCH   1  16
ATOM     11  C   UNL     1       1.885  -0.559  -1.204  0.00  0.00    +0.000 A 
ATOM     12  C   UNL     1       0.494  -0.581  -1.354  0.00  0.00    +0.000 A 
ATOM     13  C   UNL     1      -0.316   0.039  -0.406  0.00  0.00    +0.000 A 
ATOM     14  C   UNL     1       0.252   0.682   0.691  0.00  0.00    +0.000 A 
ATOM     15  C   UNL     1       1.643   0.702   0.839  0.00  0.00    +0.000 A 
ATOM     16  C   UNL     1       2.478   0.083  -0.105  0.00  0.00    +0.000 A 
ATOM     17 CL   UNL     1      -2.026   0.012  -0.592  0.00  0.00    +0.000 Cl
ENDBRANCH   1  16
TORSDOF 1
