REMARK  Name = *****
REMARK  2 active torsions:
REMARK  status: ('A' for Active; 'I' for Inactive)
REMARK    1  A    between atoms: C_6  and  S_7
REMARK    2  A    between atoms: S_7  and  C_9
REMARK                            x       y       z     vdW  Elec       q    Type
REMARK                         _______ _______ _______ _____ _____    ______ ____
ROOT
ATOM      1  C   UNL     1       0.240   1.246  -0.073  0.00  0.00    +0.000 C 
ATOM      2  C   UNL     1      -1.173   0.826   0.318  0.00  0.00    +0.000 C 
ATOM      3  C   UNL     1      -1.359  -0.657   0.232  0.00  0.00    +0.000 C 
ATOM      4  C   UNL     1      -0.348  -1.533   0.131  0.00  0.00    +0.000 C 
ATOM      5  C   UNL     1       1.067  -1.141   0.146  0.00  0.00    +0.000 C 
ATOM      6  C   UNL     1       2.056  -2.018  -0.139  0.00  0.00    +0.000 C 
ATOM      7 CL   UNL     1       1.780  -3.676  -0.582  0.00  0.00    +0.000 Cl
ATOM      8  C   UNL     1       1.283   0.313   0.546  0.00  0.00    +0.000 C 
ENDROOT
BRANCH   6   9
ATOM      9  S   UNL     1       3.807  -1.672  -0.105  0.00  0.00    +0.000 S 
ATOM     10  O   UNL     1       4.040  -0.390  -0.851  0.00  0.00    +0.000 OA
BRANCH   9  11
ATOM     11  C   UNL     1       4.068  -1.301   1.647  0.00  0.00    +0.000 A 
ATOM     12  C   UNL     1       3.708  -2.233   2.629  0.00  0.00    +0.000 A 
ATOM     13  C   UNL     1       3.924  -1.952   3.980  0.00  0.00    +0.000 A 
ATOM     14  C   UNL     1       4.509  -0.745   4.357  0.00  0.00    +0.000 A 
ATOM     15  C   UNL     1       4.884   0.182   3.386  0.00  0.00    +0.000 A 
ATOM     16  C   UNL     1       4.669  -0.098   2.035  0.00  0.00    +0.000 A 
ENDBRANCH   9  11
ENDBRANCH   6   9
TORSDOF 2
