REMARK  Name = *****
REMARK  4 active torsions:
REMARK  status: ('A' for Active; 'I' for Inactive)
REMARK    1  A    between atoms: C_4  and  O_7
REMARK    2  A    between atoms: O_7  and  C_8
REMARK    3  A    between atoms: C_8  and  O_10
REMARK    4  A    between atoms: O_10  and  C_11
REMARK                            x       y       z     vdW  Elec       q    Type
REMARK                         _______ _______ _______ _____ _____    ______ ____
ROOT
ATOM      1  C   UNL     1      -3.393  -0.487  -1.017  0.00  0.00    +0.000 C 
ATOM      2  S   UNL     1      -2.865  -1.791  -1.896  0.00  0.00    +0.000 S 
ENDROOT
BRANCH   1   3
ATOM      3  O   UNL     1      -2.706   0.174   0.000  0.00  0.00    +0.000 OA
BRANCH   3   7
ATOM      4  C   UNL     1       1.153  -0.863   1.202  0.00  0.00    +0.000 A 
ATOM      5  C   UNL     1       0.970   0.092   0.198  0.00  0.00    +0.000 A 
ATOM      6  C   UNL     1      -0.318   0.433  -0.212  0.00  0.00    +0.000 A 
ATOM      7  C   UNL     1      -1.405  -0.203   0.383  0.00  0.00    +0.000 A 
ATOM      8  C   UNL     1      -1.240  -1.139   1.400  0.00  0.00    +0.000 A 
ATOM      9  C   UNL     1       0.050  -1.475   1.805  0.00  0.00    +0.000 A 
ENDBRANCH   3   7
ENDBRANCH   1   3
BRANCH   1  10
ATOM     10  O   UNL     1      -4.657   0.022  -1.295  0.00  0.00    +0.000 OA
BRANCH  10  11
ATOM     11  C   UNL     1      -5.071   1.150  -0.572  0.00  0.00    +0.000 A 
ATOM     12  C   UNL     1      -4.718   2.419  -1.024  0.00  0.00    +0.000 A 
ATOM     13  C   UNL     1      -5.163   3.527  -0.310  0.00  0.00    +0.000 A 
ATOM     14  C   UNL     1      -5.958   3.368   0.828  0.00  0.00    +0.000 A 
ATOM     15  C   UNL     1      -6.321   2.087   1.254  0.00  0.00    +0.000 A 
ATOM     16  C   UNL     1      -5.881   0.969   0.548  0.00  0.00    +0.000 A 
ATOM     17 CL   UNL     1      -4.731   5.109  -0.833  0.00  0.00    +0.000 Cl
ENDBRANCH  10  11
ENDBRANCH   1  10
TORSDOF 4
