REMARK  Name = *****
REMARK  3 active torsions:
REMARK  status: ('A' for Active; 'I' for Inactive)
REMARK    1  A    between atoms: C_1  and  C_2
REMARK    2  A    between atoms: C_5  and  C_8
REMARK    3  A    between atoms: N_9  and  C_10
REMARK                            x       y       z     vdW  Elec       q    Type
REMARK                         _______ _______ _______ _____ _____    ______ ____
ROOT
ATOM      1  C   UNL     1      -3.322   0.210  -0.230  0.00  0.00    +0.000 C 
ATOM      2  N   UNL     1      -3.998   1.213   0.236  0.00  0.00    +0.000 NA
ENDROOT
BRANCH   1   7
ATOM      3  C   UNL     1       2.439  -0.087   0.072  0.00  0.00    +0.000 C 
ATOM      4  C   UNL     1       0.945   0.008  -0.031  0.00  0.00    +0.000 A 
ATOM      5  C   UNL     1       0.270   1.120   0.489  0.00  0.00    +0.000 A 
ATOM      6  C   UNL     1      -1.123   1.197   0.426  0.00  0.00    +0.000 A 
ATOM      7  C   UNL     1      -1.850   0.153  -0.151  0.00  0.00    +0.000 A 
ATOM      8  C   UNL     1      -1.190  -0.968  -0.659  0.00  0.00    +0.000 A 
ATOM      9  C   UNL     1       0.204  -1.040  -0.593  0.00  0.00    +0.000 A 
ENDBRANCH   1   7
BRANCH   2  10
ATOM     10  C   UNL     1      -5.389   1.134   0.094  0.00  0.00    +0.000 A 
ATOM     11  C   UNL     1      -6.165   0.485   1.059  0.00  0.00    +0.000 A 
ATOM     12  C   UNL     1      -7.554   0.422   0.924  0.00  0.00    +0.000 A 
ATOM     13  C   UNL     1      -8.168   1.021  -0.175  0.00  0.00    +0.000 A 
ATOM     14  C   UNL     1      -7.406   1.684  -1.135  0.00  0.00    +0.000 A 
ATOM     15  C   UNL     1      -6.017   1.743  -0.996  0.00  0.00    +0.000 A 
ATOM     16 CL   UNL     1      -9.878   0.945  -0.344  0.00  0.00    +0.000 Cl
ENDBRANCH   2  10
TORSDOF 2
