REMARK  Name = *****
REMARK  5 active torsions:
REMARK  status: ('A' for Active; 'I' for Inactive)
REMARK    1  A    between atoms: C_4  and  C_7
REMARK    2  A    between atoms: C_7  and  C_8
REMARK    3  A    between atoms: C_7  and  O_16
REMARK    4  A    between atoms: C_8  and  C_9
REMARK    5  A    between atoms: O_16  and  O_17
REMARK                            x       y       z     vdW  Elec       q    Type
REMARK                         _______ _______ _______ _____ _____    ______ ____
ROOT
ATOM      1  C   UNL     1      -2.743   0.492  -0.153  0.00  0.00    +0.000 C 
ENDROOT
BRANCH   1   5
ATOM      2  C   UNL     1       1.460  -0.492   0.236  0.00  0.00    +0.000 A 
ATOM      3  C   UNL     1       0.864   0.404   1.120  0.00  0.00    +0.000 A 
ATOM      4  C   UNL     1      -0.492   0.713   0.995  0.00  0.00    +0.000 A 
ATOM      5  C   UNL     1      -1.269   0.131  -0.019  0.00  0.00    +0.000 A 
ATOM      6  C   UNL     1      -0.655  -0.776  -0.899  0.00  0.00    +0.000 A 
ATOM      7  C   UNL     1       0.701  -1.083  -0.772  0.00  0.00    +0.000 A 
ENDBRANCH   1   5
BRANCH   1   8
ATOM      8  C   UNL     1      -3.060   1.280  -1.445  0.00  0.00    +0.000 C 
ATOM      9 BR   UNL     1      -2.133   3.022  -1.462  0.00  0.00    +0.000 Br
BRANCH   8  10
ATOM     10  C   UNL     1      -4.538   1.557  -1.663  0.00  0.00    +0.000 A 
ATOM     11  C   UNL     1      -5.321   2.228  -0.707  0.00  0.00    +0.000 A 
ATOM     12  C   UNL     1      -6.683   2.445  -0.924  0.00  0.00    +0.000 A 
ATOM     13  C   UNL     1      -7.283   1.996  -2.097  0.00  0.00    +0.000 A 
ATOM     14  C   UNL     1      -6.522   1.333  -3.057  0.00  0.00    +0.000 A 
ATOM     15  C   UNL     1      -5.160   1.115  -2.842  0.00  0.00    +0.000 A 
ENDBRANCH   8  10
ENDBRANCH   1   8
BRANCH   1  16
ATOM     16  O   UNL     1      -3.466  -0.760  -0.178  0.00  0.00    +0.000 OA
BRANCH  16  17
ATOM     17  O   UNL     1      -4.568  -0.632   0.773  0.00  0.00    +0.000 OA
ATOM     18  H   UNL     1      -5.081  -1.455   0.786  0.00  0.00    +0.000 HD
ENDBRANCH  16  17
ENDBRANCH   1  16
TORSDOF 5
