REMARK  Name = *****
REMARK  3 active torsions:
REMARK  status: ('A' for Active; 'I' for Inactive)
REMARK    1  A    between atoms: C_1  and  C_2
REMARK    2  A    between atoms: C_7  and  C_9
REMARK    3  A    between atoms: C_10  and  C_11
REMARK                            x       y       z     vdW  Elec       q    Type
REMARK                         _______ _______ _______ _____ _____    ______ ____
ROOT
ATOM      1  C   UNL     1       5.345   2.495  -0.099  0.00  0.00    +0.000 C 
ATOM      2  C   UNL     1       6.671   2.703  -0.039  0.00  0.00    +0.000 C 
ENDROOT
BRANCH   1   9
ATOM      3  C   UNL     1       6.071  -2.251   0.163  0.00  0.00    +0.000 C 
ATOM      4  C   UNL     1       5.039  -1.174   0.060  0.00  0.00    +0.000 A 
ATOM      5  C   UNL     1       3.724  -1.424   0.003  0.00  0.00    +0.000 A 
ATOM      6  C   UNL     1       2.789  -0.292  -0.098  0.00  0.00    +0.000 A 
ATOM      7  O   UNL     1       1.578  -0.466  -0.151  0.00  0.00    +0.000 OA
ATOM      8  C   UNL     1       3.372   1.059  -0.134  0.00  0.00    +0.000 A 
ATOM      9  C   UNL     1       4.703   1.192  -0.070  0.00  0.00    +0.000 A 
ATOM     10  O   UNL     1       5.563   0.109   0.028  0.00  0.00    +0.000 OA
ENDBRANCH   1   9
BRANCH   2  11
ATOM     11  C   UNL     1       7.295   4.033  -0.081  0.00  0.00    +0.000 A 
ATOM     12  C   UNL     1       6.759   5.133   0.604  0.00  0.00    +0.000 A 
ATOM     13  C   UNL     1       7.398   6.376   0.564  0.00  0.00    +0.000 A 
ATOM     14  C   UNL     1       8.584   6.522  -0.152  0.00  0.00    +0.000 A 
ATOM     15  C   UNL     1       9.139   5.435  -0.824  0.00  0.00    +0.000 A 
ATOM     16  C   UNL     1       8.498   4.193  -0.782  0.00  0.00    +0.000 A 
ATOM     17 CL   UNL     1       9.372   8.050  -0.201  0.00  0.00    +0.000 Cl
ENDBRANCH   2  11
TORSDOF 2
