REMARK  Name = *****
REMARK  2 active torsions:
REMARK  status: ('A' for Active; 'I' for Inactive)
REMARK    1  A    between atoms: C_3  and  N_9
REMARK    2  A    between atoms: C_10  and  C_11
REMARK                            x       y       z     vdW  Elec       q    Type
REMARK                         _______ _______ _______ _____ _____    ______ ____
ROOT
ATOM      1  N   UNL     1      -1.105   2.824  -0.553  0.00  0.00    +0.000 NA
ATOM      2  C   UNL     1      -1.601   3.562   0.387  0.00  0.00    +0.000 C 
ENDROOT
BRANCH   1   5
ATOM      3  C   UNL     1      -1.469  -0.820  -1.101  0.00  0.00    +0.000 A 
ATOM      4  C   UNL     1      -1.554   0.567  -1.264  0.00  0.00    +0.000 A 
ATOM      5  C   UNL     1      -1.012   1.439  -0.311  0.00  0.00    +0.000 A 
ATOM      6  C   UNL     1      -0.357   0.890   0.800  0.00  0.00    +0.000 A 
ATOM      7  C   UNL     1      -0.274  -0.490   0.960  0.00  0.00    +0.000 A 
ATOM      8  C   UNL     1      -0.828  -1.350   0.018  0.00  0.00    +0.000 A 
ATOM      9  F   UNL     1       0.343  -1.005   2.033  0.00  0.00    +0.000 F 
ATOM     10  F   UNL     1       0.188   1.693   1.728  0.00  0.00    +0.000 F 
ENDBRANCH   1   5
BRANCH   2  11
ATOM     11  C   UNL     1      -1.724   5.026   0.238  0.00  0.00    +0.000 A 
ATOM     12  C   UNL     1      -2.296   5.762   1.278  0.00  0.00    +0.000 A 
ATOM     13  C   UNL     1      -2.415   7.142   1.144  0.00  0.00    +0.000 A 
ATOM     14  C   UNL     1      -1.971   7.784  -0.008  0.00  0.00    +0.000 A 
ATOM     15  C   UNL     1      -1.398   7.055  -1.045  0.00  0.00    +0.000 A 
ATOM     16  C   UNL     1      -1.274   5.669  -0.923  0.00  0.00    +0.000 A 
ATOM     17  F   UNL     1      -2.091   9.114  -0.127  0.00  0.00    +0.000 F 
ATOM     18  F   UNL     1      -2.966   7.850   2.139  0.00  0.00    +0.000 F 
ENDBRANCH   2  11
TORSDOF 2
