REMARK  Name = *****
REMARK  3 active torsions:
REMARK  status: ('A' for Active; 'I' for Inactive)
REMARK    1  A    between atoms: C_1  and  C_2
REMARK    2  A    between atoms: C_9  and  C_11
REMARK    3  A    between atoms: C_13  and  C_17
REMARK                            x       y       z     vdW  Elec       q    Type
REMARK                         _______ _______ _______ _____ _____    ______ ____
ROOT
ATOM      1  C   UNL     1       1.072  -0.139  -0.095  0.00  0.00    +0.000 C 
ATOM      2  C   UNL     1       2.573  -0.068  -0.055  0.00  0.00    +0.000 A 
ATOM      3  C   UNL     1       3.338  -1.243  -0.148  0.00  0.00    +0.000 A 
ATOM      4  C   UNL     1       4.718  -1.078  -0.117  0.00  0.00    +0.000 A 
ATOM      5  C   UNL     1       5.367   0.140  -0.009  0.00  0.00    +0.000 A 
ATOM      6  C   UNL     1       4.602   1.309   0.075  0.00  0.00    +0.000 A 
ATOM      7  C   UNL     1       3.203   1.187   0.048  0.00  0.00    +0.000 A 
ATOM      8  N   UNL     1       6.724  -0.054  -0.007  0.00  0.00    +0.000 NA
ATOM      9  C   UNL     1       6.856  -1.365  -0.111  0.00  0.00    +0.000 A 
ATOM     10  O   UNL     1       5.669  -2.053  -0.184  0.00  0.00    +0.000 OA
ENDROOT
BRANCH   9  11
ATOM     11  C   UNL     1       8.081  -2.161  -0.155  0.00  0.00    +0.000 A 
ATOM     12  C   UNL     1       9.327  -1.518  -0.075  0.00  0.00    +0.000 A 
ATOM     13  C   UNL     1      10.529  -2.246  -0.108  0.00  0.00    +0.000 A 
ATOM     14  C   UNL     1      10.471  -3.641  -0.232  0.00  0.00    +0.000 A 
ATOM     15  C   UNL     1       9.242  -4.294  -0.314  0.00  0.00    +0.000 A 
ATOM     16  C   UNL     1       8.056  -3.558  -0.275  0.00  0.00    +0.000 A 
BRANCH  13  17
ATOM     17  C   UNL     1      11.865  -1.549  -0.031  0.00  0.00    +0.000 C 
ATOM     18  F   UNL     1      11.777  -0.224   0.269  0.00  0.00    +0.000 F 
ATOM     19  F   UNL     1      12.682  -2.091   0.915  0.00  0.00    +0.000 F 
ATOM     20  F   UNL     1      12.555  -1.622  -1.203  0.00  0.00    +0.000 F 
ENDBRANCH  13  17
ENDBRANCH   9  11
TORSDOF 2
