REMARK  Name = *****
REMARK  4 active torsions:
REMARK  status: ('A' for Active; 'I' for Inactive)
REMARK    1  A    between atoms: C_4  and  C_7
REMARK    2  A    between atoms: C_7  and  O_8
REMARK    3  A    between atoms: O_8  and  C_9
REMARK    4  A    between atoms: C_9  and  C_11
REMARK                            x       y       z     vdW  Elec       q    Type
REMARK                         _______ _______ _______ _____ _____    ______ ____
ROOT
ATOM      1  C   UNL     1       4.549  -3.709  -0.505  0.00  0.00    +0.000 A 
ATOM      2  C   UNL     1       5.627  -4.263  -1.190  0.00  0.00    +0.000 A 
ATOM      3  C   UNL     1       6.365  -5.290  -0.611  0.00  0.00    +0.000 A 
ATOM      4  C   UNL     1       6.025  -5.770   0.647  0.00  0.00    +0.000 A 
ATOM      5  C   UNL     1       4.945  -5.224   1.328  0.00  0.00    +0.000 A 
ATOM      6  C   UNL     1       4.204  -4.196   0.754  0.00  0.00    +0.000 A 
ATOM      7  F   UNL     1       3.149  -3.702   1.417  0.00  0.00    +0.000 F 
ATOM      8  F   UNL     1       4.611  -5.692   2.539  0.00  0.00    +0.000 F 
ATOM      9  F   UNL     1       6.738  -6.760   1.203  0.00  0.00    +0.000 F 
ATOM     10  F   UNL     1       7.410  -5.814  -1.267  0.00  0.00    +0.000 F 
ATOM     11  F   UNL     1       5.985  -3.800  -2.396  0.00  0.00    +0.000 F 
ENDROOT
BRANCH   1  12
ATOM     12  C   UNL     1       3.770  -2.646  -1.135  0.00  0.00    +0.000 C 
ATOM     13  O   UNL     1       3.317  -2.722  -2.262  0.00  0.00    +0.000 OA
BRANCH  12  14
ATOM     14  O   UNL     1       3.691  -1.604  -0.276  0.00  0.00    +0.000 OA
BRANCH  14  15
ATOM     15  C   UNL     1       2.968  -0.448  -0.733  0.00  0.00    +0.000 C 
BRANCH  15  19
ATOM     16  C   UNL     1      -1.300   0.020   0.125  0.00  0.00    +0.000 C 
ATOM     17  C   UNL     1      -0.647  -1.318   0.456  0.00  0.00    +0.000 C 
ATOM     18  C   UNL     1       0.695  -1.484  -0.254  0.00  0.00    +0.000 C 
ATOM     19  C   UNL     1       1.647  -0.313   0.038  0.00  0.00    +0.000 C 
ATOM     20  C   UNL     1       0.976   1.028  -0.292  0.00  0.00    +0.000 C 
ATOM     21  C   UNL     1      -0.363   1.186   0.424  0.00  0.00    +0.000 C 
ENDBRANCH  15  19
ENDBRANCH  14  15
ENDBRANCH  12  14
ENDBRANCH   1  12
TORSDOF 4
