REMARK  Name = *****
REMARK  5 active torsions:
REMARK  status: ('A' for Active; 'I' for Inactive)
REMARK    1  A    between atoms: C_1  and  N_2
REMARK    2  A    between atoms: N_2  and  C_3
REMARK    3  A    between atoms: N_2  and  C_4
REMARK    4  A    between atoms: C_4  and  C_12
REMARK    5  A    between atoms: C_5  and  C_6
REMARK                            x       y       z     vdW  Elec       q    Type
REMARK                         _______ _______ _______ _____ _____    ______ ____
ROOT
ATOM      1  C   UNL     1       3.197   0.929   0.631  0.00  0.00    +0.000 C 
ATOM      2  C   UNL     1       2.540   1.668   1.550  0.00  0.00    +0.000 C 
ENDROOT
BRANCH   2   3
ATOM      3  C   UNL     1       1.092   1.737   1.776  0.00  0.00    +0.000 A 
ATOM      4  C   UNL     1       0.577   1.462   3.048  0.00  0.00    +0.000 A 
ATOM      5  C   UNL     1      -0.795   1.556   3.288  0.00  0.00    +0.000 A 
ATOM      6  C   UNL     1      -1.659   1.939   2.263  0.00  0.00    +0.000 A 
ATOM      7  C   UNL     1      -1.152   2.229   0.997  0.00  0.00    +0.000 A 
ATOM      8  C   UNL     1       0.220   2.134   0.756  0.00  0.00    +0.000 A 
ENDBRANCH   2   3
BRANCH   1   9
ATOM      9  C   UNL     1       4.664   1.166   0.596  0.00  0.00    +0.000 A 
ATOM     10  C   UNL     1       5.540   0.214   1.136  0.00  0.00    +0.000 A 
ATOM     11  C   UNL     1       6.919   0.431   1.113  0.00  0.00    +0.000 A 
ATOM     12  C   UNL     1       7.432   1.600   0.552  0.00  0.00    +0.000 A 
ATOM     13  C   UNL     1       6.568   2.554   0.013  0.00  0.00    +0.000 A 
ATOM     14  C   UNL     1       5.189   2.338   0.035  0.00  0.00    +0.000 A 
ENDBRANCH   1   9
BRANCH   1  16
ATOM     15  C   UNL     1       1.559  -0.896   0.096  0.00  0.00    +0.000 C 
ATOM     16  N   UNL     1       2.689  -0.033  -0.250  0.00  0.00    +0.000 N 
ATOM     17  C   UNL     1       3.393  -0.434  -1.471  0.00  0.00    +0.000 C 
ENDBRANCH   1  16
TORSDOF 3
