REMARK  Name = *****
REMARK  3 active torsions:
REMARK  status: ('A' for Active; 'I' for Inactive)
REMARK    1  A    between atoms: C_1  and  C_2
REMARK    2  A    between atoms: C_3  and  C_8
REMARK    3  A    between atoms: C_9  and  C_10
REMARK                            x       y       z     vdW  Elec       q    Type
REMARK                         _______ _______ _______ _____ _____    ______ ____
ROOT
ATOM      1  C   UNL     1       0.950  -2.356   0.160  0.00  0.00    +0.000 C 
ATOM      2  C   UNL     1       2.238  -2.709   0.317  0.00  0.00    +0.000 C 
ENDROOT
BRANCH   2   3
ATOM      3  C   UNL     1       2.702  -4.106   0.294  0.00  0.00    +0.000 A 
ATOM      4  C   UNL     1       3.795  -4.518  -0.491  0.00  0.00    +0.000 A 
ATOM      5  C   UNL     1       4.227  -5.849  -0.468  0.00  0.00    +0.000 A 
ATOM      6  C   UNL     1       3.581  -6.783   0.344  0.00  0.00    +0.000 A 
ATOM      7  C   UNL     1       2.507  -6.381   1.134  0.00  0.00    +0.000 A 
ATOM      8  C   UNL     1       2.071  -5.055   1.117  0.00  0.00    +0.000 A 
ATOM      9 CL   UNL     1       1.715  -7.527   2.142  0.00  0.00    +0.000 Cl
ATOM     10 CL   UNL     1       4.644  -3.426  -1.532  0.00  0.00    +0.000 Cl
ENDBRANCH   2   3
BRANCH   1  13
ATOM     11  C   UNL     1      -1.931  -1.643  -0.350  0.00  0.00    +0.000 C 
ATOM     12  C   UNL     1      -0.870  -0.623  -0.057  0.00  0.00    +0.000 A 
ATOM     13  C   UNL     1       0.471  -0.959   0.177  0.00  0.00    +0.000 A 
ATOM     14  N   UNL     1       1.417  -0.021   0.441  0.00  0.00    +0.000 NA
ATOM     15  C   UNL     1       1.038   1.273   0.472  0.00  0.00    +0.000 A 
ATOM     16  C   UNL     1      -0.257   1.697   0.254  0.00  0.00    +0.000 A 
ATOM     17  C   UNL     1      -1.221   0.734  -0.014  0.00  0.00    +0.000 A 
ENDBRANCH   1  13
TORSDOF 2
