REMARK  Name = *****
REMARK  1 active torsions:
REMARK  status: ('A' for Active; 'I' for Inactive)
REMARK    1  A    between atoms: C_4  and  C_7
REMARK                            x       y       z     vdW  Elec       q    Type
REMARK                         _______ _______ _______ _____ _____    ______ ____
ROOT
ATOM      1  C   UNL     1       2.708  -0.527  -0.537  0.00  0.00    +0.000 A 
ATOM      2  C   UNL     1       3.773  -0.714   0.261  0.00  0.00    +0.000 A 
ATOM      3  C   UNL     1       5.143  -0.962  -0.194  0.00  0.00    +0.000 A 
ATOM      4  C   UNL     1       6.168  -1.004   0.767  0.00  0.00    +0.000 A 
ATOM      5  C   UNL     1       7.490  -1.264   0.396  0.00  0.00    +0.000 A 
ATOM      6  C   UNL     1       7.805  -1.491  -0.939  0.00  0.00    +0.000 A 
ATOM      7  C   UNL     1       6.797  -1.455  -1.902  0.00  0.00    +0.000 A 
ATOM      8  C   UNL     1       5.466  -1.187  -1.536  0.00  0.00    +0.000 A 
ATOM      9  C   UNL     1       4.445  -1.163  -2.606  0.00  0.00    +0.000 A 
ATOM     10  O   UNL     1       4.728  -1.539  -3.739  0.00  0.00    +0.000 OA
ATOM     11  S   UNL     1       2.844  -0.543  -2.270  0.00  0.00    +0.000 S 
ENDROOT
BRANCH   1  15
ATOM     12  C   UNL     1      -1.576   0.296   0.073  0.00  0.00    +0.000 C 
ATOM     13  C   UNL     1      -1.044  -1.097   0.397  0.00  0.00    +0.000 C 
ATOM     14  C   UNL     1       0.303  -1.358  -0.278  0.00  0.00    +0.000 C 
ATOM     15  C   UNL     1       1.332  -0.268   0.080  0.00  0.00    +0.000 C 
ATOM     16  C   UNL     1       0.786   1.134  -0.252  0.00  0.00    +0.000 C 
ATOM     17  C   UNL     1      -0.563   1.382   0.423  0.00  0.00    +0.000 C 
ENDBRANCH   1  15
TORSDOF 1
