REMARK  Name = *****
REMARK  3 active torsions:
REMARK  status: ('A' for Active; 'I' for Inactive)
REMARK    1  A    between atoms: C_4  and  C_7
REMARK    2  A    between atoms: C_8  and  C_9
REMARK    3  A    between atoms: C_9  and  C_11
REMARK                            x       y       z     vdW  Elec       q    Type
REMARK                         _______ _______ _______ _____ _____    ______ ____
ROOT
ATOM      1  C   UNL     1      -5.158  -0.379  -0.361  0.00  0.00    +0.000 C 
ATOM      2  O   UNL     1      -5.577   0.735  -0.657  0.00  0.00    +0.000 OA
ENDROOT
BRANCH   1   3
ATOM      3  C   UNL     1      -6.126  -1.488  -0.186  0.00  0.00    +0.000 A 
ATOM      4  C   UNL     1      -7.325  -1.430  -0.911  0.00  0.00    +0.000 A 
ATOM      5  C   UNL     1      -8.268  -2.442  -0.765  0.00  0.00    +0.000 A 
ATOM      6  C   UNL     1      -8.035  -3.503   0.103  0.00  0.00    +0.000 A 
ATOM      7  C   UNL     1      -6.860  -3.565   0.841  0.00  0.00    +0.000 A 
ATOM      8  C   UNL     1      -5.913  -2.553   0.696  0.00  0.00    +0.000 A 
ATOM      9  F   UNL     1      -4.807  -2.621   1.449  0.00  0.00    +0.000 F 
ATOM     10  F   UNL     1      -8.947  -4.475   0.240  0.00  0.00    +0.000 F 
ATOM     11  F   UNL     1      -9.406  -2.386  -1.469  0.00  0.00    +0.000 F 
ENDBRANCH   1   3
BRANCH   1  13
ATOM     12  C   UNL     1      -2.826   0.347  -0.268  0.00  0.00    +0.000 C 
ATOM     13  C   UNL     1      -3.704  -0.667  -0.235  0.00  0.00    +0.000 C 
BRANCH  12  17
ATOM     14  C   UNL     1       1.415  -0.059   0.095  0.00  0.00    +0.000 A 
ATOM     15  C   UNL     1       0.699  -0.991  -0.653  0.00  0.00    +0.000 A 
ATOM     16  C   UNL     1      -0.688  -0.875  -0.776  0.00  0.00    +0.000 A 
ATOM     17  C   UNL     1      -1.373   0.171  -0.143  0.00  0.00    +0.000 A 
ATOM     18  C   UNL     1      -0.640   1.112   0.592  0.00  0.00    +0.000 A 
ATOM     19  C   UNL     1       0.747   0.994   0.715  0.00  0.00    +0.000 A 
ENDBRANCH  12  17
ENDBRANCH   1  13
TORSDOF 3
