REMARK  Name = *****
REMARK  2 active torsions:
REMARK  status: ('A' for Active; 'I' for Inactive)
REMARK    1  A    between atoms: C_5  and  C_8
REMARK    2  A    between atoms: C_9  and  C_10
REMARK                            x       y       z     vdW  Elec       q    Type
REMARK                         _______ _______ _______ _____ _____    ______ ____
ROOT
ATOM      1  C   UNL     1      -0.659   2.462   1.024  0.00  0.00    +0.000 C 
ATOM      2  C   UNL     1      -0.842   3.693   0.515  0.00  0.00    +0.000 C 
ENDROOT
BRANCH   1   7
ATOM      3  C   UNL     1      -0.345  -1.672  -0.271  0.00  0.00    +0.000 C 
ATOM      4  C   UNL     1       0.682  -1.084   0.706  0.00  0.00    +0.000 C 
ATOM      5  C   UNL     1       0.817   0.412   0.662  0.00  0.00    +0.000 C 
ATOM      6  C   UNL     1       0.858   1.192  -0.624  0.00  0.00    +0.000 C 
ATOM      7  C   UNL     1      -0.384   1.241   0.246  0.00  0.00    +0.000 C 
ATOM      8  C   UNL     1      -1.572   0.487  -0.200  0.00  0.00    +0.000 C 
ATOM      9  C   UNL     1      -1.580  -0.834  -0.442  0.00  0.00    +0.000 C 
ENDBRANCH   1   7
BRANCH   2  10
ATOM     10  C   UNL     1      -1.130   4.892   1.313  0.00  0.00    +0.000 A 
ATOM     11  C   UNL     1      -0.547   5.116   2.567  0.00  0.00    +0.000 A 
ATOM     12  C   UNL     1      -0.822   6.285   3.281  0.00  0.00    +0.000 A 
ATOM     13  C   UNL     1      -1.675   7.247   2.744  0.00  0.00    +0.000 A 
ATOM     14  C   UNL     1      -2.248   7.044   1.491  0.00  0.00    +0.000 A 
ATOM     15  C   UNL     1      -1.972   5.875   0.777  0.00  0.00    +0.000 A 
ENDBRANCH   2  10
TORSDOF 2
