REMARK  Name = *****
REMARK  4 active torsions:
REMARK  status: ('A' for Active; 'I' for Inactive)
REMARK    1  A    between atoms: C_6  and  C_7
REMARK    2  A    between atoms: C_7  and  S_8
REMARK    3  A    between atoms: S_8  and  C_9
REMARK    4  A    between atoms: C_12  and  C_15
REMARK                            x       y       z     vdW  Elec       q    Type
REMARK                         _______ _______ _______ _____ _____    ______ ____
ROOT
ATOM      1  S   UNL     1      -4.084   1.776  -0.673  0.00  0.00    +0.000 S 
ENDROOT
BRANCH   1   2
ATOM      2  C   UNL     1      -5.843   1.675  -0.381  0.00  0.00    +0.000 A 
ATOM      3  C   UNL     1      -6.587   0.504  -0.556  0.00  0.00    +0.000 A 
ATOM      4  C   UNL     1      -7.969   0.500  -0.331  0.00  0.00    +0.000 A 
ATOM      5  C   UNL     1      -8.623   1.671   0.059  0.00  0.00    +0.000 A 
ATOM      6  C   UNL     1      -7.889   2.848   0.221  0.00  0.00    +0.000 A 
ATOM      7  C   UNL     1      -6.508   2.848  -0.002  0.00  0.00    +0.000 A 
BRANCH   5   8
ATOM      8  C   UNL     1     -10.040   1.667   0.283  0.00  0.00    +0.000 C 
ATOM      9  N   UNL     1     -11.186   1.659   0.465  0.00  0.00    +0.000 NA
ENDBRANCH   5   8
ENDBRANCH   1   2
BRANCH   1  10
ATOM     10  C   UNL     1      -3.506   0.153  -0.073  0.00  0.00    +0.000 C 
BRANCH  10  16
ATOM     11  C   UNL     1      -1.219  -0.143  -1.117  0.00  0.00    +0.000 A 
ATOM     12  C   UNL     1       0.173  -0.174  -1.028  0.00  0.00    +0.000 A 
ATOM     13  C   UNL     1       0.786   0.051   0.198  0.00  0.00    +0.000 A 
ATOM     14  C   UNL     1       0.034   0.310   1.338  0.00  0.00    +0.000 A 
ATOM     15  C   UNL     1      -1.358   0.343   1.252  0.00  0.00    +0.000 A 
ATOM     16  C   UNL     1      -2.000   0.109   0.024  0.00  0.00    +0.000 A 
ATOM     17  F   UNL     1       2.123   0.021   0.283  0.00  0.00    +0.000 F 
ENDBRANCH  10  16
ENDBRANCH   1  10
TORSDOF 4
