REMARK  Name = *****
REMARK  2 active torsions:
REMARK  status: ('A' for Active; 'I' for Inactive)
REMARK    1  A    between atoms: C_2  and  C_14
REMARK    2  A    between atoms: C_4  and  C_6
REMARK                            x       y       z     vdW  Elec       q    Type
REMARK                         _______ _______ _______ _____ _____    ______ ____
ROOT
ATOM      1  C   UNL     1       0.388   0.834  -0.279  0.00  0.00    +0.000 C 
ATOM      2  C   UNL     1       0.667  -0.602   0.015  0.00  0.00    +0.000 C 
ATOM      3  N   UNL     1      -0.670  -0.061   0.078  0.00  0.00    +0.000 N 
ATOM      4  C   UNL     1      -1.618  -0.404  -0.880  0.00  0.00    +0.000 C 
ATOM      5  O   UNL     1      -1.376  -0.739  -2.036  0.00  0.00    +0.000 OA
ENDROOT
BRANCH   4   6
ATOM      6  C   UNL     1      -3.021  -0.164  -0.473  0.00  0.00    +0.000 A 
ATOM      7  C   UNL     1      -3.612  -0.729   0.661  0.00  0.00    +0.000 A 
ATOM      8  C   UNL     1      -4.942  -0.424   0.976  0.00  0.00    +0.000 A 
ATOM      9  C   UNL     1      -5.675   0.433   0.157  0.00  0.00    +0.000 A 
ATOM     10  C   UNL     1      -5.100   0.984  -0.985  0.00  0.00    +0.000 A 
ATOM     11  C   UNL     1      -3.775   0.681  -1.304  0.00  0.00    +0.000 A 
ATOM     12 CL   UNL     1      -7.306   0.805   0.554  0.00  0.00    +0.000 Cl
ATOM     13 CL   UNL     1      -2.804  -1.858   1.681  0.00  0.00    +0.000 Cl
ENDBRANCH   4   6
BRANCH   2  14
ATOM     14  C   UNL     1       1.347  -0.994   1.303  0.00  0.00    +0.000 A 
ATOM     15  C   UNL     1       0.880  -2.066   2.081  0.00  0.00    +0.000 A 
ATOM     16  C   UNL     1       1.515  -2.442   3.268  0.00  0.00    +0.000 A 
ATOM     17  C   UNL     1       2.647  -1.759   3.698  0.00  0.00    +0.000 A 
ATOM     18  C   UNL     1       3.146  -0.706   2.939  0.00  0.00    +0.000 A 
ATOM     19  C   UNL     1       2.504  -0.333   1.754  0.00  0.00    +0.000 A 
ENDBRANCH   2  14
TORSDOF 2
