REMARK  Name = *****
REMARK  4 active torsions:
REMARK  status: ('A' for Active; 'I' for Inactive)
REMARK    1  A    between atoms: C_4  and  C_17
REMARK    2  A    between atoms: C_5  and  C_7
REMARK    3  A    between atoms: C_7  and  O_9
REMARK    4  A    between atoms: O_9  and  C_10
REMARK                            x       y       z     vdW  Elec       q    Type
REMARK                         _______ _______ _______ _____ _____    ______ ____
ROOT
ATOM      1  C   UNL     1       1.314  -0.195   0.138  0.00  0.00    +0.000 A 
ATOM      2  C   UNL     1       0.462  -1.290   0.022  0.00  0.00    +0.000 A 
ATOM      3  C   UNL     1      -0.920  -1.098  -0.045  0.00  0.00    +0.000 A 
ATOM      4  C   UNL     1      -1.475   0.195   0.001  0.00  0.00    +0.000 A 
ATOM      5  C   UNL     1      -0.600   1.294   0.085  0.00  0.00    +0.000 A 
ATOM      6  C   UNL     1       0.786   1.094   0.173  0.00  0.00    +0.000 A 
ENDROOT
BRANCH   4   7
ATOM      7  C   UNL     1      -2.971   0.362  -0.035  0.00  0.00    +0.000 C 
ATOM      8  F   UNL     1      -3.639  -0.764   0.347  0.00  0.00    +0.000 F 
ATOM      9  F   UNL     1      -3.427   1.346   0.787  0.00  0.00    +0.000 F 
ATOM     10  F   UNL     1      -3.436   0.656  -1.279  0.00  0.00    +0.000 F 
ENDBRANCH   4   7
BRANCH   5  11
ATOM     11  C   UNL     1      -1.065   2.700   0.114  0.00  0.00    +0.000 C 
ATOM     12  O   UNL     1      -0.666   3.516   0.928  0.00  0.00    +0.000 OA
BRANCH  11  13
ATOM     13  O   UNL     1      -1.889   2.899  -0.972  0.00  0.00    +0.000 OA
BRANCH  13  14
ATOM     14  C   UNL     1      -2.370   4.208  -1.075  0.00  0.00    +0.000 A 
ATOM     15  C   UNL     1      -1.533   5.236  -1.506  0.00  0.00    +0.000 A 
ATOM     16  C   UNL     1      -2.062   6.517  -1.640  0.00  0.00    +0.000 A 
ATOM     17  C   UNL     1      -3.410   6.763  -1.365  0.00  0.00    +0.000 A 
ATOM     18  C   UNL     1      -4.241   5.717  -0.956  0.00  0.00    +0.000 A 
ATOM     19  C   UNL     1      -3.722   4.431  -0.816  0.00  0.00    +0.000 A 
ATOM     20 CL   UNL     1      -1.050   7.809  -2.157  0.00  0.00    +0.000 Cl
ENDBRANCH  13  14
ENDBRANCH  11  13
ENDBRANCH   5  11
TORSDOF 4
