REMARK  Name = *****
REMARK  5 active torsions:
REMARK  status: ('A' for Active; 'I' for Inactive)
REMARK    1  A    between atoms: C_1  and  C_2
REMARK    2  A    between atoms: C_1  and  N_8
REMARK    3  A    between atoms: N_8  and  S_9
REMARK    4  A    between atoms: S_9  and  C_11
REMARK    5  A    between atoms: C_14  and  C_17
REMARK                            x       y       z     vdW  Elec       q    Type
REMARK                         _______ _______ _______ _____ _____    ______ ____
ROOT
ATOM      1  S   UNL     1       4.067   1.413  -0.640  0.00  0.00    +0.000 S 
ATOM      2  O   UNL     1       4.675   1.652   0.653  0.00  0.00    +0.000 OA
ATOM      3  F   UNL     1       4.376   2.714  -1.493  0.00  0.00    +0.000 F 
ENDROOT
BRANCH   1   4
ATOM      4  C   UNL     1       4.990   0.101  -1.421  0.00  0.00    +0.000 A 
ATOM      5  C   UNL     1       4.531  -0.431  -2.630  0.00  0.00    +0.000 A 
ATOM      6  C   UNL     1       5.197  -1.517  -3.199  0.00  0.00    +0.000 A 
ATOM      7  C   UNL     1       6.320  -2.069  -2.570  0.00  0.00    +0.000 A 
ATOM      8  C   UNL     1       6.785  -1.507  -1.373  0.00  0.00    +0.000 A 
ATOM      9  C   UNL     1       6.119  -0.427  -0.791  0.00  0.00    +0.000 A 
ATOM     10  C   UNL     1       7.035  -3.246  -3.168  0.00  0.00    +0.000 C 
ENDBRANCH   1   4
BRANCH   1  11
ATOM     11  N   UNL     1       2.578   1.112  -0.876  0.00  0.00    +0.000 NA
BRANCH  11  12
ATOM     12  C   UNL     1       1.994  -0.022  -0.171  0.00  0.00    +0.000 C 
BRANCH  12  13
ATOM     13  C   UNL     1       0.913   0.421   0.791  0.00  0.00    +0.000 A 
ATOM     14  C   UNL     1      -0.163   1.213   0.362  0.00  0.00    +0.000 A 
ATOM     15  C   UNL     1      -1.183   1.568   1.246  0.00  0.00    +0.000 A 
ATOM     16  C   UNL     1      -1.143   1.132   2.569  0.00  0.00    +0.000 A 
ATOM     17  C   UNL     1      -0.080   0.346   3.010  0.00  0.00    +0.000 A 
ATOM     18  C   UNL     1       0.942  -0.008   2.128  0.00  0.00    +0.000 A 
ENDBRANCH  12  13
ENDBRANCH  11  12
ENDBRANCH   1  11
TORSDOF 4
