REMARK  Name = *****
REMARK  3 active torsions:
REMARK  status: ('A' for Active; 'I' for Inactive)
REMARK    1  A    between atoms: C_3  and  O_8
REMARK    2  A    between atoms: O_8  and  C_9
REMARK    3  A    between atoms: C_9  and  C_10
REMARK                            x       y       z     vdW  Elec       q    Type
REMARK                         _______ _______ _______ _____ _____    ______ ____
ROOT
ATOM      1  C   UNL     1      -1.226   3.637   0.007  0.00  0.00    +0.000 C 
ENDROOT
BRANCH   1   2
ATOM      2  C   UNL     1      -2.209   4.788   0.027  0.00  0.00    +0.000 A 
ATOM      3  C   UNL     1      -1.857   6.016  -0.558  0.00  0.00    +0.000 A 
ATOM      4  C   UNL     1      -2.734   7.107  -0.519  0.00  0.00    +0.000 A 
ATOM      5  C   UNL     1      -3.973   6.983   0.117  0.00  0.00    +0.000 A 
ATOM      6  C   UNL     1      -4.326   5.771   0.715  0.00  0.00    +0.000 A 
ATOM      7  C   UNL     1      -3.448   4.684   0.676  0.00  0.00    +0.000 A 
ATOM      8 CL   UNL     1      -5.105   8.285   0.205  0.00  0.00    +0.000 Cl
ATOM      9 CL   UNL     1      -2.219   8.576  -1.269  0.00  0.00    +0.000 Cl
ENDBRANCH   1   2
BRANCH   1  10
ATOM     10  O   UNL     1      -1.927   2.394  -0.047  0.00  0.00    +0.000 OA
BRANCH  10  13
ATOM     11  C   UNL     1      -1.269  -1.177  -0.091  0.00  0.00    +0.000 A 
ATOM     12  C   UNL     1      -1.910   0.065  -0.077  0.00  0.00    +0.000 A 
ATOM     13  C   UNL     1      -1.172   1.254  -0.055  0.00  0.00    +0.000 A 
ATOM     14  C   UNL     1       0.221   1.191  -0.047  0.00  0.00    +0.000 A 
ATOM     15  C   UNL     1       0.851  -0.052  -0.063  0.00  0.00    +0.000 A 
ATOM     16  C   UNL     1       0.121  -1.235  -0.085  0.00  0.00    +0.000 A 
ATOM     17  F   UNL     1       2.189  -0.106  -0.059  0.00  0.00    +0.000 F 
ENDBRANCH  10  13
ENDBRANCH   1  10
TORSDOF 3
