REMARK  Name = *****
REMARK  3 active torsions:
REMARK  status: ('A' for Active; 'I' for Inactive)
REMARK    1  A    between atoms: C_1  and  C_2
REMARK    2  A    between atoms: C_5  and  N_8
REMARK    3  A    between atoms: C_9  and  C_10
REMARK                            x       y       z     vdW  Elec       q    Type
REMARK                         _______ _______ _______ _____ _____    ______ ____
ROOT
ATOM      1  N   UNL     1      -3.264   0.101   0.295  0.00  0.00    +0.000 NA
ATOM      2  C   UNL     1      -3.905   0.755  -0.622  0.00  0.00    +0.000 C 
ENDROOT
BRANCH   1   7
ATOM      3  C   UNL     1       2.434   0.045  -0.129  0.00  0.00    +0.000 C 
ATOM      4  C   UNL     1       0.937   0.077  -0.046  0.00  0.00    +0.000 A 
ATOM      5  C   UNL     1       0.287   1.109   0.642  0.00  0.00    +0.000 A 
ATOM      6  C   UNL     1      -1.106   1.118   0.751  0.00  0.00    +0.000 A 
ATOM      7  C   UNL     1      -1.867   0.099   0.176  0.00  0.00    +0.000 A 
ATOM      8  C   UNL     1      -1.220  -0.947  -0.483  0.00  0.00    +0.000 A 
ATOM      9  C   UNL     1       0.173  -0.960  -0.594  0.00  0.00    +0.000 A 
ENDBRANCH   1   7
BRANCH   2  10
ATOM     10  C   UNL     1      -5.378   0.845  -0.628  0.00  0.00    +0.000 A 
ATOM     11  C   UNL     1      -6.138   0.213   0.363  0.00  0.00    +0.000 A 
ATOM     12  C   UNL     1      -7.530   0.312   0.337  0.00  0.00    +0.000 A 
ATOM     13  C   UNL     1      -8.147   1.040  -0.675  0.00  0.00    +0.000 A 
ATOM     14  C   UNL     1      -7.399   1.672  -1.664  0.00  0.00    +0.000 A 
ATOM     15  C   UNL     1      -6.006   1.576  -1.643  0.00  0.00    +0.000 A 
ATOM     16  F   UNL     1      -9.482   1.135  -0.699  0.00  0.00    +0.000 F 
ENDBRANCH   2  10
TORSDOF 2
