REMARK  Name = *****
REMARK  3 active torsions:
REMARK  status: ('A' for Active; 'I' for Inactive)
REMARK    1  A    between atoms: C_1  and  C_2
REMARK    2  A    between atoms: C_2  and  C_12
REMARK    3  A    between atoms: C_12  and  C_13
REMARK                            x       y       z     vdW  Elec       q    Type
REMARK                         _______ _______ _______ _____ _____    ______ ____
ROOT
ATOM      1  C   UNL     1       3.336   0.006  -1.410  0.00  0.00    +0.000 C 
ATOM      2  C   UNL     1       2.585  -0.122  -0.075  0.00  0.00    +0.000 C 
ATOM      3  C   UNL     1       3.218   0.792   0.999  0.00  0.00    +0.000 C 
ATOM      4  O   UNL     1       4.295   0.074   1.652  0.00  0.00    +0.000 OA
ATOM      5  C   UNL     1       3.927  -1.238   1.509  0.00  0.00    +0.000 A 
ATOM      6  C   UNL     1       2.933  -1.438   0.556  0.00  0.00    +0.000 A 
ATOM      7  C   UNL     1       2.471  -2.716   0.286  0.00  0.00    +0.000 A 
ATOM      8  C   UNL     1       3.028  -3.776   1.000  0.00  0.00    +0.000 A 
ATOM      9  C   UNL     1       4.032  -3.571   1.955  0.00  0.00    +0.000 A 
ATOM     10  C   UNL     1       4.498  -2.281   2.212  0.00  0.00    +0.000 A 
ATOM     11  F   UNL     1       2.599  -5.023   0.761  0.00  0.00    +0.000 F 
ENDROOT
BRANCH   2  12
ATOM     12  C   UNL     1       1.061   0.096  -0.217  0.00  0.00    +0.000 C 
BRANCH  12  13
ATOM     13  C   UNL     1       0.619   1.453  -0.729  0.00  0.00    +0.000 C 
ATOM     14  C   UNL     1       0.384   2.483   0.106  0.00  0.00    +0.000 C 
ATOM     15  C   UNL     1      -0.123   3.826  -0.338  0.00  0.00    +0.000 C 
ATOM     16  C   UNL     1      -0.670   3.825  -1.765  0.00  0.00    +0.000 C 
ATOM     17  C   UNL     1       0.227   3.019  -2.696  0.00  0.00    +0.000 C 
ATOM     18  C   UNL     1       0.362   1.572  -2.215  0.00  0.00    +0.000 C 
ENDBRANCH  12  13
ENDBRANCH   2  12
TORSDOF 2
