REMARK  Name = *****
REMARK  4 active torsions:
REMARK  status: ('A' for Active; 'I' for Inactive)
REMARK    1  A    between atoms: C_1  and  C_2
REMARK    2  A    between atoms: C_5  and  C_8
REMARK    3  A    between atoms: C_9  and  C_10
REMARK    4  A    between atoms: C_13  and  C_15
REMARK                            x       y       z     vdW  Elec       q    Type
REMARK                         _______ _______ _______ _____ _____    ______ ____
ROOT
ATOM      1  C   UNL     1       6.784   0.259  -0.650  0.00  0.00    +0.000 C 
ATOM      2  C   UNL     1       7.969   0.307  -0.841  0.00  0.00    +0.000 C 
ENDROOT
BRANCH   1   7
ATOM      3  C   UNL     1       1.125  -0.019   0.249  0.00  0.00    +0.000 C 
ATOM      4  C   UNL     1       2.609   0.057   0.042  0.00  0.00    +0.000 A 
ATOM      5  C   UNL     1       3.239   1.295  -0.137  0.00  0.00    +0.000 A 
ATOM      6  C   UNL     1       4.616   1.363  -0.362  0.00  0.00    +0.000 A 
ATOM      7  C   UNL     1       5.374   0.192  -0.421  0.00  0.00    +0.000 A 
ATOM      8  C   UNL     1       4.751  -1.046  -0.259  0.00  0.00    +0.000 A 
ATOM      9  C   UNL     1       3.374  -1.114  -0.034  0.00  0.00    +0.000 A 
ENDBRANCH   1   7
BRANCH   2  10
ATOM     10  C   UNL     1       9.375   0.361  -1.065  0.00  0.00    +0.000 A 
ATOM     11  C   UNL     1      10.138   1.505  -1.032  0.00  0.00    +0.000 A 
ATOM     12  S   UNL     1      11.775   1.105  -1.354  0.00  0.00    +0.000 S 
ATOM     13  C   UNL     1      11.325  -0.550  -1.511  0.00  0.00    +0.000 A 
ATOM     14  N   UNL     1      10.046  -0.811  -1.337  0.00  0.00    +0.000 NA
ATOM     15  C   UNL     1      12.358  -1.575  -1.820  0.00  0.00    +0.000 C 
ENDBRANCH   2  10
TORSDOF 2
