REMARK  Name = *****
REMARK  2 active torsions:
REMARK  status: ('A' for Active; 'I' for Inactive)
REMARK    1  A    between atoms: C_8  and  C_17
REMARK    2  A    between atoms: C_9  and  C_11
REMARK                            x       y       z     vdW  Elec       q    Type
REMARK                         _______ _______ _______ _____ _____    ______ ____
ROOT
ATOM      1  C   UNL     1       1.198   1.477   0.189  0.00  0.00    +0.000 C 
ATOM      2  C   UNL     1      -0.076   0.691   0.045  0.00  0.00    +0.000 A 
ATOM      3  C   UNL     1      -1.301   1.381   0.000  0.00  0.00    +0.000 A 
ATOM      4  C   UNL     1      -2.503   0.688  -0.105  0.00  0.00    +0.000 A 
ATOM      5  C   UNL     1      -2.494  -0.699  -0.164  0.00  0.00    +0.000 A 
ATOM      6  C   UNL     1      -1.283  -1.395  -0.109  0.00  0.00    +0.000 A 
ATOM      7  C   UNL     1      -0.055  -0.721   0.010  0.00  0.00    +0.000 A 
ATOM      8  C   UNL     1       1.236  -1.469   0.083  0.00  0.00    +0.000 C 
ATOM      9  C   UNL     1       2.417  -0.891  -0.246  0.00  0.00    +0.000 C 
ATOM     10  S   UNL     1       2.543   0.764  -0.789  0.00  0.00    +0.000 S 
ENDROOT
BRANCH   9  11
ATOM     11  C   UNL     1       3.731  -1.561  -0.161  0.00  0.00    +0.000 A 
ATOM     12  C   UNL     1       4.384  -2.003  -1.320  0.00  0.00    +0.000 A 
ATOM     13  C   UNL     1       5.609  -2.666  -1.229  0.00  0.00    +0.000 A 
ATOM     14  C   UNL     1       6.188  -2.897   0.018  0.00  0.00    +0.000 A 
ATOM     15  C   UNL     1       5.549  -2.459   1.176  0.00  0.00    +0.000 A 
ATOM     16  C   UNL     1       4.327  -1.790   1.089  0.00  0.00    +0.000 A 
ENDBRANCH   9  11
BRANCH   8  17
ATOM     17  C   UNL     1       1.272  -2.904   0.523  0.00  0.00    +0.000 C 
ATOM     18  O   UNL     1       0.417  -3.422   1.234  0.00  0.00    +0.000 OA
ENDBRANCH   8  17
TORSDOF 2
