REMARK  Name = *****
REMARK  1 active torsions:
REMARK  status: ('A' for Active; 'I' for Inactive)
REMARK    1  A    between atoms: S_4  and  C_6
REMARK                            x       y       z     vdW  Elec       q    Type
REMARK                         _______ _______ _______ _____ _____    ______ ____
ROOT
ATOM      1  C   UNL     1       2.081  -0.182  -1.780  0.00  0.00    +0.000 A 
ATOM      2  C   UNL     1       3.465  -0.153  -1.992  0.00  0.00    +0.000 A 
ATOM      3  C   UNL     1       4.011  -0.194  -3.287  0.00  0.00    +0.000 A 
ATOM      4  C   UNL     1       5.399  -0.169  -3.502  0.00  0.00    +0.000 A 
ATOM      5  C   UNL     1       5.922  -0.212  -4.795  0.00  0.00    +0.000 A 
ATOM      6  C   UNL     1       5.066  -0.279  -5.890  0.00  0.00    +0.000 A 
ATOM      7  C   UNL     1       3.685  -0.304  -5.694  0.00  0.00    +0.000 A 
ATOM      8  C   UNL     1       3.143  -0.263  -4.399  0.00  0.00    +0.000 A 
ATOM      9  C   UNL     1       1.758  -0.291  -4.181  0.00  0.00    +0.000 A 
ATOM     10  C   UNL     1       1.234  -0.253  -2.884  0.00  0.00    +0.000 A 
ENDROOT
BRANCH   1  14
ATOM     11  C   UNL     1      -1.031   0.461   0.408  0.00  0.00    +0.000 C 
ATOM     12  C   UNL     1      -1.075  -0.921  -0.221  0.00  0.00    +0.000 C 
ATOM     13  C   UNL     1       0.319  -1.511  -0.067  0.00  0.00    +0.000 C 
ATOM     14  S   UNL     1       1.530  -0.143  -0.067  0.00  0.00    +0.000 S 
ATOM     15  C   UNL     1       0.219   1.123  -0.145  0.00  0.00    +0.000 C 
ENDBRANCH   1  14
TORSDOF 1
