REMARK  Name = *****
REMARK  4 active torsions:
REMARK  status: ('A' for Active; 'I' for Inactive)
REMARK    1  A    between atoms: C_1  and  C_2
REMARK    2  A    between atoms: C_5  and  C_8
REMARK    3  A    between atoms: C_9  and  C_10
REMARK    4  A    between atoms: C_15  and  N_16
REMARK                            x       y       z     vdW  Elec       q    Type
REMARK                         _______ _______ _______ _____ _____    ______ ____
ROOT
ATOM      1  C   UNL     1       6.700   0.079  -0.744  0.00  0.00    +0.000 C 
ATOM      2  C   UNL     1       7.878   0.089  -0.982  0.00  0.00    +0.000 C 
ENDROOT
BRANCH   1   7
ATOM      3  C   UNL     1       1.051  -0.074   0.236  0.00  0.00    +0.000 C 
ATOM      4  C   UNL     1       2.532  -0.023   0.006  0.00  0.00    +0.000 A 
ATOM      5  C   UNL     1       3.198   1.201  -0.126  0.00  0.00    +0.000 A 
ATOM      6  C   UNL     1       4.575   1.236  -0.365  0.00  0.00    +0.000 A 
ATOM      7  C   UNL     1       5.295   0.046  -0.480  0.00  0.00    +0.000 A 
ATOM      8  C   UNL     1       4.639  -1.178  -0.353  0.00  0.00    +0.000 A 
ATOM      9  C   UNL     1       3.263  -1.213  -0.114  0.00  0.00    +0.000 A 
ENDBRANCH   1   7
BRANCH   2  10
ATOM     10  C   UNL     1       9.277   0.084  -1.286  0.00  0.00    +0.000 A 
ATOM     11  C   UNL     1       9.949   1.300  -1.434  0.00  0.00    +0.000 A 
ATOM     12  C   UNL     1      11.314   1.319  -1.743  0.00  0.00    +0.000 A 
ATOM     13  C   UNL     1      12.015   0.123  -1.905  0.00  0.00    +0.000 A 
ATOM     14  C   UNL     1      11.355  -1.097  -1.757  0.00  0.00    +0.000 A 
ATOM     15  C   UNL     1       9.992  -1.106  -1.448  0.00  0.00    +0.000 A 
BRANCH  15  16
ATOM     16  N   UNL     1       9.362  -2.338  -1.308  0.00  0.00    +0.000 NA
ATOM     17  C   UNL     1       8.851  -3.387  -1.195  0.00  0.00    +0.000 C 
ENDBRANCH  15  16
ENDBRANCH   2  10
TORSDOF 3
