REMARK  Name = *****
REMARK  4 active torsions:
REMARK  status: ('A' for Active; 'I' for Inactive)
REMARK    1  A    between atoms: C_4  and  C_7
REMARK    2  A    between atoms: C_7  and  O_8
REMARK    3  A    between atoms: O_8  and  C_9
REMARK    4  A    between atoms: C_13  and  C_16
REMARK                            x       y       z     vdW  Elec       q    Type
REMARK                         _______ _______ _______ _____ _____    ______ ____
ROOT
ATOM      1  C   UNL     1      -4.968  -0.687  -0.267  0.00  0.00    +0.000 A 
ATOM      2  C   UNL     1      -5.714   0.485  -0.445  0.00  0.00    +0.000 A 
ATOM      3  C   UNL     1      -7.066   0.421  -0.791  0.00  0.00    +0.000 A 
ATOM      4  C   UNL     1      -7.688  -0.814  -0.943  0.00  0.00    +0.000 A 
ATOM      5  C   UNL     1      -6.959  -1.994  -0.735  0.00  0.00    +0.000 A 
ATOM      6  C   UNL     1      -5.599  -1.940  -0.408  0.00  0.00    +0.000 A 
ATOM      7 CL   UNL     1      -4.658  -3.389  -0.251  0.00  0.00    +0.000 Cl
ENDROOT
BRANCH   5   8
ATOM      8  C   UNL     1      -7.691  -3.269  -0.889  0.00  0.00    +0.000 C 
ATOM      9  O   UNL     1      -8.223  -3.463  -1.981  0.00  0.00    +0.000 OA
ATOM     10 CL   UNL     1      -7.850  -4.316   0.498  0.00  0.00    +0.000 Cl
ENDBRANCH   5   8
BRANCH   1  11
ATOM     11  O   UNL     1      -3.638  -0.700   0.066  0.00  0.00    +0.000 OA
BRANCH  11  12
ATOM     12  C   UNL     1      -2.891   0.500  -0.138  0.00  0.00    +0.000 C 
BRANCH  12  16
ATOM     13  C   UNL     1       1.352  -0.258   0.162  0.00  0.00    +0.000 A 
ATOM     14  C   UNL     1       0.520  -1.196  -0.445  0.00  0.00    +0.000 A 
ATOM     15  C   UNL     1      -0.853  -0.961  -0.533  0.00  0.00    +0.000 A 
ATOM     16  C   UNL     1      -1.413   0.212  -0.005  0.00  0.00    +0.000 A 
ATOM     17  C   UNL     1      -0.562   1.155   0.592  0.00  0.00    +0.000 A 
ATOM     18  C   UNL     1       0.811   0.918   0.679  0.00  0.00    +0.000 A 
ENDBRANCH  12  16
ENDBRANCH  11  12
ENDBRANCH   1  11
TORSDOF 4
