REMARK  Name = *****
REMARK  6 active torsions:
REMARK  status: ('A' for Active; 'I' for Inactive)
REMARK    1  A    between atoms: C_1  and  C_2
REMARK    2  A    between atoms: C_3  and  C_17
REMARK    3  A    between atoms: C_4  and  O_8
REMARK    4  A    between atoms: O_8  and  C_9
REMARK    5  A    between atoms: C_9  and  C_11
REMARK    6  A    between atoms: C_12  and  C_16
REMARK                            x       y       z     vdW  Elec       q    Type
REMARK                         _______ _______ _______ _____ _____    ______ ____
ROOT
ATOM      1  O   UNL     1      -0.963  -2.770   0.770  0.00  0.00    +0.000 OA
ENDROOT
BRANCH   1   5
ATOM      2  C   UNL     1       1.695   1.179  -0.679  0.00  0.00    +0.000 C 
ATOM      3  C   UNL     1       0.436   0.525  -0.177  0.00  0.00    +0.000 A 
ATOM      4  C   UNL     1       0.369  -0.862   0.072  0.00  0.00    +0.000 A 
ATOM      5  C   UNL     1      -0.856  -1.398   0.506  0.00  0.00    +0.000 A 
ATOM      6  C   UNL     1      -1.967  -0.595   0.767  0.00  0.00    +0.000 A 
ATOM      7  C   UNL     1      -1.881   0.774   0.547  0.00  0.00    +0.000 A 
ATOM      8  C   UNL     1      -0.691   1.329   0.076  0.00  0.00    +0.000 A 
ATOM      9  C   UNL     1       1.551  -1.757  -0.182  0.00  0.00    +0.000 C 
ENDBRANCH   1   5
BRANCH   1  10
ATOM     10  C   UNL     1      -1.525  -3.507  -0.269  0.00  0.00    +0.000 C 
ATOM     11  O   UNL     1      -1.915  -3.041  -1.335  0.00  0.00    +0.000 OA
BRANCH  10  12
ATOM     12  C   UNL     1      -1.590  -4.905   0.073  0.00  0.00    +0.000 A 
ATOM     13  C   UNL     1      -2.096  -5.969  -0.664  0.00  0.00    +0.000 A 
ATOM     14  N   UNL     1      -2.001  -7.206  -0.036  0.00  0.00    +0.000 NA
ATOM     15  N   UNL     1      -1.438  -7.114   1.155  0.00  0.00    +0.000 NA
ATOM     16  S   UNL     1      -1.012  -5.550   1.550  0.00  0.00    +0.000 S 
ATOM     17  C   UNL     1      -2.711  -5.915  -2.015  0.00  0.00    +0.000 C 
ENDBRANCH  10  12
ENDBRANCH   1  10
TORSDOF 3
