REMARK  Name = *****
REMARK  3 active torsions:
REMARK  status: ('A' for Active; 'I' for Inactive)
REMARK    1  A    between atoms: C_1  and  S_9
REMARK    2  A    between atoms: C_2  and  C_3
REMARK    3  A    between atoms: S_9  and  C_11
REMARK                            x       y       z     vdW  Elec       q    Type
REMARK                         _______ _______ _______ _____ _____    ______ ____
ROOT
ATOM      1  C   UNL     1       2.134  -0.016  -0.317  0.00  0.00    +0.000 C 
ATOM      2  C   UNL     1       2.514   0.702   0.752  0.00  0.00    +0.000 C 
ENDROOT
BRANCH   2   3
ATOM      3  C   UNL     1       3.880   1.127   1.064  0.00  0.00    +0.000 A 
ATOM      4  C   UNL     1       4.428   2.270   0.471  0.00  0.00    +0.000 A 
ATOM      5  C   UNL     1       5.737   2.654   0.765  0.00  0.00    +0.000 A 
ATOM      6  C   UNL     1       6.502   1.902   1.656  0.00  0.00    +0.000 A 
ATOM      7  C   UNL     1       5.960   0.765   2.253  0.00  0.00    +0.000 A 
ATOM      8  C   UNL     1       4.652   0.377   1.957  0.00  0.00    +0.000 A 
ENDBRANCH   2   3
BRANCH   1   9
ATOM      9  S   UNL     1       3.316  -0.557  -1.545  0.00  0.00    +0.000 S 
ATOM     10  O   UNL     1       3.090  -2.037  -1.663  0.00  0.00    +0.000 OA
BRANCH   9  11
ATOM     11  C   UNL     1       2.553   0.153  -3.032  0.00  0.00    +0.000 A 
ATOM     12  C   UNL     1       2.279   1.525  -3.105  0.00  0.00    +0.000 A 
ATOM     13  C   UNL     1       1.707   2.070  -4.257  0.00  0.00    +0.000 A 
ATOM     14  C   UNL     1       1.416   1.251  -5.346  0.00  0.00    +0.000 A 
ATOM     15  C   UNL     1       1.698  -0.112  -5.288  0.00  0.00    +0.000 A 
ATOM     16  C   UNL     1       2.266  -0.660  -4.135  0.00  0.00    +0.000 A 
ENDBRANCH   9  11
ENDBRANCH   1   9
TORSDOF 3
