REMARK  Name = *****
REMARK  5 active torsions:
REMARK  status: ('A' for Active; 'I' for Inactive)
REMARK    1  A    between atoms: C_1  and  O_2
REMARK    2  A    between atoms: O_2  and  C_3
REMARK    3  A    between atoms: C_3  and  C_4
REMARK    4  A    between atoms: C_4  and  C_12
REMARK    5  A    between atoms: C_5  and  C_6
REMARK                            x       y       z     vdW  Elec       q    Type
REMARK                         _______ _______ _______ _____ _____    ______ ____
ROOT
ATOM      1  C   UNL     1       4.387  -0.276  -0.930  0.00  0.00    +0.000 C 
ATOM      2  C   UNL     1       5.093   0.185   0.126  0.00  0.00    +0.000 C 
ENDROOT
BRANCH   1   3
ATOM      3  C   UNL     1       5.031  -0.567  -2.292  0.00  0.00    +0.000 C 
ATOM      4  C   UNL     1       5.427  -2.045  -2.457  0.00  0.00    +0.000 C 
ATOM      5  C   UNL     1       6.638  -2.522  -1.662  0.00  0.00    +0.000 C 
ATOM      6  C   UNL     1       7.959  -2.065  -2.268  0.00  0.00    +0.000 C 
ATOM      7  C   UNL     1       8.305  -0.606  -2.002  0.00  0.00    +0.000 C 
ATOM      8  C   UNL     1       7.407   0.439  -2.586  0.00  0.00    +0.000 C 
ATOM      9  C   UNL     1       6.069   0.458  -2.690  0.00  0.00    +0.000 C 
ENDBRANCH   1   3
BRANCH   2  10
ATOM     10  C   UNL     1       4.541   0.508   1.444  0.00  0.00    +0.000 A 
ATOM     11  C   UNL     1       4.822  -0.317   2.537  0.00  0.00    +0.000 A 
ATOM     12  C   UNL     1       4.301  -0.013   3.797  0.00  0.00    +0.000 A 
ATOM     13  C   UNL     1       3.503   1.118   3.968  0.00  0.00    +0.000 A 
ATOM     14  C   UNL     1       3.224   1.947   2.882  0.00  0.00    +0.000 A 
ATOM     15  C   UNL     1       3.743   1.644   1.622  0.00  0.00    +0.000 A 
ENDBRANCH   2  10
BRANCH   1  16
ATOM     16  C   UNL     1       2.901  -0.557  -0.871  0.00  0.00    +0.000 C 
BRANCH  16  18
ATOM     17  C   UNL     1       0.821   0.242  -1.629  0.00  0.00    +0.000 C 
ATOM     18  O   UNL     1       2.231   0.404  -1.687  0.00  0.00    +0.000 OA
ENDBRANCH  16  18
ENDBRANCH   1  16
TORSDOF 4
