REMARK  Name = *****
REMARK  5 active torsions:
REMARK  status: ('A' for Active; 'I' for Inactive)
REMARK    1  A    between atoms: C_1  and  C_2
REMARK    2  A    between atoms: C_7  and  C_8
REMARK    3  A    between atoms: C_8  and  O_9
REMARK    4  A    between atoms: O_9  and  C_10
REMARK    5  A    between atoms: C_14  and  C_16
REMARK                            x       y       z     vdW  Elec       q    Type
REMARK                         _______ _______ _______ _____ _____    ______ ____
ROOT
ATOM      1  O   UNL     1       2.386  -2.343   0.094  0.00  0.00    +0.000 OA
ENDROOT
BRANCH   1   2
ATOM      2  C   UNL     1       3.181  -3.455   0.113  0.00  0.00    +0.000 A 
ATOM      3  C   UNL     1       2.757  -4.771  -0.062  0.00  0.00    +0.000 A 
ATOM      4  C   UNL     1       3.683  -5.817  -0.019  0.00  0.00    +0.000 A 
ATOM      5  C   UNL     1       5.037  -5.554   0.199  0.00  0.00    +0.000 A 
ATOM      6  C   UNL     1       5.476  -4.236   0.376  0.00  0.00    +0.000 A 
ATOM      7  C   UNL     1       4.537  -3.194   0.332  0.00  0.00    +0.000 A 
BRANCH   6   8
ATOM      8  C   UNL     1       6.919  -3.902   0.613  0.00  0.00    +0.000 C 
ATOM      9  O   UNL     1       7.210  -2.718   0.770  0.00  0.00    +0.000 OA
ATOM     10 CL   UNL     1       8.115  -5.184   0.656  0.00  0.00    +0.000 Cl
ENDBRANCH   6   8
ENDBRANCH   1   2
BRANCH   1  11
ATOM     11  C   UNL     1       0.991  -2.538  -0.127  0.00  0.00    +0.000 C 
BRANCH  11  18
ATOM     12  C   UNL     1       0.307  -1.156   2.453  0.00  0.00    +0.000 C 
ATOM     13  C   UNL     1      -0.007  -0.537   1.118  0.00  0.00    +0.000 A 
ATOM     14  C   UNL     1      -0.640   0.717   1.080  0.00  0.00    +0.000 A 
ATOM     15  C   UNL     1      -0.938   1.330  -0.136  0.00  0.00    +0.000 A 
ATOM     16  C   UNL     1      -0.608   0.701  -1.331  0.00  0.00    +0.000 A 
ATOM     17  C   UNL     1       0.015  -0.546  -1.311  0.00  0.00    +0.000 A 
ATOM     18  C   UNL     1       0.310  -1.187  -0.094  0.00  0.00    +0.000 A 
ENDBRANCH  11  18
ENDBRANCH   1  11
TORSDOF 4
