REMARK  Name = *****
REMARK  3 active torsions:
REMARK  status: ('A' for Active; 'I' for Inactive)
REMARK    1  A    between atoms: C_4  and  O_6
REMARK    2  A    between atoms: O_6  and  C_7
REMARK    3  A    between atoms: C_7  and  C_9
REMARK                            x       y       z     vdW  Elec       q    Type
REMARK                         _______ _______ _______ _____ _____    ______ ____
ROOT
ATOM      1  C   UNL     1      -2.593   1.088   1.881  0.00  0.00    +0.000 C 
ATOM      2  O   UNL     1      -3.550   0.724   1.216  0.00  0.00    +0.000 OA
ENDROOT
BRANCH   1   3
ATOM      3  C   UNL     1      -2.685   1.447   3.323  0.00  0.00    +0.000 A 
ATOM      4  C   UNL     1      -3.943   1.380   3.943  0.00  0.00    +0.000 A 
ATOM      5  C   UNL     1      -4.080   1.707   5.294  0.00  0.00    +0.000 A 
ATOM      6  C   UNL     1      -2.962   2.099   6.021  0.00  0.00    +0.000 A 
ATOM      7  C   UNL     1      -1.708   2.171   5.424  0.00  0.00    +0.000 A 
ATOM      8  C   UNL     1      -1.566   1.845   4.072  0.00  0.00    +0.000 A 
ATOM      9  F   UNL     1      -3.093   2.412   7.316  0.00  0.00    +0.000 F 
ENDBRANCH   1   3
BRANCH   1  10
ATOM     10  O   UNL     1      -1.319   1.222   1.439  0.00  0.00    +0.000 OA
BRANCH  10  14
ATOM     11  C   UNL     1       1.261   0.444   0.214  0.00  0.00    +0.000 C 
ATOM     12  C   UNL     1       0.507  -0.877   0.366  0.00  0.00    +0.000 C 
ATOM     13  C   UNL     1      -0.917  -0.611  -0.118  0.00  0.00    +0.000 C 
ATOM     14  C   UNL     1      -1.104   0.892   0.057  0.00  0.00    +0.000 C 
ATOM     15  C   UNL     1       0.256   1.441  -0.358  0.00  0.00    +0.000 C 
ENDBRANCH  10  14
ENDBRANCH   1  10
TORSDOF 3
