REMARK  Name = *****
REMARK  4 active torsions:
REMARK  status: ('A' for Active; 'I' for Inactive)
REMARK    1  A    between atoms: C_1  and  C_2
REMARK    2  A    between atoms: C_4  and  C_8
REMARK    3  A    between atoms: C_8  and  O_10
REMARK    4  A    between atoms: O_10  and  C_11
REMARK                            x       y       z     vdW  Elec       q    Type
REMARK                         _______ _______ _______ _____ _____    ______ ____
ROOT
ATOM      1  C   UNL     1      -2.019   2.456   0.295  0.00  0.00    +0.000 C 
ATOM      2  O   UNL     1      -3.226   2.396   0.464  0.00  0.00    +0.000 OA
ENDROOT
BRANCH   1   6
ATOM      3  C   UNL     1       2.522   0.297  -0.224  0.00  0.00    +0.000 C 
ATOM      4  C   UNL     1       1.048   0.198   0.037  0.00  0.00    +0.000 A 
ATOM      5  C   UNL     1       0.246   1.349   0.028  0.00  0.00    +0.000 A 
ATOM      6  C   UNL     1      -1.127   1.264   0.303  0.00  0.00    +0.000 A 
ATOM      7  C   UNL     1      -1.694   0.017   0.596  0.00  0.00    +0.000 A 
ATOM      8  C   UNL     1      -0.898  -1.128   0.622  0.00  0.00    +0.000 A 
ATOM      9  C   UNL     1       0.467  -1.036   0.350  0.00  0.00    +0.000 A 
ENDBRANCH   1   6
BRANCH   1  10
ATOM     10  O   UNL     1      -1.301   3.589   0.096  0.00  0.00    +0.000 OA
BRANCH  10  11
ATOM     11  C   UNL     1      -2.060   4.815   0.031  0.00  0.00    +0.000 C 
ATOM     12  C   UNL     1      -2.305   5.327   1.455  0.00  0.00    +0.000 C 
ATOM     13  C   UNL     1      -2.940   6.714   1.463  0.00  0.00    +0.000 C 
ATOM     14  C   UNL     1      -2.113   7.713   0.660  0.00  0.00    +0.000 C 
ATOM     15  C   UNL     1      -1.872   7.218  -0.761  0.00  0.00    +0.000 C 
ATOM     16  C   UNL     1      -1.246   5.830  -0.779  0.00  0.00    +0.000 C 
ATOM     17  F   UNL     1      -1.189   5.415  -2.078  0.00  0.00    +0.000 F 
ENDBRANCH  10  11
ENDBRANCH   1  10
TORSDOF 3
