REMARK  Name = *****
REMARK  3 active torsions:
REMARK  status: ('A' for Active; 'I' for Inactive)
REMARK    1  A    between atoms: C_5  and  C_7
REMARK    2  A    between atoms: C_7  and  S_8
REMARK    3  A    between atoms: S_8  and  C_9
REMARK                            x       y       z     vdW  Elec       q    Type
REMARK                         _______ _______ _______ _____ _____    ______ ____
ROOT
ATOM      1  C   UNL     1      -2.120  -1.810  -0.758  0.00  0.00    +0.000 C 
ENDROOT
BRANCH   1   6
ATOM      2  C   UNL     1      -0.201   1.439   0.228  0.00  0.00    +0.000 C 
ATOM      3  C   UNL     1       1.168   0.916  -0.204  0.00  0.00    +0.000 C 
ATOM      4  C   UNL     1       1.274  -0.576  -0.102  0.00  0.00    +0.000 C 
ATOM      5  C   UNL     1       0.212  -1.381   0.048  0.00  0.00    +0.000 C 
ATOM      6  C   UNL     1      -1.221  -0.887   0.091  0.00  0.00    +0.000 C 
ATOM      7  C   UNL     1      -1.328   0.589  -0.354  0.00  0.00    +0.000 C 
ENDBRANCH   1   6
BRANCH   1   8
ATOM      8  S   UNL     1      -3.902  -1.446  -0.545  0.00  0.00    +0.000 S 
BRANCH   8   9
ATOM      9  C   UNL     1      -4.579  -2.563  -1.757  0.00  0.00    +0.000 A 
ATOM     10  C   UNL     1      -4.450  -3.949  -1.618  0.00  0.00    +0.000 A 
ATOM     11  C   UNL     1      -4.996  -4.806  -2.576  0.00  0.00    +0.000 A 
ATOM     12  C   UNL     1      -5.679  -4.283  -3.673  0.00  0.00    +0.000 A 
ATOM     13  C   UNL     1      -5.821  -2.904  -3.810  0.00  0.00    +0.000 A 
ATOM     14  C   UNL     1      -5.276  -2.046  -2.853  0.00  0.00    +0.000 A 
ENDBRANCH   8   9
ENDBRANCH   1   8
TORSDOF 3
