REMARK  Name = *****
REMARK  2 active torsions:
REMARK  status: ('A' for Active; 'I' for Inactive)
REMARK    1  A    between atoms: C_4  and  C_7
REMARK    2  A    between atoms: C_8  and  C_9
REMARK                            x       y       z     vdW  Elec       q    Type
REMARK                         _______ _______ _______ _____ _____    ______ ____
ROOT
ATOM      1  C   UNL     1      -0.859  -2.853  -0.013  0.00  0.00    +0.000 C 
ATOM      2  C   UNL     1      -1.194  -4.006  -0.019  0.00  0.00    +0.000 C 
ENDROOT
BRANCH   1   6
ATOM      3  C   UNL     1       0.353   1.260   0.322  0.00  0.00    +0.000 C 
ATOM      4  C   UNL     1       1.348   0.282  -0.293  0.00  0.00    +0.000 C 
ATOM      5  C   UNL     1       1.017  -1.160   0.098  0.00  0.00    +0.000 C 
ATOM      6  C   UNL     1      -0.453  -1.485  -0.010  0.00  0.00    +0.000 C 
ATOM      7  C   UNL     1      -1.387  -0.524  -0.122  0.00  0.00    +0.000 C 
ATOM      8  C   UNL     1      -1.076   0.944  -0.120  0.00  0.00    +0.000 C 
ENDBRANCH   1   6
BRANCH   2   9
ATOM      9  C   UNL     1      -1.585  -5.366  -0.026  0.00  0.00    +0.000 C 
ATOM     10  C   UNL     1      -2.755  -5.804  -0.504  0.00  0.00    +0.000 C 
ATOM     11  C   UNL     1      -2.889  -7.283  -0.361  0.00  0.00    +0.000 C 
ATOM     12  C   UNL     1      -1.463  -7.723  -0.033  0.00  0.00    +0.000 C 
ATOM     13  C   UNL     1      -0.752  -6.484   0.513  0.00  0.00    +0.000 C 
ENDBRANCH   2   9
TORSDOF 2
