REMARK  Name = *****
REMARK  6 active torsions:
REMARK  status: ('A' for Active; 'I' for Inactive)
REMARK    1  A    between atoms: C_1  and  C_2
REMARK    2  A    between atoms: C_4  and  C_18
REMARK    3  A    between atoms: C_5  and  C_9
REMARK    4  A    between atoms: C_6  and  C_8
REMARK    5  A    between atoms: N_10  and  C_11
REMARK    6  A    between atoms: C_16  and  S_17
REMARK                            x       y       z     vdW  Elec       q    Type
REMARK                         _______ _______ _______ _____ _____    ______ ____
ROOT
ATOM      1  C   UNL     1      -2.170  -2.050   0.328  0.00  0.00    +0.000 C 
ATOM      2  N   UNL     1      -2.035  -3.341   0.310  0.00  0.00    +0.000 NA
ENDROOT
BRANCH   1   7
ATOM      3  C   UNL     1       2.152   1.828  -0.050  0.00  0.00    +0.000 C 
ATOM      4  C   UNL     1       1.044   0.818   0.018  0.00  0.00    +0.000 A 
ATOM      5  C   UNL     1       1.333  -0.547   0.061  0.00  0.00    +0.000 A 
ATOM      6  C   UNL     1       0.314  -1.514   0.159  0.00  0.00    +0.000 A 
ATOM      7  C   UNL     1      -1.034  -1.088   0.224  0.00  0.00    +0.000 A 
ATOM      8  C   UNL     1      -1.335   0.296   0.196  0.00  0.00    +0.000 A 
ATOM      9  C   UNL     1      -0.286   1.229   0.100  0.00  0.00    +0.000 A 
ATOM     10  C   UNL     1      -2.741   0.832   0.270  0.00  0.00    +0.000 C 
ATOM     11  C   UNL     1       0.735  -2.959   0.193  0.00  0.00    +0.000 C 
ENDBRANCH   1   7
BRANCH   2  12
ATOM     12  C   UNL     1      -3.225  -4.088   0.420  0.00  0.00    +0.000 A 
ATOM     13  C   UNL     1      -3.956  -4.375  -0.740  0.00  0.00    +0.000 A 
ATOM     14  C   UNL     1      -5.136  -5.117  -0.674  0.00  0.00    +0.000 A 
ATOM     15  C   UNL     1      -5.592  -5.590   0.555  0.00  0.00    +0.000 A 
ATOM     16  C   UNL     1      -4.865  -5.328   1.717  0.00  0.00    +0.000 A 
ATOM     17  C   UNL     1      -3.678  -4.586   1.657  0.00  0.00    +0.000 A 
BRANCH  17  18
ATOM     18  S   UNL     1      -2.774  -4.292   3.173  0.00  0.00    +0.000 S 
ATOM     19  H   UNL     1      -1.661  -3.560   2.902  0.00  0.00    +0.000 HD
ENDBRANCH  17  18
ENDBRANCH   2  12
TORSDOF 3
