REMARK  Name = *****
REMARK  5 active torsions:
REMARK  status: ('A' for Active; 'I' for Inactive)
REMARK    1  A    between atoms: C_1  and  C_2
REMARK    2  A    between atoms: C_4  and  O_8
REMARK    3  A    between atoms: O_8  and  C_9
REMARK    4  A    between atoms: C_9  and  C_11
REMARK    5  A    between atoms: C_11  and  C_12
REMARK                            x       y       z     vdW  Elec       q    Type
REMARK                         _______ _______ _______ _____ _____    ______ ____
ROOT
ATOM      1  O   UNL     1      -1.275   2.636  -0.677  0.00  0.00    +0.000 OA
ENDROOT
BRANCH   1   5
ATOM      2  C   UNL     1       2.556  -0.422  -0.023  0.00  0.00    +0.000 C 
ATOM      3  C   UNL     1       1.082  -0.144  -0.042  0.00  0.00    +0.000 A 
ATOM      4  C   UNL     1       0.603   1.141  -0.324  0.00  0.00    +0.000 A 
ATOM      5  C   UNL     1      -0.772   1.374  -0.346  0.00  0.00    +0.000 A 
ATOM      6  C   UNL     1      -1.685   0.342  -0.143  0.00  0.00    +0.000 A 
ATOM      7  C   UNL     1      -1.211  -0.941   0.123  0.00  0.00    +0.000 A 
ATOM      8  C   UNL     1       0.165  -1.183   0.172  0.00  0.00    +0.000 A 
ENDBRANCH   1   5
BRANCH   1   9
ATOM      9  C   UNL     1      -1.016   3.636   0.258  0.00  0.00    +0.000 C 
ATOM     10  O   UNL     1      -0.451   3.502   1.337  0.00  0.00    +0.000 OA
BRANCH   9  11
ATOM     11  C   UNL     1      -1.538   4.952  -0.268  0.00  0.00    +0.000 C 
BRANCH  11  12
ATOM     12  C   UNL     1      -0.432   5.702  -0.939  0.00  0.00    +0.000 A 
ATOM     13  C   UNL     1       0.464   6.590  -0.376  0.00  0.00    +0.000 A 
ATOM     14  C   UNL     1       1.384   7.110  -1.331  0.00  0.00    +0.000 A 
ATOM     15  C   UNL     1       1.159   6.605  -2.592  0.00  0.00    +0.000 A 
ATOM     16  S   UNL     1      -0.156   5.513  -2.620  0.00  0.00    +0.000 S 
ENDBRANCH  11  12
ENDBRANCH   9  11
ENDBRANCH   1   9
TORSDOF 4
