REMARK  Name = *****
REMARK  2 active torsions:
REMARK  status: ('A' for Active; 'I' for Inactive)
REMARK    1  A    between atoms: N_4  and  C_8
REMARK    2  A    between atoms: C_9  and  C_10
REMARK                            x       y       z     vdW  Elec       q    Type
REMARK                         _______ _______ _______ _____ _____    ______ ____
ROOT
ATOM      1  C   UNL     1       0.592   2.158  -0.719  0.00  0.00    +0.000 C 
ATOM      2  C   UNL     1       1.840   2.313  -1.189  0.00  0.00    +0.000 C 
ENDROOT
BRANCH   1   6
ATOM      3  C   UNL     1      -0.854  -0.999   1.695  0.00  0.00    +0.000 C 
ATOM      4  C   UNL     1       0.609  -0.895   1.274  0.00  0.00    +0.000 C 
ATOM      5  C   UNL     1       0.783  -0.253  -0.100  0.00  0.00    +0.000 C 
ATOM      6  N   UNL     1       0.014   0.994  -0.208  0.00  0.00    +0.000 N 
ATOM      7  C   UNL     1      -1.350   0.928   0.172  0.00  0.00    +0.000 C 
ATOM      8  S   UNL     1      -2.487   2.170   0.135  0.00  0.00    +0.000 S 
ATOM      9  C   UNL     1      -1.804  -0.454   0.639  0.00  0.00    +0.000 C 
ENDBRANCH   1   6
BRANCH   2  10
ATOM     10  C   UNL     1       2.351   3.594  -1.708  0.00  0.00    +0.000 A 
ATOM     11  C   UNL     1       2.079   4.817  -1.079  0.00  0.00    +0.000 A 
ATOM     12  C   UNL     1       2.609   6.008  -1.582  0.00  0.00    +0.000 A 
ATOM     13  C   UNL     1       3.426   5.987  -2.710  0.00  0.00    +0.000 A 
ATOM     14  C   UNL     1       3.717   4.776  -3.334  0.00  0.00    +0.000 A 
ATOM     15  C   UNL     1       3.187   3.585  -2.832  0.00  0.00    +0.000 A 
ENDBRANCH   2  10
TORSDOF 2
