REMARK  Name = *****
REMARK  4 active torsions:
REMARK  status: ('A' for Active; 'I' for Inactive)
REMARK    1  A    between atoms: C_4  and  C_7
REMARK    2  A    between atoms: C_7  and  O_9
REMARK    3  A    between atoms: O_9  and  C_10
REMARK    4  A    between atoms: C_10  and  C_11
REMARK                            x       y       z     vdW  Elec       q    Type
REMARK                         _______ _______ _______ _____ _____    ______ ____
ROOT
ATOM      1  C   UNL     1      -5.143  -0.267  -0.370  0.00  0.00    +0.000 C 
ENDROOT
BRANCH   1   2
ATOM      2  C   UNL     1      -5.556  -0.833  -1.705  0.00  0.00    +0.000 A 
ATOM      3  C   UNL     1      -5.837  -2.201  -1.844  0.00  0.00    +0.000 A 
ATOM      4  C   UNL     1      -6.190  -2.719  -3.089  0.00  0.00    +0.000 A 
ATOM      5  C   UNL     1      -6.261  -1.897  -4.205  0.00  0.00    +0.000 A 
ATOM      6  C   UNL     1      -5.972  -0.546  -4.077  0.00  0.00    +0.000 A 
ATOM      7  C   UNL     1      -5.617  -0.009  -2.840  0.00  0.00    +0.000 A 
ATOM      8  F   UNL     1      -6.029   0.259  -5.147  0.00  0.00    +0.000 F 
ATOM      9  F   UNL     1      -6.602  -2.405  -5.398  0.00  0.00    +0.000 F 
ATOM     10  F   UNL     1      -6.459  -4.028  -3.198  0.00  0.00    +0.000 F 
ENDBRANCH   1   2
BRANCH   1  11
ATOM     11  O   UNL     1      -3.743  -0.493  -0.174  0.00  0.00    +0.000 OA
BRANCH  11  12
ATOM     12  C   UNL     1      -2.932   0.544  -0.500  0.00  0.00    +0.000 C 
ATOM     13  O   UNL     1      -3.294   1.628  -0.930  0.00  0.00    +0.000 OA
BRANCH  12  17
ATOM     14  C   UNL     1       1.207  -0.385   0.123  0.00  0.00    +0.000 A 
ATOM     15  C   UNL     1       0.243  -1.350   0.412  0.00  0.00    +0.000 A 
ATOM     16  C   UNL     1      -1.112  -1.067   0.217  0.00  0.00    +0.000 A 
ATOM     17  C   UNL     1      -1.506   0.187  -0.271  0.00  0.00    +0.000 A 
ATOM     18  C   UNL     1      -0.529   1.150  -0.559  0.00  0.00    +0.000 A 
ATOM     19  C   UNL     1       0.823   0.864  -0.362  0.00  0.00    +0.000 A 
ENDBRANCH  12  17
ENDBRANCH  11  12
ENDBRANCH   1  11
TORSDOF 4
