REMARK  Name = *****
REMARK  2 active torsions:
REMARK  status: ('A' for Active; 'I' for Inactive)
REMARK    1  A    between atoms: C_5  and  C_6
REMARK    2  A    between atoms: C_7  and  C_8
REMARK                            x       y       z     vdW  Elec       q    Type
REMARK                         _______ _______ _______ _____ _____    ______ ____
ROOT
ATOM      1  C   UNL     1       2.623  -1.443  -0.018  0.00  0.00    +0.000 C 
ATOM      2  C   UNL     1       3.882  -0.977   0.083  0.00  0.00    +0.000 C 
ENDROOT
BRANCH   2   3
ATOM      3  C   UNL     1       5.084  -1.768   0.087  0.00  0.00    +0.000 A 
ATOM      4  C   UNL     1       5.171  -3.035  -0.461  0.00  0.00    +0.000 A 
ATOM      5  S   UNL     1       6.735  -3.720  -0.316  0.00  0.00    +0.000 S 
ATOM      6  C   UNL     1       7.328  -2.326   0.474  0.00  0.00    +0.000 A 
ATOM      7  C   UNL     1       6.350  -1.371   0.619  0.00  0.00    +0.000 A 
ATOM      8 BR   UNL     1       6.680   0.292   1.467  0.00  0.00    +0.000 Br
ENDBRANCH   2   3
BRANCH   1  13
ATOM      9  C   UNL     1       1.327   0.773   0.014  0.00  0.00    +0.000 A 
ATOM     10  C   UNL     1       0.019   1.211  -0.002  0.00  0.00    +0.000 A 
ATOM     11  S   UNL     1      -1.092  -0.086  -0.058  0.00  0.00    +0.000 S 
ATOM     12  C   UNL     1       0.174  -1.238  -0.063  0.00  0.00    +0.000 A 
ATOM     13  C   UNL     1       1.425  -0.653  -0.021  0.00  0.00    +0.000 A 
ENDBRANCH   1  13
TORSDOF 2
