REMARK  Name = *****
REMARK  4 active torsions:
REMARK  status: ('A' for Active; 'I' for Inactive)
REMARK    1  A    between atoms: C_1  and  C_2
REMARK    2  A    between atoms: C_4  and  O_8
REMARK    3  A    between atoms: O_8  and  C_9
REMARK    4  A    between atoms: C_9  and  C_11
REMARK                            x       y       z     vdW  Elec       q    Type
REMARK                         _______ _______ _______ _____ _____    ______ ____
ROOT
ATOM      1  C   UNL     1      -1.250   3.606  -0.585  0.00  0.00    +0.000 C 
ATOM      2  O   UNL     1      -0.276   3.643  -1.322  0.00  0.00    +0.000 OA
ENDROOT
BRANCH   1   3
ATOM      3  C   UNL     1      -2.117   4.790  -0.333  0.00  0.00    +0.000 A 
ATOM      4  C   UNL     1      -3.299   4.713   0.414  0.00  0.00    +0.000 A 
ATOM      5  C   UNL     1      -4.062   5.861   0.604  0.00  0.00    +0.000 A 
ATOM      6  C   UNL     1      -3.676   7.084   0.068  0.00  0.00    +0.000 A 
ATOM      7  C   UNL     1      -2.502   7.168  -0.678  0.00  0.00    +0.000 A 
ATOM      8  C   UNL     1      -1.726   6.023  -0.879  0.00  0.00    +0.000 A 
ATOM      9  F   UNL     1      -5.193   5.784   1.317  0.00  0.00    +0.000 F 
ENDBRANCH   1   3
BRANCH   1  10
ATOM     10  O   UNL     1      -1.722   2.522   0.133  0.00  0.00    +0.000 OA
BRANCH  10  14
ATOM     11  C   UNL     1       2.474  -0.112   0.499  0.00  0.00    +0.000 C 
ATOM     12  C   UNL     1       1.004  -0.004   0.220  0.00  0.00    +0.000 A 
ATOM     13  C   UNL     1       0.355   1.235   0.289  0.00  0.00    +0.000 A 
ATOM     14  C   UNL     1      -1.014   1.314   0.031  0.00  0.00    +0.000 A 
ATOM     15  C   UNL     1      -1.761   0.170  -0.242  0.00  0.00    +0.000 A 
ATOM     16  C   UNL     1      -1.122  -1.067  -0.292  0.00  0.00    +0.000 A 
ATOM     17  C   UNL     1       0.253  -1.154  -0.062  0.00  0.00    +0.000 A 
ENDBRANCH  10  14
ENDBRANCH   1  10
TORSDOF 3
