REMARK  Name = *****
REMARK  3 active torsions:
REMARK  status: ('A' for Active; 'I' for Inactive)
REMARK    1  A    between atoms: C_1  and  C_2
REMARK    2  A    between atoms: C_3  and  C_7
REMARK    3  A    between atoms: N_8  and  C_9
REMARK                            x       y       z     vdW  Elec       q    Type
REMARK                         _______ _______ _______ _____ _____    ______ ____
ROOT
ATOM      1  C   UNL     1       1.901  -4.432  -0.061  0.00  0.00    +0.000 A 
ATOM      2  C   UNL     1       2.874  -4.992  -0.900  0.00  0.00    +0.000 A 
ATOM      3  C   UNL     1       3.074  -6.368  -0.952  0.00  0.00    +0.000 A 
ATOM      4  C   UNL     1       2.311  -7.212  -0.159  0.00  0.00    +0.000 A 
ATOM      5  C   UNL     1       1.349  -6.681   0.687  0.00  0.00    +0.000 A 
ATOM      6  C   UNL     1       1.149  -5.305   0.740  0.00  0.00    +0.000 A 
ATOM      7  F   UNL     1       0.212  -4.813   1.565  0.00  0.00    +0.000 F 
ATOM      8  F   UNL     1       0.608  -7.494   1.453  0.00  0.00    +0.000 F 
ATOM      9  F   UNL     1       2.501  -8.537  -0.211  0.00  0.00    +0.000 F 
ATOM     10  F   UNL     1       4.005  -6.879  -1.770  0.00  0.00    +0.000 F 
ATOM     11  F   UNL     1       3.626  -4.195  -1.677  0.00  0.00    +0.000 F 
ENDROOT
BRANCH   1  13
ATOM     12  C   UNL     1       0.588  -2.528  -0.234  0.00  0.00    +0.000 C 
ATOM     13  N   UNL     1       1.759  -3.031   0.002  0.00  0.00    +0.000 NA
BRANCH  12  16
ATOM     14  C   UNL     1       2.693  -0.186   0.342  0.00  0.00    +0.000 C 
ATOM     15  C   UNL     1       1.232  -0.052   0.057  0.00  0.00    +0.000 A 
ATOM     16  C   UNL     1       0.355  -1.101  -0.189  0.00  0.00    +0.000 A 
ATOM     17  S   UNL     1      -1.242  -0.549  -0.481  0.00  0.00    +0.000 S 
ATOM     18  C   UNL     1      -0.790   1.082  -0.279  0.00  0.00    +0.000 A 
ATOM     19  C   UNL     1       0.550   1.210   0.003  0.00  0.00    +0.000 A 
ENDBRANCH  12  16
ENDBRANCH   1  13
TORSDOF 2
