REMARK  Name = *****
REMARK  3 active torsions:
REMARK  status: ('A' for Active; 'I' for Inactive)
REMARK    1  A    between atoms: C_4  and  C_7
REMARK    2  A    between atoms: C_7  and  O_9
REMARK    3  A    between atoms: O_9  and  C_10
REMARK                            x       y       z     vdW  Elec       q    Type
REMARK                         _______ _______ _______ _____ _____    ______ ____
ROOT
ATOM      1  O   UNL     1      -2.982  -1.418   0.909  0.00  0.00    +0.000 OA
ENDROOT
BRANCH   1   2
ATOM      2  C   UNL     1      -4.316  -1.530   1.309  0.00  0.00    +0.000 A 
ATOM      3  C   UNL     1      -5.331  -1.728   0.365  0.00  0.00    +0.000 A 
ATOM      4  C   UNL     1      -6.652  -1.872   0.794  0.00  0.00    +0.000 A 
ATOM      5  C   UNL     1      -6.947  -1.830   2.160  0.00  0.00    +0.000 A 
ATOM      6  C   UNL     1      -5.920  -1.651   3.084  0.00  0.00    +0.000 A 
ATOM      7  C   UNL     1      -4.600  -1.507   2.674  0.00  0.00    +0.000 A 
ATOM      8  F   UNL     1      -6.210  -1.624   4.391  0.00  0.00    +0.000 F 
ATOM      9 CL   UNL     1      -4.985  -1.818  -1.321  0.00  0.00    +0.000 Cl
ENDBRANCH   1   2
BRANCH   1  10
ATOM     10  C   UNL     1      -2.622  -0.108   0.653  0.00  0.00    +0.000 C 
ATOM     11  O   UNL     1      -3.313   0.887   0.815  0.00  0.00    +0.000 OA
BRANCH  10  15
ATOM     12  C   UNL     1       1.417   0.159  -0.769  0.00  0.00    +0.000 A 
ATOM     13  C   UNL     1       0.848  -1.099  -0.570  0.00  0.00    +0.000 A 
ATOM     14  C   UNL     1      -0.466  -1.210  -0.108  0.00  0.00    +0.000 A 
ATOM     15  C   UNL     1      -1.217  -0.056   0.159  0.00  0.00    +0.000 A 
ATOM     16  C   UNL     1      -0.639   1.204  -0.048  0.00  0.00    +0.000 A 
ATOM     17  C   UNL     1       0.675   1.310  -0.510  0.00  0.00    +0.000 A 
ENDBRANCH  10  15
ENDBRANCH   1  10
TORSDOF 3
