REMARK  Name = *****
REMARK  6 active torsions:
REMARK  status: ('A' for Active; 'I' for Inactive)
REMARK    1  A    between atoms: C_1  and  C_2
REMARK    2  A    between atoms: C_2  and  C_4
REMARK    3  A    between atoms: C_6  and  C_8
REMARK    4  A    between atoms: C_8  and  O_9
REMARK    5  A    between atoms: O_9  and  C_10
REMARK    6  A    between atoms: C_10  and  C_11
REMARK                            x       y       z     vdW  Elec       q    Type
REMARK                         _______ _______ _______ _____ _____    ______ ____
ROOT
ATOM      1  C   UNL     1       5.899   2.228  -2.442  0.00  0.00    +0.000 C 
ENDROOT
BRANCH   1   4
ATOM      2  C   UNL     1       3.523   0.446  -1.123  0.00  0.00    +0.000 C 
ATOM      3  C   UNL     1       4.701   0.083  -1.663  0.00  0.00    +0.000 C 
ATOM      4  C   UNL     1       4.742   1.254  -2.630  0.00  0.00    +0.000 C 
ATOM      5  C   UNL     1       3.394   1.679  -2.000  0.00  0.00    +0.000 C 
BRANCH   2   7
ATOM      6  C   UNL     1       3.133  -1.398   0.599  0.00  0.00    +0.000 C 
ATOM      7  C   UNL     1       2.657  -0.135  -0.056  0.00  0.00    +0.000 C 
ATOM      8  C   UNL     1       1.505   0.458   0.289  0.00  0.00    +0.000 C 
ENDBRANCH   2   7
ENDBRANCH   1   4
BRANCH   1   9
ATOM      9  O   UNL     1       5.658   3.373  -3.262  0.00  0.00    +0.000 OA
BRANCH   9  10
ATOM     10  C   UNL     1       6.690   4.350  -3.116  0.00  0.00    +0.000 C 
BRANCH  10  11
ATOM     11  C   UNL     1       6.412   5.544  -3.998  0.00  0.00    +0.000 A 
ATOM     12  C   UNL     1       5.105   6.003  -4.212  0.00  0.00    +0.000 A 
ATOM     13  C   UNL     1       4.866   7.133  -4.996  0.00  0.00    +0.000 A 
ATOM     14  C   UNL     1       5.932   7.825  -5.565  0.00  0.00    +0.000 A 
ATOM     15  C   UNL     1       7.238   7.390  -5.349  0.00  0.00    +0.000 A 
ATOM     16  C   UNL     1       7.478   6.259  -4.566  0.00  0.00    +0.000 A 
ENDBRANCH  10  11
ENDBRANCH   9  10
ENDBRANCH   1   9
TORSDOF 5
