REMARK  Name = *****
REMARK  4 active torsions:
REMARK  status: ('A' for Active; 'I' for Inactive)
REMARK    1  A    between atoms: C_4  and  C_7
REMARK    2  A    between atoms: C_7  and  O_8
REMARK    3  A    between atoms: O_8  and  C_9
REMARK    4  A    between atoms: C_9  and  C_11
REMARK                            x       y       z     vdW  Elec       q    Type
REMARK                         _______ _______ _______ _____ _____    ______ ____
ROOT
ATOM      1  O   UNL     1      -2.699   1.305  -1.576  0.00  0.00    +0.000 OA
ENDROOT
BRANCH   1   2
ATOM      2  C   UNL     1      -2.661   0.583  -0.347  0.00  0.00    +0.000 C 
ATOM      3  F   UNL     1      -3.302  -0.598  -0.604  0.00  0.00    +0.000 F 
BRANCH   2   7
ATOM      4  C   UNL     1       1.462  -0.021   0.786  0.00  0.00    +0.000 A 
ATOM      5  C   UNL     1       0.777   1.109   1.229  0.00  0.00    +0.000 A 
ATOM      6  C   UNL     1      -0.558   1.303   0.869  0.00  0.00    +0.000 A 
ATOM      7  C   UNL     1      -1.222   0.365   0.064  0.00  0.00    +0.000 A 
ATOM      8  C   UNL     1      -0.519  -0.764  -0.382  0.00  0.00    +0.000 A 
ATOM      9  C   UNL     1       0.816  -0.957  -0.020  0.00  0.00    +0.000 A 
ENDBRANCH   2   7
ENDBRANCH   1   2
BRANCH   1  10
ATOM     10  C   UNL     1      -2.864   2.638  -1.446  0.00  0.00    +0.000 C 
ATOM     11  O   UNL     1      -2.992   3.249  -0.397  0.00  0.00    +0.000 OA
BRANCH  10  12
ATOM     12  C   UNL     1      -2.868   3.295  -2.782  0.00  0.00    +0.000 A 
ATOM     13  C   UNL     1      -3.003   4.689  -2.833  0.00  0.00    +0.000 A 
ATOM     14  C   UNL     1      -3.012   5.352  -4.062  0.00  0.00    +0.000 A 
ATOM     15  C   UNL     1      -2.885   4.627  -5.246  0.00  0.00    +0.000 A 
ATOM     16  C   UNL     1      -2.750   3.240  -5.205  0.00  0.00    +0.000 A 
ATOM     17  C   UNL     1      -2.740   2.572  -3.977  0.00  0.00    +0.000 A 
ENDBRANCH  10  12
ENDBRANCH   1  10
TORSDOF 4
