REMARK  Name = *****
REMARK  3 active torsions:
REMARK  status: ('A' for Active; 'I' for Inactive)
REMARK    1  A    between atoms: C_4  and  C_7
REMARK    2  A    between atoms: C_7  and  O_8
REMARK    3  A    between atoms: O_8  and  C_9
REMARK                            x       y       z     vdW  Elec       q    Type
REMARK                         _______ _______ _______ _____ _____    ______ ____
ROOT
ATOM      1  O   UNL     1      -3.571  -0.698  -0.072  0.00  0.00    +0.000 OA
ENDROOT
BRANCH   1   2
ATOM      2  C   UNL     1      -4.937  -0.567  -0.207  0.00  0.00    +0.000 A 
ATOM      3  N   UNL     1      -5.471   0.628  -0.530  0.00  0.00    +0.000 NA
ATOM      4  C   UNL     1      -6.815   0.678  -0.645  0.00  0.00    +0.000 A 
ATOM      5  C   UNL     1      -7.648  -0.417  -0.450  0.00  0.00    +0.000 A 
ATOM      6  C   UNL     1      -7.067  -1.636  -0.118  0.00  0.00    +0.000 A 
ATOM      7  C   UNL     1      -5.684  -1.715   0.007  0.00  0.00    +0.000 A 
ATOM      8 BR   UNL     1      -7.597   2.346  -1.097  0.00  0.00    +0.000 Br
ENDBRANCH   1   2
BRANCH   1   9
ATOM      9  C   UNL     1      -2.865   0.519  -0.313  0.00  0.00    +0.000 C 
BRANCH   9  13
ATOM     10  C   UNL     1       1.357  -0.275   0.114  0.00  0.00    +0.000 A 
ATOM     11  C   UNL     1       0.639  -0.852  -0.932  0.00  0.00    +0.000 A 
ATOM     12  C   UNL     1      -0.726  -0.595  -1.068  0.00  0.00    +0.000 A 
ATOM     13  C   UNL     1      -1.387   0.243  -0.158  0.00  0.00    +0.000 A 
ATOM     14  C   UNL     1      -0.656   0.815   0.892  0.00  0.00    +0.000 A 
ATOM     15  C   UNL     1       0.710   0.557   1.026  0.00  0.00    +0.000 A 
ENDBRANCH   9  13
ENDBRANCH   1   9
TORSDOF 3
