REMARK  Name = *****
REMARK  3 active torsions:
REMARK  status: ('A' for Active; 'I' for Inactive)
REMARK    1  A    between atoms: C_4  and  C_7
REMARK    2  A    between atoms: C_7  and  C_8
REMARK    3  A    between atoms: C_8  and  C_9
REMARK                            x       y       z     vdW  Elec       q    Type
REMARK                         _______ _______ _______ _____ _____    ______ ____
ROOT
ATOM      1  C   UNL     1      -3.673  -0.882  -0.413  0.00  0.00    +0.000 C 
ENDROOT
BRANCH   1   2
ATOM      2  C   UNL     1      -5.128  -0.516  -0.615  0.00  0.00    +0.000 A 
ATOM      3  C   UNL     1      -5.588  -0.322  -1.930  0.00  0.00    +0.000 A 
ATOM      4  C   UNL     1      -6.915   0.027  -2.186  0.00  0.00    +0.000 A 
ATOM      5  C   UNL     1      -7.806   0.194  -1.130  0.00  0.00    +0.000 A 
ATOM      6  C   UNL     1      -7.368   0.015   0.181  0.00  0.00    +0.000 A 
ATOM      7  C   UNL     1      -6.037  -0.335   0.441  0.00  0.00    +0.000 A 
ATOM      8 BR   UNL     1      -5.541  -0.547   2.263  0.00  0.00    +0.000 Br
ENDBRANCH   1   2
BRANCH   1   9
ATOM      9  C   UNL     1      -2.792   0.356  -0.198  0.00  0.00    +0.000 C 
BRANCH   9  13
ATOM     10  C   UNL     1       1.491  -0.175   0.149  0.00  0.00    +0.000 A 
ATOM     11  C   UNL     1       0.671  -1.299   0.074  0.00  0.00    +0.000 A 
ATOM     12  C   UNL     1      -0.715  -1.154  -0.037  0.00  0.00    +0.000 A 
ATOM     13  C   UNL     1      -1.301   0.118  -0.079  0.00  0.00    +0.000 A 
ATOM     14  C   UNL     1      -0.459   1.240   0.004  0.00  0.00    +0.000 A 
ATOM     15  C   UNL     1       0.925   1.096   0.116  0.00  0.00    +0.000 A 
ENDBRANCH   9  13
ENDBRANCH   1   9
TORSDOF 3
