REMARK  Name = *****
REMARK  3 active torsions:
REMARK  status: ('A' for Active; 'I' for Inactive)
REMARK    1  A    between atoms: C_1  and  C_2
REMARK    2  A    between atoms: C_5  and  S_8
REMARK    3  A    between atoms: S_8  and  C_9
REMARK                            x       y       z     vdW  Elec       q    Type
REMARK                         _______ _______ _______ _____ _____    ______ ____
ROOT
ATOM      1  C   UNL     1      -4.275   1.810  -0.032  0.00  0.00    +0.000 C 
ATOM      2  C   UNL     1      -4.089   3.108  -0.845  0.00  0.00    +0.000 C 
ATOM      3  C   UNL     1      -5.334   3.858  -0.477  0.00  0.00    +0.000 A 
ATOM      4  C   UNL     1      -5.595   5.208  -0.634  0.00  0.00    +0.000 A 
ATOM      5  C   UNL     1      -6.850   5.688  -0.255  0.00  0.00    +0.000 A 
ATOM      6  C   UNL     1      -7.824   4.817   0.260  0.00  0.00    +0.000 A 
ATOM      7  C   UNL     1      -7.556   3.454   0.402  0.00  0.00    +0.000 A 
ATOM      8  C   UNL     1      -6.305   2.990   0.036  0.00  0.00    +0.000 A 
ATOM      9  C   UNL     1      -5.799   1.579   0.058  0.00  0.00    +0.000 C 
ENDROOT
BRANCH   1  10
ATOM     10  S   UNL     1      -3.427   0.362  -0.758  0.00  0.00    +0.000 S 
BRANCH  10  15
ATOM     11  C   UNL     1       2.387   2.187  -0.565  0.00  0.00    +0.000 C 
ATOM     12  C   UNL     1       0.947   1.767  -0.606  0.00  0.00    +0.000 A 
ATOM     13  C   UNL     1       0.211   1.641   0.577  0.00  0.00    +0.000 A 
ATOM     14  C   UNL     1      -1.120   1.217   0.542  0.00  0.00    +0.000 A 
ATOM     15  C   UNL     1      -1.732   0.910  -0.676  0.00  0.00    +0.000 A 
ATOM     16  C   UNL     1      -0.990   1.005  -1.856  0.00  0.00    +0.000 A 
ATOM     17  C   UNL     1       0.342   1.429  -1.822  0.00  0.00    +0.000 A 
ENDBRANCH  10  15
ENDBRANCH   1  10
TORSDOF 2
