REMARK  Name = *****
REMARK  2 active torsions:
REMARK  status: ('A' for Active; 'I' for Inactive)
REMARK    1  A    between atoms: C_8  and  C_9
REMARK    2  A    between atoms: C_9  and  C_10
REMARK                            x       y       z     vdW  Elec       q    Type
REMARK                         _______ _______ _______ _____ _____    ______ ____
ROOT
ATOM      1  C   UNL     1       1.165  -0.014   0.190  0.00  0.00    +0.000 C 
ATOM      2  C   UNL     1       2.507   0.086   0.200  0.00  0.00    +0.000 C 
ATOM      3  C   UNL     1       3.175   1.443   0.178  0.00  0.00    +0.000 C 
ATOM      4  C   UNL     1       3.750   1.814   1.542  0.00  0.00    +0.000 C 
ATOM      5  C   UNL     1       5.156   1.286   1.820  0.00  0.00    +0.000 C 
ATOM      6  C   UNL     1       5.515  -0.090   1.263  0.00  0.00    +0.000 C 
ATOM      7  C   UNL     1       4.416  -1.145   1.372  0.00  0.00    +0.000 C 
ATOM      8  C   UNL     1       3.380  -1.161   0.225  0.00  0.00    +0.000 C 
ENDROOT
BRANCH   8   9
ATOM      9  C   UNL     1       3.977  -1.426  -1.181  0.00  0.00    +0.000 C 
BRANCH   9  10
ATOM     10  C   UNL     1       4.685  -2.756  -1.312  0.00  0.00    +0.000 A 
ATOM     11  C   UNL     1       3.953  -3.951  -1.332  0.00  0.00    +0.000 A 
ATOM     12  C   UNL     1       4.607  -5.179  -1.445  0.00  0.00    +0.000 A 
ATOM     13  C   UNL     1       5.996  -5.225  -1.541  0.00  0.00    +0.000 A 
ATOM     14  C   UNL     1       6.733  -4.042  -1.526  0.00  0.00    +0.000 A 
ATOM     15  C   UNL     1       6.081  -2.813  -1.412  0.00  0.00    +0.000 A 
ENDBRANCH   9  10
ENDBRANCH   8   9
TORSDOF 2
