REMARK  Name = *****
REMARK  3 active torsions:
REMARK  status: ('A' for Active; 'I' for Inactive)
REMARK    1  A    between atoms: N_6  and  C_7
REMARK    2  A    between atoms: C_7  and  C_8
REMARK    3  A    between atoms: C_8  and  C_9
REMARK                            x       y       z     vdW  Elec       q    Type
REMARK                         _______ _______ _______ _____ _____    ______ ____
ROOT
ATOM      1  C   UNL     1       0.437   2.546  -0.074  0.00  0.00    +0.000 C 
ENDROOT
BRANCH   1   7
ATOM      2  C   UNL     1      -0.241   0.574  -1.474  0.00  0.00    +0.000 C 
ATOM      3  C   UNL     1      -1.214  -0.582  -1.381  0.00  0.00    +0.000 C 
ATOM      4  S   UNL     1      -0.943  -1.200   0.294  0.00  0.00    +0.000 S 
ATOM      5  C   UNL     1      -0.412   0.368   0.900  0.00  0.00    +0.000 C 
ATOM      6  S   UNL     1      -0.238   0.692   2.523  0.00  0.00    +0.000 S 
ATOM      7  N   UNL     1      -0.183   1.220  -0.174  0.00  0.00    +0.000 N 
ENDBRANCH   1   7
BRANCH   1   8
ATOM      8  C   UNL     1       1.968   2.485  -0.080  0.00  0.00    +0.000 C 
BRANCH   8   9
ATOM      9  C   UNL     1       2.579   3.859   0.031  0.00  0.00    +0.000 A 
ATOM     10  C   UNL     1       2.803   4.433   1.289  0.00  0.00    +0.000 A 
ATOM     11  C   UNL     1       3.348   5.714   1.395  0.00  0.00    +0.000 A 
ATOM     12  C   UNL     1       3.668   6.433   0.245  0.00  0.00    +0.000 A 
ATOM     13  C   UNL     1       3.444   5.873  -1.012  0.00  0.00    +0.000 A 
ATOM     14  C   UNL     1       2.899   4.592  -1.120  0.00  0.00    +0.000 A 
ENDBRANCH   8   9
ENDBRANCH   1   8
TORSDOF 3
