REMARK  Name = *****
REMARK  5 active torsions:
REMARK  status: ('A' for Active; 'I' for Inactive)
REMARK    1  A    between atoms: C_1  and  N_2
REMARK    2  A    between atoms: N_2  and  C_3
REMARK    3  A    between atoms: N_2  and  S_10
REMARK    4  A    between atoms: C_3  and  C_4
REMARK    5  A    between atoms: S_10  and  C_11
REMARK                            x       y       z     vdW  Elec       q    Type
REMARK                         _______ _______ _______ _____ _____    ______ ____
ROOT
ATOM      1  C   UNL     1       0.697  -0.138  -0.609  0.00  0.00    +0.000 C 
ATOM      2  N   UNL     1       2.156   0.050  -0.610  0.00  0.00    +0.000 NA
ENDROOT
BRANCH   2   3
ATOM      3  C   UNL     1       2.839  -1.260  -0.527  0.00  0.00    +0.000 C 
BRANCH   3   4
ATOM      4  C   UNL     1       2.613  -1.996   0.779  0.00  0.00    +0.000 A 
ATOM      5  C   UNL     1       1.994  -3.254   0.793  0.00  0.00    +0.000 A 
ATOM      6  C   UNL     1       1.795  -3.932   1.997  0.00  0.00    +0.000 A 
ATOM      7  C   UNL     1       2.214  -3.361   3.198  0.00  0.00    +0.000 A 
ATOM      8  C   UNL     1       2.834  -2.113   3.197  0.00  0.00    +0.000 A 
ATOM      9  C   UNL     1       3.034  -1.434   1.994  0.00  0.00    +0.000 A 
ENDBRANCH   3   4
ENDBRANCH   2   3
BRANCH   2  10
ATOM     10  S   UNL     1       2.790   1.179  -1.680  0.00  0.00    +0.000 S 
BRANCH  10  11
ATOM     11  C   UNL     1       2.471   2.713  -0.819  0.00  0.00    +0.000 A 
ATOM     12  C   UNL     1       2.725   2.859   0.549  0.00  0.00    +0.000 A 
ATOM     13  C   UNL     1       2.478   4.076   1.189  0.00  0.00    +0.000 A 
ATOM     14  C   UNL     1       1.981   5.157   0.464  0.00  0.00    +0.000 A 
ATOM     15  C   UNL     1       1.733   5.024  -0.901  0.00  0.00    +0.000 A 
ATOM     16  C   UNL     1       1.980   3.807  -1.541  0.00  0.00    +0.000 A 
ENDBRANCH  10  11
ENDBRANCH   2  10
TORSDOF 4
