REMARK  Name = *****
REMARK  5 active torsions:
REMARK  status: ('A' for Active; 'I' for Inactive)
REMARK    1  A    between atoms: C_1  and  C_2
REMARK    2  A    between atoms: C_3  and  C_16
REMARK    3  A    between atoms: C_6  and  O_8
REMARK    4  A    between atoms: O_8  and  C_9
REMARK    5  A    between atoms: C_9  and  C_10
REMARK                            x       y       z     vdW  Elec       q    Type
REMARK                         _______ _______ _______ _____ _____    ______ ____
ROOT
ATOM      1  C   UNL     1       2.854  -0.158  -0.142  0.00  0.00    +0.000 C 
ATOM      2  C   UNL     1       1.365   0.057  -0.123  0.00  0.00    +0.000 A 
ATOM      3  C   UNL     1       0.792   1.332  -0.305  0.00  0.00    +0.000 A 
ATOM      4  C   UNL     1      -0.608   1.454  -0.281  0.00  0.00    +0.000 A 
ATOM      5  C   UNL     1      -1.431   0.345  -0.060  0.00  0.00    +0.000 A 
ATOM      6  C   UNL     1      -0.868  -0.912   0.132  0.00  0.00    +0.000 A 
ATOM      7  C   UNL     1       0.523  -1.045   0.103  0.00  0.00    +0.000 A 
ENDROOT
BRANCH   3   8
ATOM      8  C   UNL     1       1.621   2.566  -0.548  0.00  0.00    +0.000 C 
ATOM      9 CL   UNL     1       1.891   2.808  -2.287  0.00  0.00    +0.000 Cl
ENDBRANCH   3   8
BRANCH   6  10
ATOM     10  O   UNL     1      -1.545  -2.075   0.374  0.00  0.00    +0.000 OA
BRANCH  10  11
ATOM     11  C   UNL     1      -2.971  -2.072   0.268  0.00  0.00    +0.000 C 
BRANCH  11  12
ATOM     12  C   UNL     1      -3.669  -1.585   1.520  0.00  0.00    +0.000 A 
ATOM     13  C   UNL     1      -4.921  -0.959   1.423  0.00  0.00    +0.000 A 
ATOM     14  C   UNL     1      -5.589  -0.528   2.571  0.00  0.00    +0.000 A 
ATOM     15  C   UNL     1      -5.020  -0.728   3.827  0.00  0.00    +0.000 A 
ATOM     16  C   UNL     1      -3.785  -1.363   3.937  0.00  0.00    +0.000 A 
ATOM     17  C   UNL     1      -3.116  -1.796   2.791  0.00  0.00    +0.000 A 
ENDBRANCH  11  12
ENDBRANCH  10  11
ENDBRANCH   6  10
TORSDOF 4
