REMARK  Name = *****
REMARK  4 active torsions:
REMARK  status: ('A' for Active; 'I' for Inactive)
REMARK    1  A    between atoms: C_1  and  C_2
REMARK    2  A    between atoms: C_7  and  O_8
REMARK    3  A    between atoms: O_8  and  S_9
REMARK    4  A    between atoms: S_9  and  C_11
REMARK                            x       y       z     vdW  Elec       q    Type
REMARK                         _______ _______ _______ _____ _____    ______ ____
ROOT
ATOM      1  O   UNL     1       1.249  -2.552  -0.660  0.00  0.00    +0.000 OA
ENDROOT
BRANCH   1   8
ATOM      2  C   UNL     1       2.623  -0.102  -1.121  0.00  0.00    +0.000 C 
ATOM      3  C   UNL     1       1.230  -0.168  -0.565  0.00  0.00    +0.000 A 
ATOM      4  C   UNL     1       0.543   1.020  -0.273  0.00  0.00    +0.000 A 
ATOM      5  C   UNL     1      -0.754   0.983   0.243  0.00  0.00    +0.000 A 
ATOM      6  C   UNL     1      -1.380  -0.239   0.476  0.00  0.00    +0.000 A 
ATOM      7  C   UNL     1      -0.716  -1.428   0.177  0.00  0.00    +0.000 A 
ATOM      8  C   UNL     1       0.571  -1.392  -0.374  0.00  0.00    +0.000 A 
ENDBRANCH   1   8
BRANCH   1   9
ATOM      9  S   UNL     1       0.538  -3.514  -1.744  0.00  0.00    +0.000 S 
ATOM     10  O   UNL     1       0.300  -4.835  -1.070  0.00  0.00    +0.000 OA
BRANCH   9  11
ATOM     11  C   UNL     1       2.069  -3.722  -2.686  0.00  0.00    +0.000 A 
ATOM     12  C   UNL     1       2.979  -4.738  -2.374  0.00  0.00    +0.000 A 
ATOM     13  C   UNL     1       4.156  -4.877  -3.112  0.00  0.00    +0.000 A 
ATOM     14  C   UNL     1       4.426  -4.004  -4.165  0.00  0.00    +0.000 A 
ATOM     15  C   UNL     1       3.521  -2.992  -4.484  0.00  0.00    +0.000 A 
ATOM     16  C   UNL     1       2.344  -2.851  -3.747  0.00  0.00    +0.000 A 
ENDBRANCH   9  11
ENDBRANCH   1   9
TORSDOF 3
