REMARK  Name = *****
REMARK  6 active torsions:
REMARK  status: ('A' for Active; 'I' for Inactive)
REMARK    1  A    between atoms: C_1  and  C_2
REMARK    2  A    between atoms: C_7  and  C_8
REMARK    3  A    between atoms: C_9  and  C_10
REMARK    4  A    between atoms: C_13  and  N_16
REMARK    5  A    between atoms: N_16  and  C_17
REMARK    6  A    between atoms: N_16  and  C_18
REMARK                            x       y       z     vdW  Elec       q    Type
REMARK                         _______ _______ _______ _____ _____    ______ ____
ROOT
ATOM      1  C   UNL     1       2.530  -2.616  -0.372  0.00  0.00    +0.000 C 
ATOM      2  C   UNL     1       1.976  -3.676  -0.494  0.00  0.00    +0.000 C 
ENDROOT
BRANCH   1   9
ATOM      3  C   UNL     1       0.959  -0.162   0.035  0.00  0.00    +0.000 C 
ATOM      4  C   UNL     1       2.461  -0.164  -0.029  0.00  0.00    +0.000 A 
ATOM      5  C   UNL     1       3.162   1.045   0.109  0.00  0.00    +0.000 A 
ATOM      6  C   UNL     1       4.557   1.072   0.053  0.00  0.00    +0.000 A 
ATOM      7  C   UNL     1       5.269  -0.108  -0.141  0.00  0.00    +0.000 A 
ATOM      8  C   UNL     1       4.587  -1.317  -0.280  0.00  0.00    +0.000 A 
ATOM      9  C   UNL     1       3.189  -1.352  -0.225  0.00  0.00    +0.000 A 
ENDBRANCH   1   9
BRANCH   2  10
ATOM     10  C   UNL     1       1.313  -4.933  -0.639  0.00  0.00    +0.000 A 
ATOM     11  C   UNL     1       2.018  -6.122  -0.492  0.00  0.00    +0.000 A 
ATOM     12  C   UNL     1       1.361  -7.354  -0.636  0.00  0.00    +0.000 A 
ATOM     13  C   UNL     1      -0.015  -7.445  -0.916  0.00  0.00    +0.000 A 
ATOM     14  C   UNL     1      -0.690  -6.220  -1.073  0.00  0.00    +0.000 A 
ATOM     15  C   UNL     1      -0.044  -4.983  -0.934  0.00  0.00    +0.000 A 
BRANCH  13  16
ATOM     16  N   UNL     1      -0.668  -8.673  -1.075  0.00  0.00    +0.000 N 
ATOM     17  C   UNL     1      -2.118  -8.719  -0.887  0.00  0.00    +0.000 C 
ATOM     18  C   UNL     1       0.047  -9.911  -0.770  0.00  0.00    +0.000 C 
ENDBRANCH  13  16
ENDBRANCH   2  10
TORSDOF 3
