REMARK  Name = *****
REMARK  3 active torsions:
REMARK  status: ('A' for Active; 'I' for Inactive)
REMARK    1  A    between atoms: C_1  and  N_2
REMARK    2  A    between atoms: C_8  and  C_9
REMARK    3  A    between atoms: C_10  and  C_11
REMARK                            x       y       z     vdW  Elec       q    Type
REMARK                         _______ _______ _______ _____ _____    ______ ____
ROOT
ATOM      1  C   UNL     1       0.931   0.157   0.009  0.00  0.00    +0.000 C 
ATOM      2  N   UNL     1       2.382   0.082  -0.008  0.00  0.00    +0.000 NA
ATOM      3  C   UNL     1       2.973  -0.954  -0.504  0.00  0.00    +0.000 C 
ATOM      4  C   UNL     1       2.284  -2.143  -1.101  0.00  0.00    +0.000 C 
ATOM      5  C   UNL     1       2.992  -3.090  -1.727  0.00  0.00    +0.000 C 
ATOM      6  C   UNL     1       4.421  -3.032  -1.878  0.00  0.00    +0.000 C 
ATOM      7  C   UNL     1       5.139  -2.057  -1.308  0.00  0.00    +0.000 C 
ATOM      8  C   UNL     1       4.529  -0.957  -0.482  0.00  0.00    +0.000 C 
ENDROOT
BRANCH   8   9
ATOM      9  C   UNL     1       5.004  -1.063   0.949  0.00  0.00    +0.000 C 
ATOM     10  C   UNL     1       5.734  -0.117   1.563  0.00  0.00    +0.000 C 
BRANCH  10  11
ATOM     11  C   UNL     1       6.210  -0.190   2.952  0.00  0.00    +0.000 A 
ATOM     12  C   UNL     1       6.562  -1.399   3.566  0.00  0.00    +0.000 A 
ATOM     13  C   UNL     1       7.051  -1.418   4.876  0.00  0.00    +0.000 A 
ATOM     14  C   UNL     1       7.204  -0.227   5.582  0.00  0.00    +0.000 A 
ATOM     15  C   UNL     1       6.872   0.984   4.979  0.00  0.00    +0.000 A 
ATOM     16  C   UNL     1       6.382   1.002   3.670  0.00  0.00    +0.000 A 
ENDBRANCH  10  11
ENDBRANCH   8   9
TORSDOF 2
