REMARK  Name = *****
REMARK  4 active torsions:
REMARK  status: ('A' for Active; 'I' for Inactive)
REMARK    1  A    between atoms: C_5  and  C_7
REMARK    2  A    between atoms: C_7  and  O_8
REMARK    3  A    between atoms: O_8  and  C_9
REMARK    4  A    between atoms: C_12  and  C_15
REMARK                            x       y       z     vdW  Elec       q    Type
REMARK                         _______ _______ _______ _____ _____    ______ ____
ROOT
ATOM      1  O   UNL     1      -1.902  -2.210   0.179  0.00  0.00    +0.000 OA
ENDROOT
BRANCH   1   2
ATOM      2  C   UNL     1      -2.653  -3.315   0.466  0.00  0.00    +0.000 A 
ATOM      3  C   UNL     1      -4.026  -3.155   0.259  0.00  0.00    +0.000 A 
ATOM      4  C   UNL     1      -4.919  -4.202   0.510  0.00  0.00    +0.000 A 
ATOM      5  C   UNL     1      -4.443  -5.433   0.975  0.00  0.00    +0.000 A 
ATOM      6  C   UNL     1      -3.064  -5.592   1.180  0.00  0.00    +0.000 A 
ATOM      7  C   UNL     1      -2.174  -4.540   0.928  0.00  0.00    +0.000 A 
BRANCH   5   8
ATOM      8  C   UNL     1      -5.358  -6.588   1.260  0.00  0.00    +0.000 C 
ATOM      9  O   UNL     1      -4.841  -7.630   1.661  0.00  0.00    +0.000 OA
ATOM     10 CL   UNL     1      -7.084  -6.415   1.019  0.00  0.00    +0.000 Cl
ENDBRANCH   5   8
ENDBRANCH   1   2
BRANCH   1  11
ATOM     11  C   UNL     1      -0.491  -2.304   0.400  0.00  0.00    +0.000 C 
BRANCH  11  16
ATOM     12  C   UNL     1       0.184   1.279  -0.794  0.00  0.00    +0.000 A 
ATOM     13  C   UNL     1       1.556   1.390  -0.589  0.00  0.00    +0.000 A 
ATOM     14  C   UNL     1       2.266   0.311  -0.067  0.00  0.00    +0.000 A 
ATOM     15  C   UNL     1       1.603  -0.879   0.252  0.00  0.00    +0.000 A 
ATOM     16  C   UNL     1       0.217  -1.008   0.055  0.00  0.00    +0.000 A 
ATOM     17  C   UNL     1      -0.480   0.091  -0.476  0.00  0.00    +0.000 A 
ATOM     18 CL   UNL     1       2.553  -2.176   0.890  0.00  0.00    +0.000 Cl
ENDBRANCH  11  16
ENDBRANCH   1  11
TORSDOF 4
