REMARK  Name = *****
REMARK  3 active torsions:
REMARK  status: ('A' for Active; 'I' for Inactive)
REMARK    1  A    between atoms: C_4  and  C_7
REMARK    2  A    between atoms: C_4  and  C_16
REMARK    3  A    between atoms: C_8  and  C_9
REMARK                            x       y       z     vdW  Elec       q    Type
REMARK                         _______ _______ _______ _____ _____    ______ ____
ROOT
ATOM      1  C   UNL     1       1.071   0.554  -2.325  0.00  0.00    +0.000 C 
ATOM      2  C   UNL     1       1.103  -0.237  -3.413  0.00  0.00    +0.000 C 
ENDROOT
BRANCH   2   3
ATOM      3  C   UNL     1       1.714   0.164  -4.688  0.00  0.00    +0.000 A 
ATOM      4  C   UNL     1       2.943   0.837  -4.745  0.00  0.00    +0.000 A 
ATOM      5  C   UNL     1       3.510   1.177  -5.977  0.00  0.00    +0.000 A 
ATOM      6  C   UNL     1       2.855   0.835  -7.158  0.00  0.00    +0.000 A 
ATOM      7  C   UNL     1       1.642   0.153  -7.118  0.00  0.00    +0.000 A 
ATOM      8  C   UNL     1       1.076  -0.187  -5.885  0.00  0.00    +0.000 A 
ATOM      9 CL   UNL     1       3.552   1.252  -8.675  0.00  0.00    +0.000 Cl
ENDBRANCH   2   3
BRANCH   1  13
ATOM     10  C   UNL     1      -1.993  -0.265   0.698  0.00  0.00    +0.000 C 
ATOM     11  C   UNL     1      -1.331   1.107   0.678  0.00  0.00    +0.000 C 
ATOM     12  C   UNL     1      -0.564   1.350  -0.624  0.00  0.00    +0.000 C 
ATOM     13  C   UNL     1       0.464   0.239  -0.955  0.00  0.00    +0.000 C 
ATOM     14  C   UNL     1      -0.228  -1.145  -0.880  0.00  0.00    +0.000 C 
ATOM     15  C   UNL     1      -0.986  -1.376   0.430  0.00  0.00    +0.000 C 
BRANCH  13  16
ATOM     16  C   UNL     1       1.584   0.286   0.026  0.00  0.00    +0.000 C 
ATOM     17  N   UNL     1       2.452   0.328   0.797  0.00  0.00    +0.000 NA
ENDBRANCH  13  16
ENDBRANCH   1  13
TORSDOF 3
