REMARK  Name = *****
REMARK  4 active torsions:
REMARK  status: ('A' for Active; 'I' for Inactive)
REMARK    1  A    between atoms: C_1  and  C_2
REMARK    2  A    between atoms: C_4  and  C_8
REMARK    3  A    between atoms: C_9  and  C_10
REMARK    4  A    between atoms: C_9  and  C_12
REMARK                            x       y       z     vdW  Elec       q    Type
REMARK                         _______ _______ _______ _____ _____    ______ ____
ROOT
ATOM      1  C   UNL     1      -1.722   2.535  -0.126  0.00  0.00    +0.000 C 
ATOM      2  C   UNL     1      -1.127   3.668   0.296  0.00  0.00    +0.000 C 
ENDROOT
BRANCH   1   6
ATOM      3  C   UNL     1       0.196  -1.353   2.408  0.00  0.00    +0.000 C 
ATOM      4  C   UNL     1      -0.234  -0.721   1.117  0.00  0.00    +0.000 A 
ATOM      5  C   UNL     1      -0.771   0.575   1.107  0.00  0.00    +0.000 A 
ATOM      6  C   UNL     1      -1.133   1.190  -0.099  0.00  0.00    +0.000 A 
ATOM      7  C   UNL     1      -0.964   0.495  -1.300  0.00  0.00    +0.000 A 
ATOM      8  C   UNL     1      -0.417  -0.788  -1.300  0.00  0.00    +0.000 A 
ATOM      9  C   UNL     1      -0.047  -1.390  -0.097  0.00  0.00    +0.000 A 
ENDBRANCH   1   6
BRANCH   2  10
ATOM     10  C   UNL     1      -1.868   4.943   0.178  0.00  0.00    +0.000 A 
ATOM     11  C   UNL     1      -3.109   5.114   0.812  0.00  0.00    +0.000 A 
ATOM     12  C   UNL     1      -3.802   6.322   0.701  0.00  0.00    +0.000 A 
ATOM     13  C   UNL     1      -3.262   7.370  -0.041  0.00  0.00    +0.000 A 
ATOM     14  C   UNL     1      -2.029   7.215  -0.671  0.00  0.00    +0.000 A 
ATOM     15  C   UNL     1      -1.334   6.008  -0.562  0.00  0.00    +0.000 A 
ENDBRANCH   2  10
BRANCH   2  16
ATOM     16  C   UNL     1       0.208   3.695   0.812  0.00  0.00    +0.000 C 
ATOM     17  N   UNL     1       1.289   3.734   1.235  0.00  0.00    +0.000 NA
ENDBRANCH   2  16
TORSDOF 3
