REMARK  Name = *****
REMARK  4 active torsions:
REMARK  status: ('A' for Active; 'I' for Inactive)
REMARK    1  A    between atoms: C_1  and  O_2
REMARK    2  A    between atoms: O_2  and  C_3
REMARK    3  A    between atoms: C_6  and  C_9
REMARK    4  A    between atoms: C_10  and  C_11
REMARK                            x       y       z     vdW  Elec       q    Type
REMARK                         _______ _______ _______ _____ _____    ______ ____
ROOT
ATOM      1  C   UNL     1       5.022   2.901  13.100  0.00  0.00    +0.000 A 
ATOM      2  C   UNL     1       6.251   2.673  12.479  0.00  0.00    +0.000 A 
ATOM      3  C   UNL     1       6.415   2.961  11.120  0.00  0.00    +0.000 A 
ATOM      4  C   UNL     1       5.354   3.478  10.375  0.00  0.00    +0.000 A 
ATOM      5  C   UNL     1       4.123   3.703  10.990  0.00  0.00    +0.000 A 
ATOM      6  C   UNL     1       3.961   3.414  12.348  0.00  0.00    +0.000 A 
ENDROOT
BRANCH   1   8
ATOM      7  C   UNL     1       5.798   2.212  15.238  0.00  0.00    +0.000 C 
ATOM      8  O   UNL     1       4.731   2.666  14.416  0.00  0.00    +0.000 OA
ENDBRANCH   1   8
BRANCH   4   9
ATOM      9  C   UNL     1       5.533   3.769   8.987  0.00  0.00    +0.000 C 
ATOM     10  C   UNL     1       5.710   4.005   7.821  0.00  0.00    +0.000 C 
BRANCH  10  11
ATOM     11  C   UNL     1       5.947   4.277   6.392  0.00  0.00    +0.000 C 
ATOM     12  C   UNL     1       5.269   5.587   5.951  0.00  0.00    +0.000 C 
ATOM     13  C   UNL     1       6.097   6.819   6.320  0.00  0.00    +0.000 C 
ATOM     14  C   UNL     1       7.504   6.753   5.721  0.00  0.00    +0.000 C 
ATOM     15  C   UNL     1       8.128   5.393   5.828  0.00  0.00    +0.000 C 
ATOM     16  C   UNL     1       7.434   4.289   6.145  0.00  0.00    +0.000 C 
ENDBRANCH  10  11
ENDBRANCH   4   9
TORSDOF 3
