REMARK  Name = *****
REMARK  5 active torsions:
REMARK  status: ('A' for Active; 'I' for Inactive)
REMARK    1  A    between atoms: C_1  and  O_2
REMARK    2  A    between atoms: O_2  and  C_3
REMARK    3  A    between atoms: C_6  and  C_9
REMARK    4  A    between atoms: C_9  and  S_11
REMARK    5  A    between atoms: S_11  and  C_12
REMARK                            x       y       z     vdW  Elec       q    Type
REMARK                         _______ _______ _______ _____ _____    ______ ____
ROOT
ATOM      1  C   UNL     1       5.318  -4.194  -2.415  0.00  0.00    +0.000 C 
ATOM      2  O   UNL     1       6.441  -4.437  -1.987  0.00  0.00    +0.000 OA
ENDROOT
BRANCH   1   6
ATOM      3  C   UNL     1       3.087  -0.923  -0.703  0.00  0.00    +0.000 A 
ATOM      4  C   UNL     1       2.607  -1.545  -1.855  0.00  0.00    +0.000 A 
ATOM      5  C   UNL     1       3.314  -2.609  -2.434  0.00  0.00    +0.000 A 
ATOM      6  C   UNL     1       4.511  -3.065  -1.863  0.00  0.00    +0.000 A 
ATOM      7  C   UNL     1       4.989  -2.430  -0.709  0.00  0.00    +0.000 A 
ATOM      8  C   UNL     1       4.281  -1.371  -0.136  0.00  0.00    +0.000 A 
BRANCH   3  10
ATOM      9  C   UNL     1       1.274   0.612  -0.580  0.00  0.00    +0.000 C 
ATOM     10  O   UNL     1       2.496   0.118  -0.044  0.00  0.00    +0.000 OA
ENDBRANCH   3  10
ENDBRANCH   1   6
BRANCH   1  11
ATOM     11  S   UNL     1       4.619  -5.194  -3.686  0.00  0.00    +0.000 S 
BRANCH  11  12
ATOM     12  C   UNL     1       3.982  -6.538  -2.702  0.00  0.00    +0.000 A 
ATOM     13  C   UNL     1       2.612  -6.815  -2.725  0.00  0.00    +0.000 A 
ATOM     14  C   UNL     1       2.104  -7.867  -1.962  0.00  0.00    +0.000 A 
ATOM     15  C   UNL     1       2.950  -8.652  -1.181  0.00  0.00    +0.000 A 
ATOM     16  C   UNL     1       4.319  -8.385  -1.165  0.00  0.00    +0.000 A 
ATOM     17  C   UNL     1       4.833  -7.333  -1.926  0.00  0.00    +0.000 A 
ATOM     18 CL   UNL     1       0.415  -8.198  -1.985  0.00  0.00    +0.000 Cl
ENDBRANCH  11  12
ENDBRANCH   1  11
TORSDOF 4
