REMARK  Name = *****
REMARK  3 active torsions:
REMARK  status: ('A' for Active; 'I' for Inactive)
REMARK    1  A    between atoms: C_4  and  C_7
REMARK    2  A    between atoms: C_7  and  N_9
REMARK    3  A    between atoms: N_9  and  C_10
REMARK                            x       y       z     vdW  Elec       q    Type
REMARK                         _______ _______ _______ _____ _____    ______ ____
ROOT
ATOM      1  N   UNL     1      -3.606  -0.141  -0.711  0.00  0.00    +0.000 N 
ATOM      2  H   UNL     1      -3.304  -0.956  -0.248  0.00  0.00    +0.000 HD
ENDROOT
BRANCH   1   3
ATOM      3  C   UNL     1      -4.980  -0.172  -1.058  0.00  0.00    +0.000 A 
ATOM      4  C   UNL     1      -5.669   0.784  -1.801  0.00  0.00    +0.000 A 
ATOM      5  C   UNL     1      -7.034   0.622  -2.078  0.00  0.00    +0.000 A 
ATOM      6  C   UNL     1      -7.726  -0.499  -1.621  0.00  0.00    +0.000 A 
ATOM      7  C   UNL     1      -7.052  -1.467  -0.886  0.00  0.00    +0.000 A 
ATOM      8  C   UNL     1      -5.697  -1.297  -0.616  0.00  0.00    +0.000 A 
ATOM      9  F   UNL     1      -5.059  -2.244   0.092  0.00  0.00    +0.000 F 
ENDBRANCH   1   3
BRANCH   1  10
ATOM     10  C   UNL     1      -2.597   0.796  -0.885  0.00  0.00    +0.000 C 
ATOM     11  S   UNL     1      -2.678   2.340  -1.532  0.00  0.00    +0.000 S 
BRANCH  10  15
ATOM     12  C   UNL     1       1.124  -0.746   0.560  0.00  0.00    +0.000 A 
ATOM     13  C   UNL     1       0.546   0.360   1.185  0.00  0.00    +0.000 A 
ATOM     14  C   UNL     1      -0.663   0.876   0.716  0.00  0.00    +0.000 A 
ATOM     15  C   UNL     1      -1.288   0.281  -0.386  0.00  0.00    +0.000 A 
ATOM     16  C   UNL     1      -0.710  -0.832  -1.012  0.00  0.00    +0.000 A 
ATOM     17  C   UNL     1       0.498  -1.342  -0.537  0.00  0.00    +0.000 A 
ENDBRANCH  10  15
ENDBRANCH   1  10
TORSDOF 3
