REMARK  Name = *****
REMARK  1 active torsions:
REMARK  status: ('A' for Active; 'I' for Inactive)
REMARK    1  A    between atoms: C_4  and  C_6
REMARK                            x       y       z     vdW  Elec       q    Type
REMARK                         _______ _______ _______ _____ _____    ______ ____
ROOT
ATOM      1  C   UNL     1      -0.166  -2.698  -0.015  0.00  0.00    +0.000 A 
ATOM      2  C   UNL     1       0.246  -3.644   0.906  0.00  0.00    +0.000 A 
ATOM      3  C   UNL     1      -0.221  -4.949   0.565  0.00  0.00    +0.000 A 
ATOM      4  C   UNL     1      -0.960  -4.969  -0.582  0.00  0.00    +0.000 A 
ATOM      5  S   UNL     1      -1.118  -3.382  -1.279  0.00  0.00    +0.000 S 
ATOM      6  C   UNL     1      -1.419  -6.276  -0.929  0.00  0.00    +0.000 A 
ATOM      7  C   UNL     1      -0.999  -7.202  -0.001  0.00  0.00    +0.000 A 
ATOM      8  S   UNL     1      -0.067  -6.537   1.274  0.00  0.00    +0.000 S 
ENDROOT
BRANCH   1  12
ATOM      9  C   UNL     1      -0.015   1.033  -0.358  0.00  0.00    +0.000 A 
ATOM     10  C   UNL     1       1.163   0.949   0.346  0.00  0.00    +0.000 A 
ATOM     11  S   UNL     1       1.541  -0.662   0.768  0.00  0.00    +0.000 S 
ATOM     12  C   UNL     1       0.129  -1.279   0.001  0.00  0.00    +0.000 A 
ATOM     13  C   UNL     1      -0.609  -0.248  -0.557  0.00  0.00    +0.000 A 
ENDBRANCH   1  12
TORSDOF 1
