REMARK  Name = *****
REMARK  4 active torsions:
REMARK  status: ('A' for Active; 'I' for Inactive)
REMARK    1  A    between atoms: C_1  and  N_2
REMARK    2  A    between atoms: N_2  and  C_3
REMARK    3  A    between atoms: N_2  and  C_11
REMARK    4  A    between atoms: C_3  and  C_4
REMARK                            x       y       z     vdW  Elec       q    Type
REMARK                         _______ _______ _______ _____ _____    ______ ____
ROOT
ATOM      1  C   UNL     1       1.783   1.099  -1.103  0.00  0.00    +0.000 C 
ATOM      2  N   UNL     1       2.162  -0.013  -0.237  0.00  0.00    +0.000 N 
ENDROOT
BRANCH   2   3
ATOM      3  C   UNL     1       1.364  -0.349   0.857  0.00  0.00    +0.000 A 
ATOM      4  C   UNL     1       0.163   0.327   1.144  0.00  0.00    +0.000 A 
ATOM      5  C   UNL     1      -0.643  -0.003   2.242  0.00  0.00    +0.000 A 
ATOM      6  C   UNL     1      -0.267  -1.026   3.101  0.00  0.00    +0.000 A 
ATOM      7  C   UNL     1       0.916  -1.711   2.858  0.00  0.00    +0.000 A 
ATOM      8  C   UNL     1       1.713  -1.373   1.756  0.00  0.00    +0.000 A 
ENDBRANCH   2   3
BRANCH   2   9
ATOM      9  C   UNL     1       3.209  -0.907  -0.740  0.00  0.00    +0.000 C 
BRANCH   9  10
ATOM     10  C   UNL     1       2.616  -2.066  -1.469  0.00  0.00    +0.000 C 
ATOM     11  C   UNL     1       2.666  -3.377  -1.172  0.00  0.00    +0.000 C 
ATOM     12  C   UNL     1       1.874  -4.107  -2.230  0.00  0.00    +0.000 C 
ATOM     13  C   UNL     1       0.384  -3.762  -2.033  0.00  0.00    +0.000 C 
ATOM     14  C   UNL     1       0.329  -2.256  -2.404  0.00  0.00    +0.000 C 
ATOM     15  C   UNL     1       1.801  -1.931  -2.739  0.00  0.00    +0.000 C 
ATOM     16  C   UNL     1       2.226  -3.230  -3.435  0.00  0.00    +0.000 C 
ENDBRANCH   9  10
ENDBRANCH   2   9
TORSDOF 3
