REMARK  Name = *****
REMARK  5 active torsions:
REMARK  status: ('A' for Active; 'I' for Inactive)
REMARK    1  A    between atoms: C_1  and  C_2
REMARK    2  A    between atoms: C_2  and  O_4
REMARK    3  A    between atoms: O_4  and  C_5
REMARK    4  A    between atoms: C_10  and  C_11
REMARK    5  A    between atoms: C_12  and  C_13
REMARK                            x       y       z     vdW  Elec       q    Type
REMARK                         _______ _______ _______ _____ _____    ______ ____
ROOT
ATOM      1  C   UNL     1       4.685  -0.552  -0.621  0.00  0.00    +0.000 A 
ATOM      2  C   UNL     1       5.472  -0.723   0.521  0.00  0.00    +0.000 A 
ATOM      3  C   UNL     1       6.852  -0.855   0.387  0.00  0.00    +0.000 A 
ATOM      4  C   UNL     1       7.437  -0.808  -0.879  0.00  0.00    +0.000 A 
ATOM      5  C   UNL     1       6.644  -0.618  -2.016  0.00  0.00    +0.000 A 
ATOM      6  C   UNL     1       5.256  -0.469  -1.901  0.00  0.00    +0.000 A 
ENDROOT
BRANCH   6   7
ATOM      7  C   UNL     1       4.470  -0.277  -3.128  0.00  0.00    +0.000 C 
ATOM      8  C   UNL     1       3.624   0.752  -3.296  0.00  0.00    +0.000 C 
BRANCH   8   9
ATOM      9  C   UNL     1       2.816   0.962  -4.505  0.00  0.00    +0.000 A 
ATOM     10  C   UNL     1       2.250  -0.101  -5.221  0.00  0.00    +0.000 A 
ATOM     11  C   UNL     1       1.456   0.141  -6.345  0.00  0.00    +0.000 A 
ATOM     12  C   UNL     1       1.211   1.449  -6.758  0.00  0.00    +0.000 A 
ATOM     13  C   UNL     1       1.754   2.515  -6.044  0.00  0.00    +0.000 A 
ATOM     14  C   UNL     1       2.547   2.273  -4.920  0.00  0.00    +0.000 A 
ENDBRANCH   8   9
ENDBRANCH   6   7
BRANCH   1  15
ATOM     15  O   UNL     1       3.306  -0.404  -0.434  0.00  0.00    +0.000 OA
BRANCH  15  17
ATOM     16  C   UNL     1       1.127  -1.262  -0.584  0.00  0.00    +0.000 C 
ATOM     17  C   UNL     1       2.591  -1.564  -0.703  0.00  0.00    +0.000 C 
ATOM     18  O   UNL     1       3.044  -2.668  -0.977  0.00  0.00    +0.000 OA
ENDBRANCH  15  17
ENDBRANCH   1  15
TORSDOF 4
