REMARK  Name = *****
REMARK  2 active torsions:
REMARK  status: ('A' for Active; 'I' for Inactive)
REMARK    1  A    between atoms: C_4  and  S_8
REMARK    2  A    between atoms: S_8  and  C_9
REMARK                            x       y       z     vdW  Elec       q    Type
REMARK                         _______ _______ _______ _____ _____    ______ ____
ROOT
ATOM      1  S   UNL     1       2.796   1.536   0.091  0.00  0.00    +0.000 S 
ENDROOT
BRANCH   1   5
ATOM      2  C   UNL     1      -0.039   0.231   1.385  0.00  0.00    +0.000 C 
ATOM      3  C   UNL     1       0.023  -1.073   0.587  0.00  0.00    +0.000 C 
ATOM      4  C   UNL     1       1.353  -0.891  -0.178  0.00  0.00    +0.000 C 
ATOM      5  C   UNL     1       1.337   0.626  -0.548  0.00  0.00    +0.000 C 
ATOM      6  C   UNL     1       0.029   1.115   0.133  0.00  0.00    +0.000 C 
ATOM      7  C   UNL     1      -1.123   0.499  -0.637  0.00  0.00    +0.000 C 
ATOM      8  C   UNL     1      -1.116  -0.817  -0.372  0.00  0.00    +0.000 C 
ENDBRANCH   1   5
BRANCH   1   9
ATOM      9  C   UNL     1       4.106   0.767  -0.847  0.00  0.00    +0.000 A 
ATOM     10  C   UNL     1       4.092   0.735  -2.244  0.00  0.00    +0.000 A 
ATOM     11  C   UNL     1       5.142   0.131  -2.936  0.00  0.00    +0.000 A 
ATOM     12  C   UNL     1       6.214  -0.435  -2.248  0.00  0.00    +0.000 A 
ATOM     13  C   UNL     1       6.241  -0.391  -0.856  0.00  0.00    +0.000 A 
ATOM     14  C   UNL     1       5.191   0.213  -0.158  0.00  0.00    +0.000 A 
ATOM     15 CL   UNL     1       5.115   0.086  -4.656  0.00  0.00    +0.000 Cl
ENDBRANCH   1   9
TORSDOF 2
