REMARK  Name = *****
REMARK  5 active torsions:
REMARK  status: ('A' for Active; 'I' for Inactive)
REMARK    1  A    between atoms: C_1  and  C_2
REMARK    2  A    between atoms: C_3  and  N_9
REMARK    3  A    between atoms: C_4  and  C_8
REMARK    4  A    between atoms: C_10  and  C_11
REMARK    5  A    between atoms: C_14  and  C_16
REMARK                            x       y       z     vdW  Elec       q    Type
REMARK                         _______ _______ _______ _____ _____    ______ ____
ROOT
ATOM      1  C   UNL     1       2.634   0.655   1.061  0.00  0.00    +0.000 C 
ATOM      2  C   UNL     1       1.329   0.169   0.495  0.00  0.00    +0.000 A 
ATOM      3  C   UNL     1       0.247   1.054   0.307  0.00  0.00    +0.000 A 
ATOM      4  C   UNL     1      -0.977   0.566  -0.194  0.00  0.00    +0.000 A 
ATOM      5  C   UNL     1      -1.089  -0.785  -0.552  0.00  0.00    +0.000 A 
ATOM      6  C   UNL     1      -0.009  -1.650  -0.394  0.00  0.00    +0.000 A 
ATOM      7  C   UNL     1       1.193  -1.178   0.128  0.00  0.00    +0.000 A 
ATOM      8  C   UNL     1      -2.158   1.481  -0.367  0.00  0.00    +0.000 C 
ENDROOT
BRANCH   3   9
ATOM      9  N   UNL     1       0.378   2.413   0.649  0.00  0.00    +0.000 NA
ATOM     10  C   UNL     1       0.817   3.187  -0.295  0.00  0.00    +0.000 C 
BRANCH  10  11
ATOM     11  C   UNL     1       0.993   4.599  -0.063  0.00  0.00    +0.000 A 
ATOM     12  C   UNL     1       0.743   5.327   1.081  0.00  0.00    +0.000 A 
ATOM     13  C   UNL     1       1.047   6.710   0.916  0.00  0.00    +0.000 A 
ATOM     14  C   UNL     1       1.519   6.992  -0.349  0.00  0.00    +0.000 A 
ATOM     15  S   UNL     1       1.589   5.586  -1.323  0.00  0.00    +0.000 S 
ATOM     16  C   UNL     1       1.945   8.305  -0.909  0.00  0.00    +0.000 C 
ENDBRANCH  10  11
ENDBRANCH   3   9
TORSDOF 2
