REMARK  Name = *****
REMARK  0 active torsions:
REMARK  status: ('A' for Active; 'I' for Inactive)
REMARK                            x       y       z     vdW  Elec       q    Type
REMARK                         _______ _______ _______ _____ _____    ______ ____
ROOT
ATOM      1  C   UNL     1       0.413  -0.393   1.016  0.00  0.00    +0.000 C 
ATOM      2  C   UNL     1      -0.620  -0.917   2.009  0.00  0.00    +0.000 A 
ATOM      3  C   UNL     1      -1.513  -1.927   1.628  0.00  0.00    +0.000 A 
ATOM      4  C   UNL     1      -2.496  -2.373   2.516  0.00  0.00    +0.000 A 
ATOM      5  C   UNL     1      -2.602  -1.818   3.792  0.00  0.00    +0.000 A 
ATOM      6  C   UNL     1      -1.719  -0.816   4.195  0.00  0.00    +0.000 A 
ATOM      7  C   UNL     1      -0.740  -0.370   3.310  0.00  0.00    +0.000 A 
ATOM      8  C   UNL     1       0.223   0.604   3.696  0.00  0.00    +0.000 C 
ATOM      9  C   UNL     1       1.267   1.162   3.516  0.00  0.00    +0.000 C 
ATOM     10  C   UNL     1       2.474   1.353   2.787  0.00  0.00    +0.000 A 
ATOM     11  C   UNL     1       3.355   2.384   3.110  0.00  0.00    +0.000 A 
ATOM     12  C   UNL     1       4.552   2.515   2.403  0.00  0.00    +0.000 A 
ATOM     13  C   UNL     1       4.873   1.614   1.385  0.00  0.00    +0.000 A 
ATOM     14  C   UNL     1       3.993   0.580   1.058  0.00  0.00    +0.000 A 
ATOM     15  C   UNL     1       2.779   0.455   1.742  0.00  0.00    +0.000 A 
ATOM     16  C   UNL     1       1.874  -0.680   1.358  0.00  0.00    +0.000 C 
ATOM     17  O   UNL     1       2.363  -1.804   1.244  0.00  0.00    +0.000 OA
ENDROOT
TORSDOF 0
