REMARK  Name = *****
REMARK  6 active torsions:
REMARK  status: ('A' for Active; 'I' for Inactive)
REMARK    1  A    between atoms: C_1  and  N_2
REMARK    2  A    between atoms: N_2  and  C_3
REMARK    3  A    between atoms: N_2  and  C_4
REMARK    4  A    between atoms: C_7  and  C_10
REMARK    5  A    between atoms: C_10  and  C_11
REMARK    6  A    between atoms: C_11  and  C_12
REMARK                            x       y       z     vdW  Elec       q    Type
REMARK                         _______ _______ _______ _____ _____    ______ ____
ROOT
ATOM      1  C   UNL     1       3.173   1.150  -0.468  0.00  0.00    +0.000 A 
ATOM      2  C   UNL     1       2.481   2.360  -0.287  0.00  0.00    +0.000 A 
ATOM      3  C   UNL     1       3.083   3.610  -0.498  0.00  0.00    +0.000 A 
ATOM      4  C   UNL     1       4.413   3.698  -0.909  0.00  0.00    +0.000 A 
ATOM      5  C   UNL     1       5.120   2.513  -1.109  0.00  0.00    +0.000 A 
ATOM      6  C   UNL     1       4.506   1.269  -0.899  0.00  0.00    +0.000 A 
ENDROOT
BRANCH   1   8
ATOM      7  C   UNL     1       1.383  -0.156   0.599  0.00  0.00    +0.000 C 
ATOM      8  N   UNL     1       2.555  -0.092  -0.273  0.00  0.00    +0.000 N 
ATOM      9  C   UNL     1       3.358  -1.310  -0.342  0.00  0.00    +0.000 C 
ENDBRANCH   1   8
BRANCH   4  10
ATOM     10  C   UNL     1       5.068   5.037  -1.131  0.00  0.00    +0.000 C 
BRANCH  10  11
ATOM     11  C   UNL     1       5.373   5.755   0.188  0.00  0.00    +0.000 C 
BRANCH  11  12
ATOM     12  C   UNL     1       6.095   7.061  -0.038  0.00  0.00    +0.000 A 
ATOM     13  C   UNL     1       5.398   8.192  -0.484  0.00  0.00    +0.000 A 
ATOM     14  C   UNL     1       6.069   9.395  -0.708  0.00  0.00    +0.000 A 
ATOM     15  C   UNL     1       7.443   9.479  -0.488  0.00  0.00    +0.000 A 
ATOM     16  C   UNL     1       8.146   8.360  -0.045  0.00  0.00    +0.000 A 
ATOM     17  C   UNL     1       7.476   7.156   0.177  0.00  0.00    +0.000 A 
ENDBRANCH  11  12
ENDBRANCH  10  11
ENDBRANCH   4  10
TORSDOF 4
