REMARK  Name = *****
REMARK  4 active torsions:
REMARK  status: ('A' for Active; 'I' for Inactive)
REMARK    1  A    between atoms: C_1  and  C_2
REMARK    2  A    between atoms: C_4  and  N_8
REMARK    3  A    between atoms: N_8  and  N_18
REMARK    4  A    between atoms: C_9  and  C_11
REMARK                            x       y       z     vdW  Elec       q    Type
REMARK                         _______ _______ _______ _____ _____    ______ ____
ROOT
ATOM      1  N   UNL     1      -1.823   2.441   0.187  0.00  0.00    +0.000 N 
ATOM      2  C   UNL     1      -3.203   2.521  -0.087  0.00  0.00    +0.000 C 
ATOM      3  O   UNL     1      -3.942   1.584  -0.397  0.00  0.00    +0.000 OA
ENDROOT
BRANCH   1   7
ATOM      4  C   UNL     1      -1.167  -1.820  -2.352  0.00  0.00    +0.000 C 
ATOM      5  C   UNL     1      -0.737  -0.875  -1.268  0.00  0.00    +0.000 A 
ATOM      6  C   UNL     1      -1.458   0.309  -1.031  0.00  0.00    +0.000 A 
ATOM      7  C   UNL     1      -1.067   1.233  -0.044  0.00  0.00    +0.000 A 
ATOM      8  C   UNL     1       0.094   0.932   0.693  0.00  0.00    +0.000 A 
ATOM      9  C   UNL     1       0.827  -0.235   0.455  0.00  0.00    +0.000 A 
ATOM     10  C   UNL     1       0.415  -1.132  -0.524  0.00  0.00    +0.000 A 
ENDBRANCH   1   7
BRANCH   2  11
ATOM     11  C   UNL     1      -3.873   3.847   0.008  0.00  0.00    +0.000 A 
ATOM     12  C   UNL     1      -3.397   4.954  -0.708  0.00  0.00    +0.000 A 
ATOM     13  C   UNL     1      -4.070   6.176  -0.626  0.00  0.00    +0.000 A 
ATOM     14  C   UNL     1      -5.222   6.284   0.155  0.00  0.00    +0.000 A 
ATOM     15  C   UNL     1      -5.714   5.178   0.849  0.00  0.00    +0.000 A 
ATOM     16  C   UNL     1      -5.044   3.955   0.770  0.00  0.00    +0.000 A 
ATOM     17 CL   UNL     1      -6.048   7.789   0.252  0.00  0.00    +0.000 Cl
ENDBRANCH   2  11
BRANCH   1  18
ATOM     18  N   UNL     1      -1.263   3.500   0.929  0.00  0.00    +0.000 NA
ATOM     19  O   UNL     1      -0.122   3.811   0.569  0.00  0.00    +0.000 OA
ENDBRANCH   1  18
TORSDOF 3
