REMARK  Name = *****
REMARK  4 active torsions:
REMARK  status: ('A' for Active; 'I' for Inactive)
REMARK    1  A    between atoms: C_1  and  O_2
REMARK    2  A    between atoms: O_2  and  C_3
REMARK    3  A    between atoms: C_6  and  C_9
REMARK    4  A    between atoms: C_10  and  C_11
REMARK                            x       y       z     vdW  Elec       q    Type
REMARK                         _______ _______ _______ _____ _____    ______ ____
ROOT
ATOM      1  C   UNL     1       2.813   0.643  -1.222  0.00  0.00    +0.000 A 
ATOM      2  C   UNL     1       2.162   1.734  -1.799  0.00  0.00    +0.000 A 
ATOM      3  C   UNL     1       2.627   2.275  -3.004  0.00  0.00    +0.000 A 
ATOM      4  C   UNL     1       3.744   1.727  -3.637  0.00  0.00    +0.000 A 
ATOM      5  C   UNL     1       4.398   0.637  -3.063  0.00  0.00    +0.000 A 
ATOM      6  C   UNL     1       3.931   0.099  -1.861  0.00  0.00    +0.000 A 
ENDROOT
BRANCH   1   8
ATOM      7  C   UNL     1       1.330   0.535   0.633  0.00  0.00    +0.000 C 
ATOM      8  O   UNL     1       2.464   0.021  -0.055  0.00  0.00    +0.000 OA
ENDBRANCH   1   8
BRANCH   4   9
ATOM      9  C   UNL     1       4.216   2.281  -4.868  0.00  0.00    +0.000 C 
ATOM     10  C   UNL     1       4.611   2.746  -5.902  0.00  0.00    +0.000 C 
BRANCH  10  11
ATOM     11  C   UNL     1       5.082   3.296  -7.134  0.00  0.00    +0.000 A 
ATOM     12  C   UNL     1       5.164   4.650  -7.368  0.00  0.00    +0.000 A 
ATOM     13  S   UNL     1       5.764   4.997  -8.934  0.00  0.00    +0.000 S 
ATOM     14  C   UNL     1       5.917   3.332  -9.303  0.00  0.00    +0.000 A 
ATOM     15  C   UNL     1       5.518   2.532  -8.254  0.00  0.00    +0.000 A 
ENDBRANCH  10  11
ENDBRANCH   4   9
TORSDOF 3
