REMARK  Name = *****
REMARK  3 active torsions:
REMARK  status: ('A' for Active; 'I' for Inactive)
REMARK    1  A    between atoms: C_2  and  C_3
REMARK    2  A    between atoms: C_2  and  O_9
REMARK    3  A    between atoms: O_9  and  C_10
REMARK                            x       y       z     vdW  Elec       q    Type
REMARK                         _______ _______ _______ _____ _____    ______ ____
ROOT
ATOM      1  C   UNL     1       3.170   1.245   0.370  0.00  0.00    +0.000 C 
ATOM      2  C   UNL     1       2.556   0.116  -0.023  0.00  0.00    +0.000 C 
ENDROOT
BRANCH   2   3
ATOM      3  C   UNL     1       1.087   0.088  -0.198  0.00  0.00    +0.000 A 
ATOM      4  C   UNL     1       0.530  -0.526  -1.330  0.00  0.00    +0.000 A 
ATOM      5  C   UNL     1      -0.855  -0.574  -1.512  0.00  0.00    +0.000 A 
ATOM      6  C   UNL     1      -1.702  -0.013  -0.559  0.00  0.00    +0.000 A 
ATOM      7  C   UNL     1      -1.167   0.589   0.578  0.00  0.00    +0.000 A 
ATOM      8  C   UNL     1       0.219   0.636   0.759  0.00  0.00    +0.000 A 
ENDBRANCH   2   3
BRANCH   2   9
ATOM      9  O   UNL     1       3.156  -1.083  -0.326  0.00  0.00    +0.000 OA
BRANCH   9  10
ATOM     10  C   UNL     1       4.582  -1.226  -0.257  0.00  0.00    +0.000 C 
ATOM     11  C   UNL     1       4.971  -2.373  -1.198  0.00  0.00    +0.000 C 
ATOM     12  C   UNL     1       4.407  -3.718  -0.732  0.00  0.00    +0.000 C 
ATOM     13  C   UNL     1       4.585  -3.947   0.739  0.00  0.00    +0.000 C 
ATOM     14  C   UNL     1       4.887  -2.963   1.598  0.00  0.00    +0.000 C 
ATOM     15  C   UNL     1       5.042  -1.524   1.184  0.00  0.00    +0.000 C 
ENDBRANCH   9  10
ENDBRANCH   2   9
TORSDOF 3
