REMARK  Name = *****
REMARK  2 active torsions:
REMARK  status: ('A' for Active; 'I' for Inactive)
REMARK    1  A    between atoms: C_4  and  C_7
REMARK    2  A    between atoms: C_8  and  C_9
REMARK                            x       y       z     vdW  Elec       q    Type
REMARK                         _______ _______ _______ _____ _____    ______ ____
ROOT
ATOM      1  C   UNL     1      -2.780   0.543  -0.287  0.00  0.00    +0.000 C 
ATOM      2  C   UNL     1      -3.351   1.756  -0.211  0.00  0.00    +0.000 C 
ATOM      3  F   UNL     1      -3.562  -0.546  -0.481  0.00  0.00    +0.000 F 
ENDROOT
BRANCH   2   4
ATOM      4  C   UNL     1      -4.796   2.006  -0.360  0.00  0.00    +0.000 A 
ATOM      5  C   UNL     1      -5.719   1.241   0.373  0.00  0.00    +0.000 A 
ATOM      6  C   UNL     1      -7.092   1.484   0.276  0.00  0.00    +0.000 A 
ATOM      7  C   UNL     1      -7.565   2.501  -0.548  0.00  0.00    +0.000 A 
ATOM      8  C   UNL     1      -6.664   3.280  -1.273  0.00  0.00    +0.000 A 
ATOM      9  C   UNL     1      -5.289   3.039  -1.178  0.00  0.00    +0.000 A 
ATOM     10 CL   UNL     1      -4.238   4.049  -2.115  0.00  0.00    +0.000 Cl
ENDBRANCH   2   4
BRANCH   1  14
ATOM     11  C   UNL     1       1.400  -0.308   0.145  0.00  0.00    +0.000 A 
ATOM     12  C   UNL     1       0.441  -1.260   0.479  0.00  0.00    +0.000 A 
ATOM     13  C   UNL     1      -0.917  -0.965   0.333  0.00  0.00    +0.000 A 
ATOM     14  C   UNL     1      -1.336   0.288  -0.138  0.00  0.00    +0.000 A 
ATOM     15  C   UNL     1      -0.356   1.231  -0.484  0.00  0.00    +0.000 A 
ATOM     16  C   UNL     1       1.003   0.936  -0.339  0.00  0.00    +0.000 A 
ENDBRANCH   1  14
TORSDOF 2
