REMARK  Name = *****
REMARK  3 active torsions:
REMARK  status: ('A' for Active; 'I' for Inactive)
REMARK    1  A    between atoms: C_1  and  C_2
REMARK    2  A    between atoms: C_2  and  C_11
REMARK    3  A    between atoms: C_3  and  C_4
REMARK                            x       y       z     vdW  Elec       q    Type
REMARK                         _______ _______ _______ _____ _____    ______ ____
ROOT
ATOM      1  C   UNL     1       0.979  -0.194  -0.547  0.00  0.00    +0.000 C 
ATOM      2  C   UNL     1       2.427  -0.120  -0.139  0.00  0.00    +0.000 C 
ATOM      3  C   UNL     1       3.023  -0.922   0.766  0.00  0.00    +0.000 C 
ENDROOT
BRANCH   3   4
ATOM      4  C   UNL     1       2.361  -2.013   1.485  0.00  0.00    +0.000 A 
ATOM      5  C   UNL     1       2.024  -3.202   0.825  0.00  0.00    +0.000 A 
ATOM      6  C   UNL     1       1.398  -4.237   1.522  0.00  0.00    +0.000 A 
ATOM      7  C   UNL     1       1.115  -4.079   2.874  0.00  0.00    +0.000 A 
ATOM      8  C   UNL     1       1.447  -2.907   3.543  0.00  0.00    +0.000 A 
ATOM      9  C   UNL     1       2.073  -1.871   2.848  0.00  0.00    +0.000 A 
ATOM     10  F   UNL     1       0.515  -5.073   3.542  0.00  0.00    +0.000 F 
ENDBRANCH   3   4
BRANCH   2  11
ATOM     11  C   UNL     1       3.234   0.925  -0.808  0.00  0.00    +0.000 A 
ATOM     12  C   UNL     1       3.276   1.008  -2.206  0.00  0.00    +0.000 A 
ATOM     13  C   UNL     1       4.029   1.999  -2.840  0.00  0.00    +0.000 A 
ATOM     14  C   UNL     1       4.746   2.923  -2.082  0.00  0.00    +0.000 A 
ATOM     15  C   UNL     1       4.709   2.857  -0.691  0.00  0.00    +0.000 A 
ATOM     16  C   UNL     1       3.957   1.865  -0.057  0.00  0.00    +0.000 A 
ENDBRANCH   2  11
TORSDOF 2
