REMARK  Name = *****
REMARK  5 active torsions:
REMARK  status: ('A' for Active; 'I' for Inactive)
REMARK    1  A    between atoms: C_1  and  C_2
REMARK    2  A    between atoms: C_2  and  S_3
REMARK    3  A    between atoms: S_3  and  C_4
REMARK    4  A    between atoms: C_4  and  C_12
REMARK    5  A    between atoms: C_5  and  C_6
REMARK                            x       y       z     vdW  Elec       q    Type
REMARK                         _______ _______ _______ _____ _____    ______ ____
ROOT
ATOM      1  C   UNL     1       4.762  -1.663  -0.793  0.00  0.00    +0.000 C 
ATOM      2  C   UNL     1       5.419  -0.717  -0.098  0.00  0.00    +0.000 C 
ENDROOT
BRANCH   2   3
ATOM      3  C   UNL     1       4.843   0.450   0.583  0.00  0.00    +0.000 A 
ATOM      4  C   UNL     1       3.941   0.307   1.644  0.00  0.00    +0.000 A 
ATOM      5  C   UNL     1       3.426   1.433   2.289  0.00  0.00    +0.000 A 
ATOM      6  C   UNL     1       3.815   2.709   1.884  0.00  0.00    +0.000 A 
ATOM      7  C   UNL     1       4.722   2.860   0.837  0.00  0.00    +0.000 A 
ATOM      8  C   UNL     1       5.238   1.734   0.191  0.00  0.00    +0.000 A 
ENDBRANCH   2   3
BRANCH   1   9
ATOM      9  C   UNL     1       5.523  -2.768  -1.406  0.00  0.00    +0.000 A 
ATOM     10  C   UNL     1       5.423  -4.072  -0.900  0.00  0.00    +0.000 A 
ATOM     11  C   UNL     1       6.156  -5.113  -1.474  0.00  0.00    +0.000 A 
ATOM     12  C   UNL     1       6.997  -4.860  -2.556  0.00  0.00    +0.000 A 
ATOM     13  C   UNL     1       7.108  -3.567  -3.066  0.00  0.00    +0.000 A 
ATOM     14  C   UNL     1       6.376  -2.525  -2.493  0.00  0.00    +0.000 A 
ENDBRANCH   1   9
BRANCH   1  15
ATOM     15  S   UNL     1       3.046  -1.715  -1.045  0.00  0.00    +0.000 S 
BRANCH  15  17
ATOM     16  C   UNL     1       1.451  -0.438  -2.866  0.00  0.00    +0.000 C 
ATOM     17  C   UNL     1       2.904  -0.563  -2.443  0.00  0.00    +0.000 C 
ENDBRANCH  15  17
ENDBRANCH   1  15
TORSDOF 4
