REMARK  Name = *****
REMARK  1 active torsions:
REMARK  status: ('A' for Active; 'I' for Inactive)
REMARK    1  A    between atoms: C_4  and  C_6
REMARK                            x       y       z     vdW  Elec       q    Type
REMARK                         _______ _______ _______ _____ _____    ______ ____
ROOT
ATOM      1  C   UNL     1      -0.160  -2.715  -0.052  0.00  0.00    +0.000 A 
ATOM      2  N   UNL     1      -0.879  -3.285  -1.010  0.00  0.00    +0.000 NA
ATOM      3  C   UNL     1      -0.932  -4.608  -0.657  0.00  0.00    +0.000 A 
ATOM      4  C   UNL     1      -0.234  -4.804   0.521  0.00  0.00    +0.000 A 
ATOM      5  O   UNL     1       0.264  -3.601   0.917  0.00  0.00    +0.000 OA
ATOM      6  C   UNL     1      -0.086  -6.028   1.162  0.00  0.00    +0.000 A 
ATOM      7  C   UNL     1      -0.706  -7.116   0.534  0.00  0.00    +0.000 A 
ATOM      8  C   UNL     1      -1.420  -6.953  -0.660  0.00  0.00    +0.000 A 
ATOM      9  C   UNL     1      -1.548  -5.702  -1.277  0.00  0.00    +0.000 A 
ATOM     10 CL   UNL     1      -2.162  -8.327  -1.391  0.00  0.00    +0.000 Cl
ENDROOT
BRANCH   1  14
ATOM     11  C   UNL     1       0.230   0.943  -0.648  0.00  0.00    +0.000 A 
ATOM     12  C   UNL     1       0.970   0.953   0.513  0.00  0.00    +0.000 A 
ATOM     13  S   UNL     1       1.086  -0.604   1.212  0.00  0.00    +0.000 S 
ATOM     14  C   UNL     1       0.146  -1.310  -0.035  0.00  0.00    +0.000 A 
ATOM     15  C   UNL     1      -0.246  -0.363  -0.963  0.00  0.00    +0.000 A 
ENDBRANCH   1  14
TORSDOF 1
