REMARK  Name = *****
REMARK  3 active torsions:
REMARK  status: ('A' for Active; 'I' for Inactive)
REMARK    1  A    between atoms: C_5  and  C_7
REMARK    2  A    between atoms: C_7  and  O_9
REMARK    3  A    between atoms: O_9  and  C_10
REMARK                            x       y       z     vdW  Elec       q    Type
REMARK                         _______ _______ _______ _____ _____    ______ ____
ROOT
ATOM      1  C   UNL     1      -0.231  -2.477  -0.726  0.00  0.00    +0.000 C 
ATOM      2  O   UNL     1       0.455  -3.476  -0.871  0.00  0.00    +0.000 OA
ENDROOT
BRANCH   1   7
ATOM      3  C   UNL     1       1.776   0.004   1.237  0.00  0.00    +0.000 A 
ATOM      4  C   UNL     1       1.456   1.208   0.613  0.00  0.00    +0.000 A 
ATOM      5  C   UNL     1       0.587   1.220  -0.480  0.00  0.00    +0.000 A 
ATOM      6  C   UNL     1       0.022   0.029  -0.949  0.00  0.00    +0.000 A 
ATOM      7  C   UNL     1       0.323  -1.177  -0.306  0.00  0.00    +0.000 A 
ATOM      8  C   UNL     1       1.215  -1.188   0.777  0.00  0.00    +0.000 A 
ATOM      9 CL   UNL     1      -0.978   0.123  -2.354  0.00  0.00    +0.000 Cl
ENDBRANCH   1   7
BRANCH   1  10
ATOM     10  O   UNL     1      -1.608  -2.373  -0.768  0.00  0.00    +0.000 OA
BRANCH  10  11
ATOM     11  C   UNL     1      -2.308  -3.531  -1.134  0.00  0.00    +0.000 A 
ATOM     12  C   UNL     1      -3.330  -3.950  -0.281  0.00  0.00    +0.000 A 
ATOM     13  C   UNL     1      -4.095  -5.063  -0.629  0.00  0.00    +0.000 A 
ATOM     14  C   UNL     1      -3.835  -5.727  -1.825  0.00  0.00    +0.000 A 
ATOM     15  C   UNL     1      -2.830  -5.296  -2.686  0.00  0.00    +0.000 A 
ATOM     16  C   UNL     1      -2.064  -4.181  -2.346  0.00  0.00    +0.000 A 
ATOM     17  F   UNL     1      -4.573  -6.795  -2.157  0.00  0.00    +0.000 F 
ENDBRANCH  10  11
ENDBRANCH   1  10
TORSDOF 3
