REMARK  Name = *****
REMARK  3 active torsions:
REMARK  status: ('A' for Active; 'I' for Inactive)
REMARK    1  A    between atoms: C_3  and  O_9
REMARK    2  A    between atoms: O_9  and  C_10
REMARK    3  A    between atoms: C_10  and  C_11
REMARK                            x       y       z     vdW  Elec       q    Type
REMARK                         _______ _______ _______ _____ _____    ______ ____
ROOT
ATOM      1  C   UNL     1      -0.849  -1.580  -0.273  0.00  0.00    +0.000 A 
ATOM      2  C   UNL     1       0.462  -2.039  -0.136  0.00  0.00    +0.000 A 
ATOM      3  C   UNL     1       1.496  -1.138   0.132  0.00  0.00    +0.000 A 
ATOM      4  C   UNL     1       1.206   0.221   0.316  0.00  0.00    +0.000 A 
ATOM      5  C   UNL     1      -0.106   0.680   0.178  0.00  0.00    +0.000 A 
ATOM      6  C   UNL     1      -1.125  -0.222  -0.121  0.00  0.00    +0.000 A 
ATOM      7 CL   UNL     1      -2.741   0.342  -0.290  0.00  0.00    +0.000 Cl
ATOM      8 CL   UNL     1       2.418   1.369   0.753  0.00  0.00    +0.000 Cl
ENDROOT
BRANCH   3   9
ATOM      9  O   UNL     1       2.743  -1.686   0.274  0.00  0.00    +0.000 OA
BRANCH   9  10
ATOM     10  C   UNL     1       3.661  -1.258  -0.746  0.00  0.00    +0.000 C 
BRANCH  10  11
ATOM     11  C   UNL     1       4.482  -2.403  -1.233  0.00  0.00    +0.000 A 
ATOM     12  C   UNL     1       4.094  -3.410  -2.090  0.00  0.00    +0.000 A 
ATOM     13  S   UNL     1       5.407  -4.462  -2.325  0.00  0.00    +0.000 S 
ATOM     14  N   UNL     1       6.412  -3.567  -1.326  0.00  0.00    +0.000 NA
ATOM     15  N   UNL     1       5.808  -2.507  -0.810  0.00  0.00    +0.000 NA
ATOM     16 CL   UNL     1       2.594  -3.676  -2.862  0.00  0.00    +0.000 Cl
ENDBRANCH  10  11
ENDBRANCH   9  10
ENDBRANCH   3   9
TORSDOF 3
