REMARK  Name = *****
REMARK  4 active torsions:
REMARK  status: ('A' for Active; 'I' for Inactive)
REMARK    1  A    between atoms: C_4  and  C_7
REMARK    2  A    between atoms: C_7  and  S_8
REMARK    3  A    between atoms: S_8  and  C_9
REMARK    4  A    between atoms: C_14  and  C_15
REMARK                            x       y       z     vdW  Elec       q    Type
REMARK                         _______ _______ _______ _____ _____    ______ ____
ROOT
ATOM      1  C   UNL     1      -5.376  -0.687  -0.622  0.00  0.00    +0.000 A 
ATOM      2  C   UNL     1      -5.607  -0.365  -1.970  0.00  0.00    +0.000 A 
ATOM      3  C   UNL     1      -6.873   0.036  -2.407  0.00  0.00    +0.000 A 
ATOM      4  C   UNL     1      -7.933   0.104  -1.509  0.00  0.00    +0.000 A 
ATOM      5  C   UNL     1      -7.727  -0.224  -0.170  0.00  0.00    +0.000 A 
ATOM      6  C   UNL     1      -6.451  -0.610   0.278  0.00  0.00    +0.000 A 
ENDROOT
BRANCH   6   7
ATOM      7  C   UNL     1      -6.325  -0.917   1.724  0.00  0.00    +0.000 C 
ATOM      8  O   UNL     1      -7.098  -1.759   2.178  0.00  0.00    +0.000 OA
ATOM      9 CL   UNL     1      -5.213   0.027   2.688  0.00  0.00    +0.000 Cl
ENDBRANCH   6   7
BRANCH   1  10
ATOM     10  S   UNL     1      -3.751  -1.286  -0.177  0.00  0.00    +0.000 S 
BRANCH  10  11
ATOM     11  C   UNL     1      -2.806   0.268  -0.337  0.00  0.00    +0.000 C 
BRANCH  11  15
ATOM     12  C   UNL     1       1.277  -0.266   0.945  0.00  0.00    +0.000 A 
ATOM     13  C   UNL     1       0.943  -0.419  -0.399  0.00  0.00    +0.000 A 
ATOM     14  C   UNL     1      -0.378  -0.246  -0.816  0.00  0.00    +0.000 A 
ATOM     15  C   UNL     1      -1.377   0.090   0.109  0.00  0.00    +0.000 A 
ATOM     16  C   UNL     1      -1.030   0.232   1.460  0.00  0.00    +0.000 A 
ATOM     17  C   UNL     1       0.291   0.057   1.875  0.00  0.00    +0.000 A 
ENDBRANCH  11  15
ENDBRANCH  10  11
ENDBRANCH   1  10
TORSDOF 4
