REMARK  Name = *****
REMARK  5 active torsions:
REMARK  status: ('A' for Active; 'I' for Inactive)
REMARK    1  A    between atoms: C_1  and  O_2
REMARK    2  A    between atoms: O_2  and  C_3
REMARK    3  A    between atoms: C_3  and  C_4
REMARK    4  A    between atoms: C_3  and  C_11
REMARK    5  A    between atoms: C_4  and  C_5
REMARK                            x       y       z     vdW  Elec       q    Type
REMARK                         _______ _______ _______ _____ _____    ______ ____
ROOT
ATOM      1  C   UNL     1       2.802   0.850   1.058  0.00  0.00    +0.000 C 
ENDROOT
BRANCH   1   2
ATOM      2  C   UNL     1       4.318   0.898   0.952  0.00  0.00    +0.000 A 
ATOM      3  C   UNL     1       4.991   2.125   1.080  0.00  0.00    +0.000 A 
ATOM      4  C   UNL     1       6.384   2.184   1.011  0.00  0.00    +0.000 A 
ATOM      5  C   UNL     1       7.124   1.020   0.817  0.00  0.00    +0.000 A 
ATOM      6  C   UNL     1       6.471  -0.205   0.693  0.00  0.00    +0.000 A 
ATOM      7  C   UNL     1       5.078  -0.265   0.761  0.00  0.00    +0.000 A 
ENDBRANCH   1   2
BRANCH   1   9
ATOM      8  C   UNL     1       1.006   0.049  -0.294  0.00  0.00    +0.000 C 
ATOM      9  O   UNL     1       2.285  -0.226   0.258  0.00  0.00    +0.000 OA
ENDBRANCH   1   9
BRANCH   1  10
ATOM     10  C   UNL     1       2.304   0.771   2.520  0.00  0.00    +0.000 C 
BRANCH  10  11
ATOM     11  C   UNL     1       2.733  -0.455   3.298  0.00  0.00    +0.000 A 
ATOM     12  C   UNL     1       3.815  -0.390   4.187  0.00  0.00    +0.000 A 
ATOM     13  C   UNL     1       4.215  -1.521   4.900  0.00  0.00    +0.000 A 
ATOM     14  C   UNL     1       3.538  -2.728   4.733  0.00  0.00    +0.000 A 
ATOM     15  C   UNL     1       2.464  -2.805   3.849  0.00  0.00    +0.000 A 
ATOM     16  C   UNL     1       2.064  -1.675   3.134  0.00  0.00    +0.000 A 
ENDBRANCH  10  11
ENDBRANCH   1  10
TORSDOF 4
