REMARK  Name = *****
REMARK  2 active torsions:
REMARK  status: ('A' for Active; 'I' for Inactive)
REMARK    1  A    between atoms: C_3  and  C_7
REMARK    2  A    between atoms: C_8  and  C_9
REMARK                            x       y       z     vdW  Elec       q    Type
REMARK                         _______ _______ _______ _____ _____    ______ ____
ROOT
ATOM      1  C   UNL     1      -2.763   0.866  -0.082  0.00  0.00    +0.000 C 
ATOM      2  C   UNL     1      -3.908   1.230  -0.096  0.00  0.00    +0.000 C 
ENDROOT
BRANCH   1   5
ATOM      3  C   UNL     1       0.346  -1.446   0.156  0.00  0.00    +0.000 C 
ATOM      4  C   UNL     1      -1.107  -1.050  -0.168  0.00  0.00    +0.000 C 
ATOM      5  C   UNL     1      -1.405   0.428  -0.078  0.00  0.00    +0.000 C 
ATOM      6  C   UNL     1      -0.418   1.338  -0.011  0.00  0.00    +0.000 C 
ATOM      7  C   UNL     1       0.973   0.955  -0.033  0.00  0.00    +0.000 C 
ATOM      8  C   UNL     1       1.344  -0.329   0.051  0.00  0.00    +0.000 C 
ENDBRANCH   1   5
BRANCH   2   9
ATOM      9  C   UNL     1      -5.271   1.663  -0.124  0.00  0.00    +0.000 A 
ATOM     10  C   UNL     1      -6.303   0.724  -0.184  0.00  0.00    +0.000 A 
ATOM     11  C   UNL     1      -7.633   1.147  -0.217  0.00  0.00    +0.000 A 
ATOM     12  C   UNL     1      -7.932   2.510  -0.190  0.00  0.00    +0.000 A 
ATOM     13  C   UNL     1      -6.903   3.449  -0.129  0.00  0.00    +0.000 A 
ATOM     14  C   UNL     1      -5.572   3.027  -0.096  0.00  0.00    +0.000 A 
ENDBRANCH   2   9
TORSDOF 2
