REMARK  Name = *****
REMARK  2 active torsions:
REMARK  status: ('A' for Active; 'I' for Inactive)
REMARK    1  A    between atoms: C_4  and  C_6
REMARK    2  A    between atoms: C_7  and  C_8
REMARK                            x       y       z     vdW  Elec       q    Type
REMARK                         _______ _______ _______ _____ _____    ______ ____
ROOT
ATOM      1  C   UNL     1      -1.136   1.535   1.739  0.00  0.00    +0.000 C 
ATOM      2  C   UNL     1      -2.422   1.412   2.107  0.00  0.00    +0.000 C 
ENDROOT
BRANCH   2   3
ATOM      3  C   UNL     1      -2.953   1.850   3.405  0.00  0.00    +0.000 A 
ATOM      4  C   UNL     1      -2.535   3.036   4.022  0.00  0.00    +0.000 A 
ATOM      5  C   UNL     1      -3.087   3.435   5.242  0.00  0.00    +0.000 A 
ATOM      6  C   UNL     1      -4.070   2.658   5.852  0.00  0.00    +0.000 A 
ATOM      7  C   UNL     1      -4.505   1.485   5.240  0.00  0.00    +0.000 A 
ATOM      8  C   UNL     1      -3.954   1.086   4.020  0.00  0.00    +0.000 A 
ENDBRANCH   2   3
BRANCH   1  12
ATOM      9  C   UNL     1       0.970   1.467  -1.381  0.00  0.00    +0.000 C 
ATOM     10  C   UNL     1       1.164   0.051  -0.837  0.00  0.00    +0.000 C 
ATOM     11  C   UNL     1       0.513   0.043   0.541  0.00  0.00    +0.000 C 
ATOM     12  C   UNL     1      -0.607   1.074   0.412  0.00  0.00    +0.000 C 
ATOM     13  C   UNL     1       0.070   2.192  -0.382  0.00  0.00    +0.000 C 
ENDBRANCH   1  12
TORSDOF 2
