REMARK  Name = *****
REMARK  4 active torsions:
REMARK  status: ('A' for Active; 'I' for Inactive)
REMARK    1  A    between atoms: C_1  and  C_2
REMARK    2  A    between atoms: C_6  and  O_7
REMARK    3  A    between atoms: O_7  and  C_8
REMARK    4  A    between atoms: C_8  and  C_10
REMARK                            x       y       z     vdW  Elec       q    Type
REMARK                         _______ _______ _______ _____ _____    ______ ____
ROOT
ATOM      1  C   UNL     1      -0.391   3.510   0.236  0.00  0.00    +0.000 C 
ATOM      2  O   UNL     1      -1.329   3.544   1.017  0.00  0.00    +0.000 OA
ENDROOT
BRANCH   1   3
ATOM      3  C   UNL     1       0.139   4.710  -0.466  0.00  0.00    +0.000 A 
ATOM      4  C   UNL     1      -0.447   5.953  -0.186  0.00  0.00    +0.000 A 
ATOM      5  C   UNL     1       0.014   7.108  -0.819  0.00  0.00    +0.000 A 
ATOM      6  C   UNL     1       1.061   7.030  -1.736  0.00  0.00    +0.000 A 
ATOM      7  C   UNL     1       1.649   5.798  -2.022  0.00  0.00    +0.000 A 
ATOM      8  C   UNL     1       1.191   4.639  -1.390  0.00  0.00    +0.000 A 
ENDBRANCH   1   3
BRANCH   1   9
ATOM      9  O   UNL     1       0.312   2.405  -0.115  0.00  0.00    +0.000 OA
BRANCH   9  15
ATOM     10  C   UNL     1       1.591   0.053  -1.069  0.00  0.00    +0.000 C 
ATOM     11  C   UNL     1       0.934   0.077   0.312  0.00  0.00    +0.000 C 
ATOM     12  C   UNL     1       0.109  -1.182   0.577  0.00  0.00    +0.000 C 
ATOM     13  C   UNL     1      -1.254  -0.906  -0.054  0.00  0.00    +0.000 C 
ATOM     14  C   UNL     1      -1.369   0.613  -0.177  0.00  0.00    +0.000 C 
ATOM     15  C   UNL     1      -0.115   1.183   0.490  0.00  0.00    +0.000 C 
ENDBRANCH   9  15
ENDBRANCH   1   9
TORSDOF 3
