REMARK  Name = *****
REMARK  4 active torsions:
REMARK  status: ('A' for Active; 'I' for Inactive)
REMARK    1  A    between atoms: C_1  and  C_2
REMARK    2  A    between atoms: C_4  and  C_8
REMARK    3  A    between atoms: C_8  and  S_9
REMARK    4  A    between atoms: S_9  and  C_10
REMARK                            x       y       z     vdW  Elec       q    Type
REMARK                         _______ _______ _______ _____ _____    ______ ____
ROOT
ATOM      1  C   UNL     1      -1.923   2.450  -0.041  0.00  0.00    +0.000 C 
ENDROOT
BRANCH   1   5
ATOM      2  C   UNL     1       1.302  -0.461   2.188  0.00  0.00    +0.000 C 
ATOM      3  C   UNL     1       0.351  -0.252   1.048  0.00  0.00    +0.000 A 
ATOM      4  N   UNL     1      -0.317   0.925   1.004  0.00  0.00    +0.000 NA
ATOM      5  C   UNL     1      -1.191   1.129  -0.016  0.00  0.00    +0.000 A 
ATOM      6  C   UNL     1      -1.406   0.178  -1.011  0.00  0.00    +0.000 A 
ATOM      7  C   UNL     1      -0.709  -1.024  -0.954  0.00  0.00    +0.000 A 
ATOM      8  C   UNL     1       0.182  -1.246   0.090  0.00  0.00    +0.000 A 
ENDBRANCH   1   5
BRANCH   1   9
ATOM      9  S   UNL     1      -3.694   2.267   0.372  0.00  0.00    +0.000 S 
BRANCH   9  10
ATOM     10  C   UNL     1      -4.237   3.947   0.129  0.00  0.00    +0.000 A 
ATOM     11  C   UNL     1      -5.247   4.208  -0.803  0.00  0.00    +0.000 A 
ATOM     12  C   UNL     1      -5.700   5.514  -1.008  0.00  0.00    +0.000 A 
ATOM     13  C   UNL     1      -5.147   6.560  -0.273  0.00  0.00    +0.000 A 
ATOM     14  C   UNL     1      -4.151   6.311   0.669  0.00  0.00    +0.000 A 
ATOM     15  C   UNL     1      -3.700   5.003   0.872  0.00  0.00    +0.000 A 
ATOM     16 BR   UNL     1      -5.758   8.327  -0.548  0.00  0.00    +0.000 Br
ENDBRANCH   9  10
ENDBRANCH   1   9
TORSDOF 3
