REMARK  Name = *****
REMARK  7 active torsions:
REMARK  status: ('A' for Active; 'I' for Inactive)
REMARK    1  A    between atoms: C_1  and  C_2
REMARK    2  A    between atoms: C_3  and  C_8
REMARK    3  A    between atoms: C_8  and  C_9
REMARK    4  A    between atoms: C_9  and  C_10
REMARK    5  A    between atoms: C_10  and  C_16
REMARK    6  A    between atoms: C_16  and  O_18
REMARK    7  A    between atoms: O_18  and  C_19
REMARK                            x       y       z     vdW  Elec       q    Type
REMARK                         _______ _______ _______ _____ _____    ______ ____
ROOT
ATOM      1  C   UNL     1       2.390   5.190  -0.154  0.00  0.00    +0.000 C 
ATOM      2  C   UNL     1       1.155   5.268  -1.085  0.00  0.00    +0.000 C 
ATOM      3  C   UNL     1       1.518   5.202  -2.571  0.00  0.00    +0.000 C 
ATOM      4  C   UNL     1       2.705   6.048  -2.920  0.00  0.00    +0.000 C 
ATOM      5  C   UNL     1       3.516   6.584  -1.998  0.00  0.00    +0.000 C 
ATOM      6  C   UNL     1       3.340   6.366  -0.520  0.00  0.00    +0.000 C 
ENDROOT
BRANCH   1   7
ATOM      7  C   UNL     1       2.025   5.382   1.323  0.00  0.00    +0.000 C 
ATOM      8  O   UNL     1       2.844   5.638   2.199  0.00  0.00    +0.000 OA
BRANCH   7   9
ATOM      9  O   UNL     1       0.698   5.188   1.555  0.00  0.00    +0.000 OA
ATOM     10  C   UNL     1       0.313   5.333   2.923  0.00  0.00    +0.000 C 
ENDBRANCH   7   9
ENDBRANCH   1   7
BRANCH   1  11
ATOM     11  C   UNL     1       3.154   3.840  -0.275  0.00  0.00    +0.000 C 
BRANCH  11  12
ATOM     12  C   UNL     1       2.298   2.591  -0.016  0.00  0.00    +0.000 C 
BRANCH  12  15
ATOM     13  C   UNL     1       3.606   1.373   2.474  0.00  0.00    +0.000 C 
ATOM     14  C   UNL     1       3.696   0.784   1.089  0.00  0.00    +0.000 C 
ATOM     15  C   UNL     1       3.139   1.328  -0.021  0.00  0.00    +0.000 C 
ATOM     16  C   UNL     1       3.291   0.699  -1.395  0.00  0.00    +0.000 C 
ATOM     17  C   UNL     1       4.099  -0.563  -1.419  0.00  0.00    +0.000 C 
ATOM     18  C   UNL     1       4.645  -1.103  -0.321  0.00  0.00    +0.000 C 
ATOM     19  C   UNL     1       4.507  -0.499   1.043  0.00  0.00    +0.000 C 
ENDBRANCH  12  15
ENDBRANCH  11  12
ENDBRANCH   1  11
TORSDOF 5
