REMARK  Name = *****
REMARK  4 active torsions:
REMARK  status: ('A' for Active; 'I' for Inactive)
REMARK    1  A    between atoms: C_4  and  C_7
REMARK    2  A    between atoms: C_7  and  C_8
REMARK    3  A    between atoms: C_8  and  C_9
REMARK    4  A    between atoms: C_8  and  C_11
REMARK                            x       y       z     vdW  Elec       q    Type
REMARK                         _______ _______ _______ _____ _____    ______ ____
ROOT
ATOM      1  C   UNL     1      -3.661  -0.791   0.240  0.00  0.00    +0.000 C 
ENDROOT
BRANCH   1   2
ATOM      2  C   UNL     1      -5.112  -0.622  -0.192  0.00  0.00    +0.000 A 
ATOM      3  C   UNL     1      -5.764  -1.682  -0.844  0.00  0.00    +0.000 A 
ATOM      4  C   UNL     1      -7.097  -1.564  -1.243  0.00  0.00    +0.000 A 
ATOM      5  C   UNL     1      -7.794  -0.386  -0.988  0.00  0.00    +0.000 A 
ATOM      6  C   UNL     1      -7.169   0.672  -0.334  0.00  0.00    +0.000 A 
ATOM      7  C   UNL     1      -5.835   0.554   0.066  0.00  0.00    +0.000 A 
ATOM      8 CL   UNL     1      -9.436  -0.238  -1.479  0.00  0.00    +0.000 Cl
ENDBRANCH   1   2
BRANCH   1   9
ATOM      9  C   UNL     1      -3.580  -0.969   1.745  0.00  0.00    +0.000 C 
ATOM     10  O   UNL     1      -3.566  -2.066   2.299  0.00  0.00    +0.000 OA
ENDBRANCH   1   9
BRANCH   1  11
ATOM     11  C   UNL     1      -2.776   0.386  -0.214  0.00  0.00    +0.000 C 
BRANCH  11  15
ATOM     12  C   UNL     1       1.437  -0.380   0.325  0.00  0.00    +0.000 A 
ATOM     13  C   UNL     1       0.741  -1.002  -0.709  0.00  0.00    +0.000 A 
ATOM     14  C   UNL     1      -0.620  -0.751  -0.887  0.00  0.00    +0.000 A 
ATOM     15  C   UNL     1      -1.298   0.126  -0.029  0.00  0.00    +0.000 A 
ATOM     16  C   UNL     1      -0.588   0.748   1.007  0.00  0.00    +0.000 A 
ATOM     17  C   UNL     1       0.773   0.495   1.182  0.00  0.00    +0.000 A 
ENDBRANCH  11  15
ENDBRANCH   1  11
TORSDOF 4
