REMARK  Name = *****
REMARK  1 active torsions:
REMARK  status: ('A' for Active; 'I' for Inactive)
REMARK    1  A    between atoms: C_10  and  C_11
REMARK                            x       y       z     vdW  Elec       q    Type
REMARK                         _______ _______ _______ _____ _____    ______ ____
ROOT
ATOM      1  C   UNL     1      -2.358   0.604  -0.497  0.00  0.00    +0.000 C 
ATOM      2  C   UNL     1      -1.165   1.402   0.018  0.00  0.00    +0.000 C 
ATOM      3  C   UNL     1       0.143   0.656   0.014  0.00  0.00    +0.000 A 
ATOM      4  C   UNL     1       1.328   1.416   0.050  0.00  0.00    +0.000 A 
ATOM      5  C   UNL     1       2.579   0.799   0.071  0.00  0.00    +0.000 A 
ATOM      6  C   UNL     1       2.664  -0.588   0.064  0.00  0.00    +0.000 A 
ATOM      7  C   UNL     1       1.498  -1.353   0.043  0.00  0.00    +0.000 A 
ATOM      8  C   UNL     1       0.233  -0.745   0.028  0.00  0.00    +0.000 A 
ATOM      9  S   UNL     1      -1.174  -1.843  -0.000  0.00  0.00    +0.000 S 
ATOM     10  C   UNL     1      -2.550  -0.679   0.312  0.00  0.00    +0.000 C 
ENDROOT
BRANCH  10  11
ATOM     11  C   UNL     1      -3.889  -1.343   0.034  0.00  0.00    +0.000 A 
ATOM     12  C   UNL     1      -4.750  -1.650   1.100  0.00  0.00    +0.000 A 
ATOM     13  C   UNL     1      -5.987  -2.255   0.868  0.00  0.00    +0.000 A 
ATOM     14  C   UNL     1      -6.381  -2.564  -0.432  0.00  0.00    +0.000 A 
ATOM     15  C   UNL     1      -5.536  -2.274  -1.500  0.00  0.00    +0.000 A 
ATOM     16  C   UNL     1      -4.299  -1.669  -1.270  0.00  0.00    +0.000 A 
ENDBRANCH  10  11
TORSDOF 1
