REMARK  Name = *****
REMARK  3 active torsions:
REMARK  status: ('A' for Active; 'I' for Inactive)
REMARK    1  A    between atoms: C_4  and  N_7
REMARK    2  A    between atoms: N_7  and  C_8
REMARK    3  A    between atoms: C_8  and  C_9
REMARK                            x       y       z     vdW  Elec       q    Type
REMARK                         _______ _______ _______ _____ _____    ______ ____
ROOT
ATOM      1  C   UNL     1      -3.258   1.643  -0.204  0.00  0.00    +0.000 C 
ENDROOT
BRANCH   1   2
ATOM      2  C   UNL     1      -2.514   2.904  -0.174  0.00  0.00    +0.000 A 
ATOM      3  C   UNL     1      -1.560   3.190   0.804  0.00  0.00    +0.000 A 
ATOM      4  C   UNL     1      -0.906   4.427   0.795  0.00  0.00    +0.000 A 
ATOM      5  C   UNL     1      -1.224   5.382  -0.178  0.00  0.00    +0.000 A 
ATOM      6  C   UNL     1      -2.205   5.099  -1.135  0.00  0.00    +0.000 A 
ATOM      7  C   UNL     1      -2.857   3.864  -1.128  0.00  0.00    +0.000 A 
ATOM      8 CL   UNL     1      -0.456   6.927  -0.249  0.00  0.00    +0.000 Cl
ATOM      9 CL   UNL     1       0.279   4.715   2.020  0.00  0.00    +0.000 Cl
ENDBRANCH   1   2
BRANCH   1  10
ATOM     10  N   UNL     1      -2.770   0.427  -0.101  0.00  0.00    +0.000 N 
ATOM     11  O   UNL     1      -3.570  -0.566  -0.093  0.00  0.00    +0.000 OA
BRANCH  10  15
ATOM     12  C   UNL     1       1.378  -0.332   0.176  0.00  0.00    +0.000 A 
ATOM     13  C   UNL     1       0.528  -0.698   1.221  0.00  0.00    +0.000 A 
ATOM     14  C   UNL     1      -0.840  -0.451   1.126  0.00  0.00    +0.000 A 
ATOM     15  C   UNL     1      -1.345   0.179  -0.016  0.00  0.00    +0.000 A 
ATOM     16  C   UNL     1      -0.503   0.520  -1.080  0.00  0.00    +0.000 A 
ATOM     17  C   UNL     1       0.864   0.270  -0.974  0.00  0.00    +0.000 A 
ENDBRANCH  10  15
ENDBRANCH   1  10
TORSDOF 3
