REMARK  Name = *****
REMARK  5 active torsions:
REMARK  status: ('A' for Active; 'I' for Inactive)
REMARK    1  A    between atoms: C_1  and  C_2
REMARK    2  A    between atoms: C_2  and  C_14
REMARK    3  A    between atoms: C_4  and  C_6
REMARK    4  A    between atoms: C_6  and  C_7
REMARK    5  A    between atoms: C_7  and  C_8
REMARK                            x       y       z     vdW  Elec       q    Type
REMARK                         _______ _______ _______ _____ _____    ______ ____
ROOT
ATOM      1  C   UNL     1       5.509  -0.067   0.339  0.00  0.00    +0.000 C 
ENDROOT
BRANCH   1   5
ATOM      2  C   UNL     1       2.406   2.280   2.903  0.00  0.00    +0.000 C 
ATOM      3  C   UNL     1       3.593   1.834   2.054  0.00  0.00    +0.000 C 
ATOM      4  C   UNL     1       3.192   1.014   0.796  0.00  0.00    +0.000 C 
ATOM      5  C   UNL     1       4.229  -0.069   1.175  0.00  0.00    +0.000 C 
ATOM      6  C   UNL     1       4.303   0.558   2.590  0.00  0.00    +0.000 C 
BRANCH   3   7
ATOM      7  C   UNL     1       4.489   2.951   1.785  0.00  0.00    +0.000 C 
ATOM      8  C   UNL     1       5.228   3.871   1.561  0.00  0.00    +0.000 C 
ENDBRANCH   3   7
ENDBRANCH   1   5
BRANCH   1   9
ATOM      9  C   UNL     1       6.487  -1.127   0.854  0.00  0.00    +0.000 C 
BRANCH   9  10
ATOM     10  C   UNL     1       7.761  -1.148   0.048  0.00  0.00    +0.000 A 
ATOM     11  C   UNL     1       8.836  -0.321   0.399  0.00  0.00    +0.000 A 
ATOM     12  C   UNL     1      10.009  -0.326  -0.357  0.00  0.00    +0.000 A 
ATOM     13  C   UNL     1      10.116  -1.155  -1.473  0.00  0.00    +0.000 A 
ATOM     14  C   UNL     1       9.050  -1.976  -1.835  0.00  0.00    +0.000 A 
ATOM     15  C   UNL     1       7.876  -1.971  -1.080  0.00  0.00    +0.000 A 
ENDBRANCH   9  10
ENDBRANCH   1   9
TORSDOF 4
