REMARK  Name = *****
REMARK  4 active torsions:
REMARK  status: ('A' for Active; 'I' for Inactive)
REMARK    1  A    between atoms: C_1  and  C_2
REMARK    2  A    between atoms: C_7  and  S_8
REMARK    3  A    between atoms: S_8  and  S_10
REMARK    4  A    between atoms: S_10  and  C_11
REMARK                            x       y       z     vdW  Elec       q    Type
REMARK                         _______ _______ _______ _____ _____    ______ ____
ROOT
ATOM      1  S   UNL     1       1.412  -2.747  -0.065  0.00  0.00    +0.000 S 
ATOM      2  O   UNL     1       2.746  -2.433  -0.673  0.00  0.00    +0.000 OA
ENDROOT
BRANCH   1   9
ATOM      3  C   UNL     1       2.531   0.346  -0.114  0.00  0.00    +0.000 C 
ATOM      4  C   UNL     1       1.051   0.100   0.001  0.00  0.00    +0.000 A 
ATOM      5  C   UNL     1       0.201   1.221   0.064  0.00  0.00    +0.000 A 
ATOM      6  C   UNL     1      -1.183   1.076   0.163  0.00  0.00    +0.000 A 
ATOM      7  C   UNL     1      -1.745  -0.194   0.196  0.00  0.00    +0.000 A 
ATOM      8  C   UNL     1      -0.921  -1.317   0.127  0.00  0.00    +0.000 A 
ATOM      9  C   UNL     1       0.478  -1.188   0.028  0.00  0.00    +0.000 A 
ENDBRANCH   1   9
BRANCH   1  10
ATOM     10  S   UNL     1       1.958  -2.956   1.879  0.00  0.00    +0.000 S 
BRANCH  10  11
ATOM     11  C   UNL     1       2.680  -4.586   1.884  0.00  0.00    +0.000 A 
ATOM     12  C   UNL     1       3.889  -4.846   1.229  0.00  0.00    +0.000 A 
ATOM     13  C   UNL     1       4.446  -6.126   1.256  0.00  0.00    +0.000 A 
ATOM     14  C   UNL     1       3.803  -7.152   1.947  0.00  0.00    +0.000 A 
ATOM     15  C   UNL     1       2.605  -6.898   2.613  0.00  0.00    +0.000 A 
ATOM     16  C   UNL     1       2.047  -5.618   2.585  0.00  0.00    +0.000 A 
ENDBRANCH  10  11
ENDBRANCH   1  10
TORSDOF 3
