REMARK  Name = *****
REMARK  5 active torsions:
REMARK  status: ('A' for Active; 'I' for Inactive)
REMARK    1  A    between atoms: C_1  and  C_2
REMARK    2  A    between atoms: C_5  and  O_8
REMARK    3  A    between atoms: O_8  and  S_9
REMARK    4  A    between atoms: S_9  and  C_10
REMARK    5  A    between atoms: C_14  and  C_16
REMARK                            x       y       z     vdW  Elec       q    Type
REMARK                         _______ _______ _______ _____ _____    ______ ____
ROOT
ATOM      1  O   UNL     1      -3.215   0.242  -0.007  0.00  0.00    +0.000 OA
ENDROOT
BRANCH   1   6
ATOM      2  C   UNL     1       2.434   0.663  -0.150  0.00  0.00    +0.000 C 
ATOM      3  C   UNL     1       0.940   0.530  -0.121  0.00  0.00    +0.000 A 
ATOM      4  C   UNL     1       0.268   0.370   1.098  0.00  0.00    +0.000 A 
ATOM      5  C   UNL     1      -1.125   0.279   1.130  0.00  0.00    +0.000 A 
ATOM      6  C   UNL     1      -1.851   0.376  -0.055  0.00  0.00    +0.000 A 
ATOM      7  C   UNL     1      -1.195   0.530  -1.276  0.00  0.00    +0.000 A 
ATOM      8  C   UNL     1       0.198   0.620  -1.306  0.00  0.00    +0.000 A 
ENDBRANCH   1   6
BRANCH   1   9
ATOM      9  S   UNL     1      -4.053   1.676  -0.188  0.00  0.00    +0.000 S 
BRANCH   9  10
ATOM     10  C   UNL     1      -4.355   2.031   1.536  0.00  0.00    +0.000 A 
ATOM     11  C   UNL     1      -4.881   1.060   2.394  0.00  0.00    +0.000 A 
ATOM     12  C   UNL     1      -5.121   1.361   3.735  0.00  0.00    +0.000 A 
ATOM     13  C   UNL     1      -4.836   2.635   4.226  0.00  0.00    +0.000 A 
ATOM     14  C   UNL     1      -4.300   3.616   3.384  0.00  0.00    +0.000 A 
ATOM     15  C   UNL     1      -4.077   3.309   2.034  0.00  0.00    +0.000 A 
ATOM     16  C   UNL     1      -4.029   4.998   3.901  0.00  0.00    +0.000 C 
ENDBRANCH   9  10
ENDBRANCH   1   9
TORSDOF 3
