REMARK  Name = *****
REMARK  1 active torsions:
REMARK  status: ('A' for Active; 'I' for Inactive)
REMARK    1  A    between atoms: C_6  and  C_7
REMARK                            x       y       z     vdW  Elec       q    Type
REMARK                         _______ _______ _______ _____ _____    ______ ____
ROOT
ATOM      1  C   UNL     1      -0.122   1.588  -1.748  0.00  0.00    +0.000 A 
ATOM      2  C   UNL     1       0.013   0.842  -2.902  0.00  0.00    +0.000 A 
ATOM      3  C   UNL     1      -0.098   1.620  -4.102  0.00  0.00    +0.000 A 
ATOM      4  C   UNL     1      -0.020   1.232  -5.461  0.00  0.00    +0.000 A 
ATOM      5  C   UNL     1      -0.164   2.181  -6.478  0.00  0.00    +0.000 A 
ATOM      6  C   UNL     1      -0.386   3.515  -6.164  0.00  0.00    +0.000 A 
ATOM      7  C   UNL     1      -0.466   3.927  -4.832  0.00  0.00    +0.000 A 
ATOM      8  C   UNL     1      -0.320   2.967  -3.811  0.00  0.00    +0.000 A 
ATOM      9  S   UNL     1      -0.380   3.240  -2.114  0.00  0.00    +0.000 S 
ENDROOT
BRANCH   1  15
ATOM     10  C   UNL     1       2.129  -0.097  -0.085  0.00  0.00    +0.000 C 
ATOM     11  C   UNL     1       0.791  -0.072  -0.013  0.00  0.00    +0.000 C 
ATOM     12  C   UNL     1      -0.054  -1.254   0.377  0.00  0.00    +0.000 C 
ATOM     13  C   UNL     1      -1.460  -0.833  -0.027  0.00  0.00    +0.000 C 
ATOM     14  C   UNL     1      -1.462   0.677   0.178  0.00  0.00    +0.000 C 
ATOM     15  C   UNL     1      -0.078   1.141  -0.304  0.00  0.00    +0.000 C 
ENDBRANCH   1  15
TORSDOF 1
