REMARK  Name = *****
REMARK  5 active torsions:
REMARK  status: ('A' for Active; 'I' for Inactive)
REMARK    1  A    between atoms: C_1  and  C_2
REMARK    2  A    between atoms: C_5  and  C_8
REMARK    3  A    between atoms: C_8  and  C_10
REMARK    4  A    between atoms: C_10  and  S_11
REMARK    5  A    between atoms: S_11  and  C_12
REMARK                            x       y       z     vdW  Elec       q    Type
REMARK                         _______ _______ _______ _____ _____    ______ ____
ROOT
ATOM      1  C   UNL     1      -3.442  -0.123   0.165  0.00  0.00    +0.000 C 
ATOM      2  O   UNL     1      -3.934  -1.240   0.319  0.00  0.00    +0.000 OA
ENDROOT
BRANCH   1   7
ATOM      3  C   UNL     1       2.359   0.172  -0.044  0.00  0.00    +0.000 C 
ATOM      4  C   UNL     1       0.860   0.097  -0.024  0.00  0.00    +0.000 A 
ATOM      5  C   UNL     1       0.089   1.193  -0.431  0.00  0.00    +0.000 A 
ATOM      6  C   UNL     1      -1.308   1.139  -0.383  0.00  0.00    +0.000 A 
ATOM      7  C   UNL     1      -1.952  -0.011   0.089  0.00  0.00    +0.000 A 
ATOM      8  C   UNL     1      -1.180  -1.105   0.502  0.00  0.00    +0.000 A 
ATOM      9  C   UNL     1       0.215  -1.048   0.453  0.00  0.00    +0.000 A 
ENDBRANCH   1   7
BRANCH   1  10
ATOM     10  C   UNL     1      -4.256   1.153   0.017  0.00  0.00    +0.000 C 
BRANCH  10  11
ATOM     11  S   UNL     1      -5.976   0.940   0.580  0.00  0.00    +0.000 S 
BRANCH  11  12
ATOM     12  C   UNL     1      -6.634   2.524   0.097  0.00  0.00    +0.000 A 
ATOM     13  C   UNL     1      -7.613   2.585  -0.900  0.00  0.00    +0.000 A 
ATOM     14  C   UNL     1      -8.143   3.817  -1.291  0.00  0.00    +0.000 A 
ATOM     15  C   UNL     1      -7.703   4.991  -0.682  0.00  0.00    +0.000 A 
ATOM     16  C   UNL     1      -6.737   4.935   0.321  0.00  0.00    +0.000 A 
ATOM     17  C   UNL     1      -6.206   3.704   0.713  0.00  0.00    +0.000 A 
ENDBRANCH  11  12
ENDBRANCH  10  11
ENDBRANCH   1  10
TORSDOF 4
