REMARK  Name = *****
REMARK  4 active torsions:
REMARK  status: ('A' for Active; 'I' for Inactive)
REMARK    1  A    between atoms: N_2  and  C_3
REMARK    2  A    between atoms: C_3  and  C_9
REMARK    3  A    between atoms: C_9  and  C_10
REMARK    4  A    between atoms: C_11  and  C_12
REMARK                            x       y       z     vdW  Elec       q    Type
REMARK                         _______ _______ _______ _____ _____    ______ ____
ROOT
ATOM      1  C   UNL     1       4.166   0.215   1.341  0.00  0.00    +0.000 C 
ENDROOT
BRANCH   1   2
ATOM      2  C   UNL     1       3.644  -0.087  -0.091  0.00  0.00    +0.000 C 
ATOM      3  C   UNL     1       4.224   0.971  -1.059  0.00  0.00    +0.000 C 
ATOM      4  C   UNL     1       3.905   0.683  -2.526  0.00  0.00    +0.000 C 
ATOM      5  C   UNL     1       4.344  -0.718  -2.931  0.00  0.00    +0.000 C 
ATOM      6  C   UNL     1       3.736  -1.777  -2.020  0.00  0.00    +0.000 C 
ATOM      7  C   UNL     1       4.048  -1.507  -0.547  0.00  0.00    +0.000 C 
BRANCH   2   9
ATOM      8  C   UNL     1       1.032   0.124  -0.085  0.00  0.00    +0.000 C 
ATOM      9  N   UNL     1       2.201   0.026  -0.090  0.00  0.00    +0.000 NA
ENDBRANCH   2   9
ENDBRANCH   1   2
BRANCH   1  10
ATOM     10  C   UNL     1       3.705  -0.753   2.401  0.00  0.00    +0.000 C 
ATOM     11  C   UNL     1       4.533  -1.560   3.084  0.00  0.00    +0.000 C 
BRANCH  11  12
ATOM     12  C   UNL     1       4.094  -2.507   4.119  0.00  0.00    +0.000 A 
ATOM     13  C   UNL     1       2.889  -3.215   4.024  0.00  0.00    +0.000 A 
ATOM     14  C   UNL     1       2.523  -4.133   5.012  0.00  0.00    +0.000 A 
ATOM     15  C   UNL     1       3.363  -4.361   6.100  0.00  0.00    +0.000 A 
ATOM     16  C   UNL     1       4.571  -3.675   6.198  0.00  0.00    +0.000 A 
ATOM     17  C   UNL     1       4.937  -2.757   5.210  0.00  0.00    +0.000 A 
ENDBRANCH  11  12
ENDBRANCH   1  10
TORSDOF 4
