REMARK  Name = *****
REMARK  5 active torsions:
REMARK  status: ('A' for Active; 'I' for Inactive)
REMARK    1  A    between atoms: C_1  and  C_2
REMARK    2  A    between atoms: C_5  and  C_8
REMARK    3  A    between atoms: C_8  and  C_9
REMARK    4  A    between atoms: C_9  and  S_10
REMARK    5  A    between atoms: S_10  and  C_12
REMARK                            x       y       z     vdW  Elec       q    Type
REMARK                         _______ _______ _______ _____ _____    ______ ____
ROOT
ATOM      1  C   UNL     1      -3.954   1.404  -0.015  0.00  0.00    +0.000 C 
ENDROOT
BRANCH   1   2
ATOM      2  S   UNL     1      -5.771   1.305  -0.144  0.00  0.00    +0.000 S 
ATOM      3  O   UNL     1      -6.270   0.607   1.088  0.00  0.00    +0.000 OA
BRANCH   2   4
ATOM      4  C   UNL     1      -6.113   3.064   0.103  0.00  0.00    +0.000 A 
ATOM      5  C   UNL     1      -5.822   3.979  -0.916  0.00  0.00    +0.000 A 
ATOM      6  C   UNL     1      -6.090   5.338  -0.738  0.00  0.00    +0.000 A 
ATOM      7  C   UNL     1      -6.657   5.788   0.453  0.00  0.00    +0.000 A 
ATOM      8  C   UNL     1      -6.959   4.880   1.467  0.00  0.00    +0.000 A 
ATOM      9  C   UNL     1      -6.691   3.521   1.292  0.00  0.00    +0.000 A 
ENDBRANCH   2   4
ENDBRANCH   1   2
BRANCH   1  10
ATOM     10  C   UNL     1      -3.351   0.004  -0.059  0.00  0.00    +0.000 C 
BRANCH  10  15
ATOM     11  C   UNL     1       2.468   0.272  -0.031  0.00  0.00    +0.000 C 
ATOM     12  C   UNL     1       0.970   0.200  -0.028  0.00  0.00    +0.000 A 
ATOM     13  C   UNL     1       0.250   0.215   1.171  0.00  0.00    +0.000 A 
ATOM     14  C   UNL     1      -1.145   0.146   1.161  0.00  0.00    +0.000 A 
ATOM     15  C   UNL     1      -1.843   0.056  -0.049  0.00  0.00    +0.000 A 
ATOM     16  C   UNL     1      -1.122   0.047  -1.250  0.00  0.00    +0.000 A 
ATOM     17  C   UNL     1       0.272   0.116  -1.238  0.00  0.00    +0.000 A 
ENDBRANCH  10  15
ENDBRANCH   1  10
TORSDOF 4
