REMARK  Name = *****
REMARK  6 active torsions:
REMARK  status: ('A' for Active; 'I' for Inactive)
REMARK    1  A    between atoms: C_1  and  C_2
REMARK    2  A    between atoms: C_5  and  C_8
REMARK    3  A    between atoms: C_8  and  S_10
REMARK    4  A    between atoms: S_10  and  C_11
REMARK    5  A    between atoms: C_15  and  O_17
REMARK    6  A    between atoms: O_17  and  C_18
REMARK                            x       y       z     vdW  Elec       q    Type
REMARK                         _______ _______ _______ _____ _____    ______ ____
ROOT
ATOM      1  C   UNL     1      -3.456  -0.309   0.261  0.00  0.00    +0.000 C 
ATOM      2  O   UNL     1      -3.879  -1.357   0.734  0.00  0.00    +0.000 OA
ENDROOT
BRANCH   1   7
ATOM      3  C   UNL     1       2.292   0.590   0.249  0.00  0.00    +0.000 C 
ATOM      4  C   UNL     1       0.808   0.367   0.220  0.00  0.00    +0.000 A 
ATOM      5  C   UNL     1      -0.050   1.365  -0.254  0.00  0.00    +0.000 A 
ATOM      6  C   UNL     1      -1.437   1.173  -0.255  0.00  0.00    +0.000 A 
ATOM      7  C   UNL     1      -1.989  -0.021   0.228  0.00  0.00    +0.000 A 
ATOM      8  C   UNL     1      -1.125  -1.011   0.720  0.00  0.00    +0.000 A 
ATOM      9  C   UNL     1       0.260  -0.818   0.721  0.00  0.00    +0.000 A 
ENDBRANCH   1   7
BRANCH   1  10
ATOM     10  S   UNL     1      -4.564   0.868  -0.439  0.00  0.00    +0.000 S 
BRANCH  10  11
ATOM     11  C   UNL     1      -5.433   1.404   1.021  0.00  0.00    +0.000 A 
ATOM     12  C   UNL     1      -6.248   0.528   1.742  0.00  0.00    +0.000 A 
ATOM     13  C   UNL     1      -6.932   0.976   2.873  0.00  0.00    +0.000 A 
ATOM     14  C   UNL     1      -6.815   2.306   3.286  0.00  0.00    +0.000 A 
ATOM     15  C   UNL     1      -6.013   3.192   2.566  0.00  0.00    +0.000 A 
ATOM     16  C   UNL     1      -5.328   2.736   1.435  0.00  0.00    +0.000 A 
BRANCH  15  17
ATOM     17  O   UNL     1      -5.815   4.514   2.858  0.00  0.00    +0.000 OA
ATOM     18  C   UNL     1      -6.512   5.036   3.983  0.00  0.00    +0.000 C 
ENDBRANCH  15  17
ENDBRANCH  10  11
ENDBRANCH   1  10
TORSDOF 4
