REMARK  Name = *****
REMARK  5 active torsions:
REMARK  status: ('A' for Active; 'I' for Inactive)
REMARK    1  A    between atoms: C_1  and  C_2
REMARK    2  A    between atoms: C_2  and  C_3
REMARK    3  A    between atoms: C_2  and  O_9
REMARK    4  A    between atoms: O_9  and  C_10
REMARK    5  A    between atoms: C_10  and  C_12
REMARK                            x       y       z     vdW  Elec       q    Type
REMARK                         _______ _______ _______ _____ _____    ______ ____
ROOT
ATOM      1  O   UNL     1       3.047   1.176   0.750  0.00  0.00    +0.000 OA
ENDROOT
BRANCH   1   3
ATOM      2  C   UNL     1       2.723   0.550  -1.574  0.00  0.00    +0.000 C 
ATOM      3  C   UNL     1       2.479   0.182  -0.110  0.00  0.00    +0.000 C 
BRANCH   3   4
ATOM      4  C   UNL     1       0.983   0.113   0.160  0.00  0.00    +0.000 A 
ATOM      5  C   UNL     1       0.227   1.274   0.391  0.00  0.00    +0.000 A 
ATOM      6  C   UNL     1      -1.148   1.197   0.615  0.00  0.00    +0.000 A 
ATOM      7  C   UNL     1      -1.788  -0.040   0.606  0.00  0.00    +0.000 A 
ATOM      8  C   UNL     1      -1.054  -1.201   0.373  0.00  0.00    +0.000 A 
ATOM      9  C   UNL     1       0.322  -1.126   0.149  0.00  0.00    +0.000 A 
ENDBRANCH   3   4
ENDBRANCH   1   3
BRANCH   1  10
ATOM     10  C   UNL     1       4.375   1.134   1.099  0.00  0.00    +0.000 C 
ATOM     11  C   UNL     1       5.285   0.227   0.708  0.00  0.00    +0.000 C 
BRANCH  10  12
ATOM     12  C   UNL     1       4.759   2.218   2.029  0.00  0.00    +0.000 A 
ATOM     13  C   UNL     1       5.911   2.991   1.823  0.00  0.00    +0.000 A 
ATOM     14  C   UNL     1       6.249   4.019   2.709  0.00  0.00    +0.000 A 
ATOM     15  C   UNL     1       5.435   4.289   3.807  0.00  0.00    +0.000 A 
ATOM     16  C   UNL     1       4.281   3.538   4.018  0.00  0.00    +0.000 A 
ATOM     17  C   UNL     1       3.944   2.511   3.132  0.00  0.00    +0.000 A 
ENDBRANCH  10  12
ENDBRANCH   1  10
TORSDOF 4
