REMARK  Name = *****
REMARK  3 active torsions:
REMARK  status: ('A' for Active; 'I' for Inactive)
REMARK    1  A    between atoms: C_3  and  S_8
REMARK    2  A    between atoms: S_8  and  C_9
REMARK    3  A    between atoms: C_9  and  C_10
REMARK                            x       y       z     vdW  Elec       q    Type
REMARK                         _______ _______ _______ _____ _____    ______ ____
ROOT
ATOM      1  C   UNL     1       1.539   4.082  -0.052  0.00  0.00    +0.000 C 
ENDROOT
BRANCH   1   2
ATOM      2  C   UNL     1       2.248   5.413  -0.076  0.00  0.00    +0.000 A 
ATOM      3  C   UNL     1       2.608   6.010  -1.294  0.00  0.00    +0.000 A 
ATOM      4  C   UNL     1       3.279   7.232  -1.303  0.00  0.00    +0.000 A 
ATOM      5  C   UNL     1       3.608   7.880  -0.121  0.00  0.00    +0.000 A 
ATOM      6  C   UNL     1       3.261   7.286   1.083  0.00  0.00    +0.000 A 
ATOM      7  C   UNL     1       2.591   6.064   1.119  0.00  0.00    +0.000 A 
ATOM      8  F   UNL     1       3.576   7.895   2.233  0.00  0.00    +0.000 F 
ATOM      9  F   UNL     1       3.610   7.790  -2.474  0.00  0.00    +0.000 F 
ENDBRANCH   1   2
BRANCH   1  10
ATOM     10  S   UNL     1       2.734   2.707   0.010  0.00  0.00    +0.000 S 
BRANCH  10  13
ATOM     11  C   UNL     1       1.663  -1.195  -0.016  0.00  0.00    +0.000 A 
ATOM     12  C   UNL     1       2.371   0.010  -0.006  0.00  0.00    +0.000 A 
ATOM     13  C   UNL     1       1.702   1.245  -0.005  0.00  0.00    +0.000 A 
ATOM     14  C   UNL     1       0.304   1.246  -0.011  0.00  0.00    +0.000 A 
ATOM     15  C   UNL     1      -0.400   0.038  -0.021  0.00  0.00    +0.000 A 
ATOM     16  C   UNL     1       0.272  -1.181  -0.024  0.00  0.00    +0.000 A 
ATOM     17 CL   UNL     1      -2.122   0.060  -0.030  0.00  0.00    +0.000 Cl
ENDBRANCH  10  13
ENDBRANCH   1  10
TORSDOF 3
