REMARK  Name = *****
REMARK  5 active torsions:
REMARK  status: ('A' for Active; 'I' for Inactive)
REMARK    1  A    between atoms: C_4  and  N_17
REMARK    2  A    between atoms: C_5  and  C_7
REMARK    3  A    between atoms: C_8  and  C_9
REMARK    4  A    between atoms: C_11  and  N_15
REMARK    5  A    between atoms: N_15  and  O_16
REMARK                            x       y       z     vdW  Elec       q    Type
REMARK                         _______ _______ _______ _____ _____    ______ ____
ROOT
ATOM      1  C   UNL     1      -1.228   2.484   0.333  0.00  0.00    +0.000 C 
ATOM      2  C   UNL     1      -2.519   2.795   0.531  0.00  0.00    +0.000 C 
ENDROOT
BRANCH   1   7
ATOM      3  C   UNL     1      -0.722  -1.236   0.763  0.00  0.00    +0.000 A 
ATOM      4  C   UNL     1       0.148  -1.536  -0.279  0.00  0.00    +0.000 A 
ATOM      5  C   UNL     1       0.581  -0.520  -1.135  0.00  0.00    +0.000 A 
ATOM      6  C   UNL     1       0.154   0.809  -0.959  0.00  0.00    +0.000 A 
ATOM      7  C   UNL     1      -0.752   1.107   0.085  0.00  0.00    +0.000 A 
ATOM      8  C   UNL     1      -1.167   0.074   0.947  0.00  0.00    +0.000 A 
BRANCH   6   9
ATOM      9  N   UNL     1       0.572   1.798  -1.834  0.00  0.00    +0.000 NA
ATOM     10  O   UNL     1       1.791   1.774  -2.046  0.00  0.00    +0.000 OA
ENDBRANCH   6   9
ENDBRANCH   1   7
BRANCH   2  11
ATOM     11  C   UNL     1      -3.000   4.163   0.772  0.00  0.00    +0.000 A 
ATOM     12  C   UNL     1      -2.485   5.269   0.078  0.00  0.00    +0.000 A 
ATOM     13  C   UNL     1      -2.990   6.560   0.291  0.00  0.00    +0.000 A 
ATOM     14  C   UNL     1      -3.996   6.737   1.248  0.00  0.00    +0.000 A 
ATOM     15  C   UNL     1      -4.530   5.644   1.932  0.00  0.00    +0.000 A 
ATOM     16  C   UNL     1      -4.040   4.361   1.686  0.00  0.00    +0.000 A 
BRANCH  13  17
ATOM     17  N   UNL     1      -2.428   7.696  -0.338  0.00  0.00    +0.000 N 
ATOM     18  H   UNL     1      -2.626   8.599   0.001  0.00  0.00    +0.000 HD
BRANCH  17  19
ATOM     19  O   UNL     1      -1.592   7.526  -1.441  0.00  0.00    +0.000 OA
ATOM     20  H   UNL     1      -1.505   6.581  -1.639  0.00  0.00    +0.000 HD
ENDBRANCH  17  19
ENDBRANCH  13  17
ENDBRANCH   2  11
TORSDOF 5
