REMARK  Name = *****
REMARK  3 active torsions:
REMARK  status: ('A' for Active; 'I' for Inactive)
REMARK    1  A    between atoms: C_4  and  C_7
REMARK    2  A    between atoms: C_7  and  C_8
REMARK    3  A    between atoms: C_8  and  C_9
REMARK                            x       y       z     vdW  Elec       q    Type
REMARK                         _______ _______ _______ _____ _____    ______ ____
ROOT
ATOM      1  C   UNL     1      -1.285   1.670   2.730  0.00  0.00    +0.000 C 
ATOM      2 CL   UNL     1      -1.265   1.389   4.508  0.00  0.00    +0.000 Cl
ENDROOT
BRANCH   1   3
ATOM      3  C   UNL     1      -2.611   1.201   2.166  0.00  0.00    +0.000 A 
ATOM      4  C   UNL     1      -3.013  -0.143   2.238  0.00  0.00    +0.000 A 
ATOM      5  C   UNL     1      -4.228  -0.554   1.687  0.00  0.00    +0.000 A 
ATOM      6  C   UNL     1      -5.057   0.370   1.055  0.00  0.00    +0.000 A 
ATOM      7  C   UNL     1      -4.673   1.706   0.975  0.00  0.00    +0.000 A 
ATOM      8  C   UNL     1      -3.459   2.120   1.527  0.00  0.00    +0.000 A 
ENDBRANCH   1   3
BRANCH   1   9
ATOM      9  C   UNL     1      -0.057   0.990   2.100  0.00  0.00    +0.000 C 
BRANCH   9  13
ATOM     10  C   UNL     1       3.013   2.484   0.248  0.00  0.00    +0.000 C 
ATOM     11  C   UNL     1       1.910   3.357   0.828  0.00  0.00    +0.000 C 
ATOM     12  S   UNL     1       0.276   2.998   0.124  0.00  0.00    +0.000 S 
ATOM     13  C   UNL     1       0.087   1.243   0.590  0.00  0.00    +0.000 C 
ATOM     14  S   UNL     1       1.419   0.231  -0.147  0.00  0.00    +0.000 S 
ATOM     15  C   UNL     1       2.882   1.008   0.593  0.00  0.00    +0.000 C 
ENDBRANCH   9  13
ENDBRANCH   1   9
TORSDOF 3
