REMARK  Name = *****
REMARK  5 active torsions:
REMARK  status: ('A' for Active; 'I' for Inactive)
REMARK    1  A    between atoms: C_1  and  C_2
REMARK    2  A    between atoms: C_2  and  C_3
REMARK    3  A    between atoms: C_2  and  C_8
REMARK    4  A    between atoms: C_8  and  S_9
REMARK    5  A    between atoms: S_9  and  C_10
REMARK                            x       y       z     vdW  Elec       q    Type
REMARK                         _______ _______ _______ _____ _____    ______ ____
ROOT
ATOM      1  C   UNL     1       3.273  -1.037  -0.951  0.00  0.00    +0.000 C 
ENDROOT
BRANCH   1   3
ATOM      2  C   UNL     1       2.868  -0.384   1.458  0.00  0.00    +0.000 C 
ATOM      3  C   UNL     1       2.587  -0.082   0.004  0.00  0.00    +0.000 C 
BRANCH   3   4
ATOM      4  C   UNL     1       1.772   0.911  -0.407  0.00  0.00    +0.000 C 
ATOM      5  C   UNL     1       1.465   1.261  -1.787  0.00  0.00    +0.000 C 
ATOM      6  C   UNL     1       0.619   2.305  -1.758  0.00  0.00    +0.000 C 
ATOM      7  C   UNL     1       0.356   2.667  -0.381  0.00  0.00    +0.000 C 
ATOM      8  C   UNL     1       1.041   1.848   0.433  0.00  0.00    +0.000 C 
ENDBRANCH   3   4
ENDBRANCH   1   3
BRANCH   1   9
ATOM      9  S   UNL     1       4.980  -0.480  -1.272  0.00  0.00    +0.000 S 
BRANCH   9  10
ATOM     10  C   UNL     1       5.431  -1.612  -2.573  0.00  0.00    +0.000 A 
ATOM     11  C   UNL     1       5.851  -1.099  -3.804  0.00  0.00    +0.000 A 
ATOM     12  C   UNL     1       6.217  -1.961  -4.840  0.00  0.00    +0.000 A 
ATOM     13  C   UNL     1       6.173  -3.341  -4.648  0.00  0.00    +0.000 A 
ATOM     14  C   UNL     1       5.770  -3.859  -3.419  0.00  0.00    +0.000 A 
ATOM     15  C   UNL     1       5.404  -2.998  -2.382  0.00  0.00    +0.000 A 
ENDBRANCH   9  10
ENDBRANCH   1   9
TORSDOF 4
