REMARK  Name = *****
REMARK  5 active torsions:
REMARK  status: ('A' for Active; 'I' for Inactive)
REMARK    1  A    between atoms: C_1  and  C_2
REMARK    2  A    between atoms: C_3  and  C_16
REMARK    3  A    between atoms: N_4  and  C_8
REMARK    4  A    between atoms: C_6  and  C_7
REMARK    5  A    between atoms: C_9  and  C_10
REMARK                            x       y       z     vdW  Elec       q    Type
REMARK                         _______ _______ _______ _____ _____    ______ ____
ROOT
ATOM      1  C   UNL     1       2.900   2.407  -0.160  0.00  0.00    +0.000 C 
ATOM      2  C   UNL     1       3.295   0.977  -0.155  0.00  0.00    +0.000 A 
ATOM      3  C   UNL     1       4.573   0.453  -0.065  0.00  0.00    +0.000 A 
ATOM      4  N   UNL     1       4.461  -0.941  -0.097  0.00  0.00    +0.000 N 
ATOM      5  N   UNL     1       3.149  -1.293  -0.210  0.00  0.00    +0.000 NA
ATOM      6  C   UNL     1       2.458  -0.156  -0.245  0.00  0.00    +0.000 A 
ATOM      7  C   UNL     1       0.979  -0.195  -0.366  0.00  0.00    +0.000 C 
ATOM      8  C   UNL     1       5.879   1.159   0.049  0.00  0.00    +0.000 C 
ENDROOT
BRANCH   4   9
ATOM      9  C   UNL     1       5.531  -1.849  -0.023  0.00  0.00    +0.000 C 
ATOM     10  C   UNL     1       5.407  -3.188  -0.056  0.00  0.00    +0.000 C 
BRANCH  10  11
ATOM     11  C   UNL     1       6.510  -4.222   0.014  0.00  0.00    +0.000 C 
ATOM     12  C   UNL     1       6.283  -5.135   1.232  0.00  0.00    +0.000 C 
ATOM     13  C   UNL     1       7.334  -6.240   1.319  0.00  0.00    +0.000 C 
ATOM     14  C   UNL     1       8.751  -5.676   1.313  0.00  0.00    +0.000 C 
ATOM     15  C   UNL     1       8.986  -4.772   0.108  0.00  0.00    +0.000 C 
ATOM     16  C   UNL     1       7.942  -3.659   0.028  0.00  0.00    +0.000 C 
ENDBRANCH  10  11
ENDBRANCH   4   9
TORSDOF 2
