REMARK  Name = *****
REMARK  4 active torsions:
REMARK  status: ('A' for Active; 'I' for Inactive)
REMARK    1  A    between atoms: C_1  and  C_2
REMARK    2  A    between atoms: C_7  and  O_8
REMARK    3  A    between atoms: O_8  and  C_9
REMARK    4  A    between atoms: C_9  and  C_10
REMARK                            x       y       z     vdW  Elec       q    Type
REMARK                         _______ _______ _______ _____ _____    ______ ____
ROOT
ATOM      1  O   UNL     1       1.079  -2.299  -0.347  0.00  0.00    +0.000 OA
ENDROOT
BRANCH   1   8
ATOM      2  C   UNL     1       2.509  -0.023  -1.191  0.00  0.00    +0.000 C 
ATOM      3  C   UNL     1       1.168   0.071  -0.521  0.00  0.00    +0.000 A 
ATOM      4  C   UNL     1       0.572   1.320  -0.300  0.00  0.00    +0.000 A 
ATOM      5  C   UNL     1      -0.680   1.410   0.313  0.00  0.00    +0.000 A 
ATOM      6  C   UNL     1      -1.351   0.253   0.704  0.00  0.00    +0.000 A 
ATOM      7  C   UNL     1      -0.768  -0.996   0.492  0.00  0.00    +0.000 A 
ATOM      8  C   UNL     1       0.495  -1.084  -0.098  0.00  0.00    +0.000 A 
ENDBRANCH   1   8
BRANCH   1   9
ATOM      9  C   UNL     1       1.299  -3.043   0.854  0.00  0.00    +0.000 C 
BRANCH   9  10
ATOM     10  C   UNL     1       2.226  -4.190   0.526  0.00  0.00    +0.000 A 
ATOM     11  C   UNL     1       1.734  -5.327  -0.134  0.00  0.00    +0.000 A 
ATOM     12  C   UNL     1       2.588  -6.385  -0.453  0.00  0.00    +0.000 A 
ATOM     13  C   UNL     1       3.939  -6.308  -0.121  0.00  0.00    +0.000 A 
ATOM     14  C   UNL     1       4.444  -5.180   0.523  0.00  0.00    +0.000 A 
ATOM     15  C   UNL     1       3.590  -4.121   0.842  0.00  0.00    +0.000 A 
ATOM     16 CL   UNL     1       4.991  -7.612  -0.513  0.00  0.00    +0.000 Cl
ENDBRANCH   9  10
ENDBRANCH   1   9
TORSDOF 3
