REMARK  Name = *****
REMARK  5 active torsions:
REMARK  status: ('A' for Active; 'I' for Inactive)
REMARK    1  A    between atoms: C_1  and  C_2
REMARK    2  A    between atoms: C_7  and  C_8
REMARK    3  A    between atoms: N_9  and  O_10
REMARK    4  A    between atoms: O_10  and  C_11
REMARK    5  A    between atoms: C_11  and  C_12
REMARK                            x       y       z     vdW  Elec       q    Type
REMARK                         _______ _______ _______ _____ _____    ______ ____
ROOT
ATOM      1  C   UNL     1       1.143  -2.346  -0.385  0.00  0.00    +0.000 C 
ATOM      2  N   UNL     1       2.410  -2.479  -0.123  0.00  0.00    +0.000 NA
ENDROOT
BRANCH   1   9
ATOM      3  C   UNL     1      -1.535  -2.408   0.841  0.00  0.00    +0.000 C 
ATOM      4  C   UNL     1      -0.979  -1.163   0.210  0.00  0.00    +0.000 A 
ATOM      5  C   UNL     1      -1.767  -0.002   0.170  0.00  0.00    +0.000 A 
ATOM      6  C   UNL     1      -1.281   1.172  -0.409  0.00  0.00    +0.000 A 
ATOM      7  C   UNL     1      -0.005   1.202  -0.964  0.00  0.00    +0.000 A 
ATOM      8  C   UNL     1       0.789   0.056  -0.942  0.00  0.00    +0.000 A 
ATOM      9  C   UNL     1       0.312  -1.121  -0.349  0.00  0.00    +0.000 A 
ENDBRANCH   1   9
BRANCH   2  10
ATOM     10  O   UNL     1       2.987  -1.277   0.312  0.00  0.00    +0.000 OA
BRANCH  10  11
ATOM     11  C   UNL     1       4.357  -1.511   0.646  0.00  0.00    +0.000 C 
BRANCH  11  12
ATOM     12  C   UNL     1       4.990  -0.226   1.122  0.00  0.00    +0.000 A 
ATOM     13  C   UNL     1       4.338   0.591   2.058  0.00  0.00    +0.000 A 
ATOM     14  C   UNL     1       4.939   1.763   2.519  0.00  0.00    +0.000 A 
ATOM     15  C   UNL     1       6.203   2.126   2.059  0.00  0.00    +0.000 A 
ATOM     16  C   UNL     1       6.867   1.318   1.138  0.00  0.00    +0.000 A 
ATOM     17  C   UNL     1       6.266   0.145   0.675  0.00  0.00    +0.000 A 
ENDBRANCH  11  12
ENDBRANCH  10  11
ENDBRANCH   2  10
TORSDOF 4
