REMARK  Name = *****
REMARK  4 active torsions:
REMARK  status: ('A' for Active; 'I' for Inactive)
REMARK    1  A    between atoms: C_1  and  C_2
REMARK    2  A    between atoms: N_5  and  S_8
REMARK    3  A    between atoms: S_8  and  C_11
REMARK    4  A    between atoms: C_11  and  C_12
REMARK                            x       y       z     vdW  Elec       q    Type
REMARK                         _______ _______ _______ _____ _____    ______ ____
ROOT
ATOM      1  S   UNL     1       1.460  -0.025  -2.440  0.00  0.00    +0.000 S 
ATOM      2  O   UNL     1       0.179  -0.430  -2.979  0.00  0.00    +0.000 OA
ATOM      3  O   UNL     1       2.017   1.282  -2.728  0.00  0.00    +0.000 OA
ENDROOT
BRANCH   1   8
ATOM      4  C   UNL     1      -2.670   0.280   0.740  0.00  0.00    +0.000 C 
ATOM      5  C   UNL     1      -1.157   0.076   0.715  0.00  0.00    +0.000 C 
ATOM      6  C   UNL     1      -0.791  -1.207  -0.041  0.00  0.00    +0.000 C 
ATOM      7  C   UNL     1       0.720  -1.382  -0.176  0.00  0.00    +0.000 C 
ATOM      8  N   UNL     1       1.373  -0.175  -0.742  0.00  0.00    +0.000 NA
ATOM      9  C   UNL     1       1.052   1.059   0.020  0.00  0.00    +0.000 C 
ATOM     10  C   UNL     1      -0.453   1.284   0.083  0.00  0.00    +0.000 C 
ENDBRANCH   1   8
BRANCH   1  11
ATOM     11  C   UNL     1       2.701  -1.267  -2.839  0.00  0.00    +0.000 C 
BRANCH  11  12
ATOM     12  C   UNL     1       2.969  -1.246  -4.323  0.00  0.00    +0.000 A 
ATOM     13  C   UNL     1       4.004  -0.458  -4.848  0.00  0.00    +0.000 A 
ATOM     14  C   UNL     1       4.250  -0.436  -6.223  0.00  0.00    +0.000 A 
ATOM     15  C   UNL     1       3.461  -1.198  -7.081  0.00  0.00    +0.000 A 
ATOM     16  C   UNL     1       2.425  -1.981  -6.576  0.00  0.00    +0.000 A 
ATOM     17  C   UNL     1       2.179  -2.004  -5.201  0.00  0.00    +0.000 A 
ATOM     18 CL   UNL     1       3.765  -1.172  -8.774  0.00  0.00    +0.000 Cl
ENDBRANCH  11  12
ENDBRANCH   1  11
TORSDOF 3
