REMARK  Name = *****
REMARK  4 active torsions:
REMARK  status: ('A' for Active; 'I' for Inactive)
REMARK    1  A    between atoms: C_1  and  C_2
REMARK    2  A    between atoms: C_5  and  C_7
REMARK    3  A    between atoms: C_8  and  C_9
REMARK    4  A    between atoms: C_12  and  C_14
REMARK                            x       y       z     vdW  Elec       q    Type
REMARK                         _______ _______ _______ _____ _____    ______ ____
ROOT
ATOM      1  C   UNL     1       5.722  -1.806  -0.053  0.00  0.00    +0.000 C 
ATOM      2  C   UNL     1       6.667  -2.548  -0.044  0.00  0.00    +0.000 C 
ENDROOT
BRANCH   1   7
ATOM      3  C   UNL     1       0.890   0.339  -0.089  0.00  0.00    +0.000 C 
ATOM      4  C   UNL     1       2.363   0.115  -0.080  0.00  0.00    +0.000 A 
ATOM      5  C   UNL     1       3.377   1.051  -0.080  0.00  0.00    +0.000 A 
ATOM      6  C   UNL     1       4.668   0.445  -0.070  0.00  0.00    +0.000 A 
ATOM      7  C   UNL     1       4.598  -0.931  -0.064  0.00  0.00    +0.000 A 
ATOM      8  S   UNL     1       2.982  -1.482  -0.069  0.00  0.00    +0.000 S 
ENDBRANCH   1   7
BRANCH   2   9
ATOM      9  C   UNL     1       7.785  -3.432  -0.034  0.00  0.00    +0.000 A 
ATOM     10  C   UNL     1       9.104  -3.036  -0.020  0.00  0.00    +0.000 A 
ATOM     11  C   UNL     1       9.999  -4.147  -0.012  0.00  0.00    +0.000 A 
ATOM     12  C   UNL     1       9.331  -5.354  -0.019  0.00  0.00    +0.000 A 
ATOM     13  S   UNL     1       7.633  -5.133  -0.036  0.00  0.00    +0.000 S 
ATOM     14  C   UNL     1       9.899  -6.731  -0.014  0.00  0.00    +0.000 C 
ENDBRANCH   2   9
TORSDOF 2
