REMARK  Name = *****
REMARK  3 active torsions:
REMARK  status: ('A' for Active; 'I' for Inactive)
REMARK    1  A    between atoms: C_6  and  C_7
REMARK    2  A    between atoms: C_7  and  C_8
REMARK    3  A    between atoms: C_8  and  C_10
REMARK                            x       y       z     vdW  Elec       q    Type
REMARK                         _______ _______ _______ _____ _____    ______ ____
ROOT
ATOM      1  C   UNL     1       4.470   1.541   0.084  0.00  0.00    +0.000 C 
ATOM      2  O   UNL     1       4.673   2.192  -0.943  0.00  0.00    +0.000 OA
ENDROOT
BRANCH   1   3
ATOM      3  C   UNL     1       4.829   2.141   1.406  0.00  0.00    +0.000 A 
ATOM      4  C   UNL     1       4.455   1.573   2.629  0.00  0.00    +0.000 A 
ATOM      5  C   UNL     1       4.838   2.174   3.834  0.00  0.00    +0.000 A 
ATOM      6  C   UNL     1       5.590   3.348   3.819  0.00  0.00    +0.000 A 
ATOM      7  C   UNL     1       5.959   3.931   2.610  0.00  0.00    +0.000 A 
ATOM      8  C   UNL     1       5.578   3.329   1.408  0.00  0.00    +0.000 A 
ATOM      9 BR   UNL     1       6.108   4.152   5.448  0.00  0.00    +0.000 Br
ENDBRANCH   1   3
BRANCH   1  10
ATOM     10  C   UNL     1       3.873   0.146   0.015  0.00  0.00    +0.000 C 
BRANCH  10  16
ATOM     11  C   UNL     1       1.631  -0.553   0.962  0.00  0.00    +0.000 A 
ATOM     12  C   UNL     1       0.234  -0.574   0.916  0.00  0.00    +0.000 A 
ATOM     13  C   UNL     1      -0.437   0.089  -0.109  0.00  0.00    +0.000 A 
ATOM     14  C   UNL     1       0.276   0.772  -1.090  0.00  0.00    +0.000 A 
ATOM     15  C   UNL     1       1.672   0.794  -1.044  0.00  0.00    +0.000 A 
ATOM     16  C   UNL     1       2.364   0.138  -0.014  0.00  0.00    +0.000 A 
ATOM     17 CL   UNL     1      -2.156   0.055  -0.167  0.00  0.00    +0.000 Cl
ENDBRANCH  10  16
ENDBRANCH   1  10
TORSDOF 3
