REMARK  Name = *****
REMARK  2 active torsions:
REMARK  status: ('A' for Active; 'I' for Inactive)
REMARK    1  A    between atoms: C_6  and  C_11
REMARK    2  A    between atoms: C_14  and  C_16
REMARK                            x       y       z     vdW  Elec       q    Type
REMARK                         _______ _______ _______ _____ _____    ______ ____
ROOT
ATOM      1  C   UNL     1       2.386  -0.716   0.027  0.00  0.00    +0.000 A 
ATOM      2  C   UNL     1       2.406   0.674  -0.033  0.00  0.00    +0.000 A 
ATOM      3  C   UNL     1       1.208   1.388  -0.058  0.00  0.00    +0.000 A 
ATOM      4  C   UNL     1      -0.027   0.720  -0.022  0.00  0.00    +0.000 A 
ATOM      5  C   UNL     1      -1.243   1.426  -0.045  0.00  0.00    +0.000 A 
ATOM      6  C   UNL     1      -2.478   0.759  -0.007  0.00  0.00    +0.000 A 
ATOM      7  C   UNL     1      -2.481  -0.640   0.052  0.00  0.00    +0.000 A 
ATOM      8  C   UNL     1      -1.280  -1.357   0.075  0.00  0.00    +0.000 A 
ATOM      9  C   UNL     1      -0.047  -0.691   0.040  0.00  0.00    +0.000 A 
ATOM     10  C   UNL     1       1.168  -1.395   0.063  0.00  0.00    +0.000 A 
ENDROOT
BRANCH   6  11
ATOM     11  C   UNL     1      -3.714   1.531  -0.030  0.00  0.00    +0.000 A 
ATOM     12  N   UNL     1      -3.900   2.834  -0.122  0.00  0.00    +0.000 NA
ATOM     13  N   UNL     1      -5.263   3.043  -0.096  0.00  0.00    +0.000 NA
ATOM     14  C   UNL     1      -5.818   1.854   0.008  0.00  0.00    +0.000 A 
ATOM     15  O   UNL     1      -4.896   0.841   0.070  0.00  0.00    +0.000 OA
BRANCH  14  16
ATOM     16  C   UNL     1      -7.244   1.488   0.106  0.00  0.00    +0.000 C 
ATOM     17 CL   UNL     1      -7.792   0.651  -1.364  0.00  0.00    +0.000 Cl
ENDBRANCH  14  16
ENDBRANCH   6  11
TORSDOF 2
