REMARK  Name = *****
REMARK  4 active torsions:
REMARK  status: ('A' for Active; 'I' for Inactive)
REMARK    1  A    between atoms: C_1  and  C_2
REMARK    2  A    between atoms: C_5  and  S_8
REMARK    3  A    between atoms: S_8  and  S_11
REMARK    4  A    between atoms: S_11  and  C_12
REMARK                            x       y       z     vdW  Elec       q    Type
REMARK                         _______ _______ _______ _____ _____    ______ ____
ROOT
ATOM      1  S   UNL     1      -3.664   0.082   0.227  0.00  0.00    +0.000 S 
ATOM      2  O   UNL     1      -4.166  -0.909  -0.706  0.00  0.00    +0.000 OA
ATOM      3  O   UNL     1      -3.991   0.022   1.639  0.00  0.00    +0.000 OA
ENDROOT
BRANCH   1   8
ATOM      4  C   UNL     1       2.395   0.048  -0.193  0.00  0.00    +0.000 C 
ATOM      5  C   UNL     1       0.897   0.088  -0.104  0.00  0.00    +0.000 A 
ATOM      6  C   UNL     1       0.270   0.575   1.051  0.00  0.00    +0.000 A 
ATOM      7  C   UNL     1      -1.122   0.581   1.152  0.00  0.00    +0.000 A 
ATOM      8  C   UNL     1      -1.891   0.096   0.091  0.00  0.00    +0.000 A 
ATOM      9  C   UNL     1      -1.280  -0.421  -1.054  0.00  0.00    +0.000 A 
ATOM     10  C   UNL     1       0.113  -0.424  -1.148  0.00  0.00    +0.000 A 
ENDBRANCH   1   8
BRANCH   1  11
ATOM     11  S   UNL     1      -4.189   1.980  -0.486  0.00  0.00    +0.000 S 
BRANCH  11  12
ATOM     12  C   UNL     1      -5.966   1.882  -0.484  0.00  0.00    +0.000 A 
ATOM     13  C   UNL     1      -6.684   1.829   0.715  0.00  0.00    +0.000 A 
ATOM     14  C   UNL     1      -8.080   1.768   0.698  0.00  0.00    +0.000 A 
ATOM     15  C   UNL     1      -8.764   1.770  -0.516  0.00  0.00    +0.000 A 
ATOM     16  C   UNL     1      -8.055   1.833  -1.714  0.00  0.00    +0.000 A 
ATOM     17  C   UNL     1      -6.660   1.893  -1.699  0.00  0.00    +0.000 A 
ENDBRANCH  11  12
ENDBRANCH   1  11
TORSDOF 3
