REMARK  Name = *****
REMARK  6 active torsions:
REMARK  status: ('A' for Active; 'I' for Inactive)
REMARK    1  A    between atoms: C_1  and  C_2
REMARK    2  A    between atoms: C_4  and  C_18
REMARK    3  A    between atoms: C_5  and  C_8
REMARK    4  A    between atoms: C_8  and  O_10
REMARK    5  A    between atoms: O_10  and  C_11
REMARK    6  A    between atoms: C_11  and  C_12
REMARK                            x       y       z     vdW  Elec       q    Type
REMARK                         _______ _______ _______ _____ _____    ______ ____
ROOT
ATOM      1  C   UNL     1      -2.922  -1.727   0.279  0.00  0.00    +0.000 C 
ATOM      2  O   UNL     1      -3.983  -1.172   0.047  0.00  0.00    +0.000 OA
ENDROOT
BRANCH   1   7
ATOM      3  C   UNL     1       2.326   0.583  -0.628  0.00  0.00    +0.000 C 
ATOM      4  C   UNL     1       0.963  -0.006  -0.410  0.00  0.00    +0.000 A 
ATOM      5  C   UNL     1      -0.101   0.808   0.001  0.00  0.00    +0.000 A 
ATOM      6  C   UNL     1      -1.380   0.274   0.246  0.00  0.00    +0.000 A 
ATOM      7  C   UNL     1      -1.582  -1.109   0.071  0.00  0.00    +0.000 A 
ATOM      8  C   UNL     1      -0.511  -1.925  -0.333  0.00  0.00    +0.000 A 
ATOM      9  C   UNL     1       0.752  -1.378  -0.562  0.00  0.00    +0.000 A 
ATOM     10  C   UNL     1      -2.483   1.203   0.672  0.00  0.00    +0.000 C 
ENDBRANCH   1   7
BRANCH   1  11
ATOM     11  O   UNL     1      -2.762  -2.972   0.791  0.00  0.00    +0.000 OA
BRANCH  11  12
ATOM     12  C   UNL     1      -3.967  -3.715   1.008  0.00  0.00    +0.000 C 
BRANCH  12  13
ATOM     13  C   UNL     1      -4.180  -4.659  -0.147  0.00  0.00    +0.000 A 
ATOM     14  C   UNL     1      -3.543  -5.907  -0.175  0.00  0.00    +0.000 A 
ATOM     15  C   UNL     1      -3.724  -6.769  -1.257  0.00  0.00    +0.000 A 
ATOM     16  C   UNL     1      -4.535  -6.388  -2.325  0.00  0.00    +0.000 A 
ATOM     17  C   UNL     1      -5.162  -5.144  -2.314  0.00  0.00    +0.000 A 
ATOM     18  C   UNL     1      -4.982  -4.281  -1.232  0.00  0.00    +0.000 A 
ENDBRANCH  12  13
ENDBRANCH  11  12
ENDBRANCH   1  11
TORSDOF 4
