REMARK  Name = *****
REMARK  6 active torsions:
REMARK  status: ('A' for Active; 'I' for Inactive)
REMARK    1  A    between atoms: C_1  and  C_2
REMARK    2  A    between atoms: C_5  and  C_8
REMARK    3  A    between atoms: C_8  and  C_10
REMARK    4  A    between atoms: C_10  and  C_11
REMARK    5  A    between atoms: C_14  and  O_17
REMARK    6  A    between atoms: O_17  and  C_18
REMARK                            x       y       z     vdW  Elec       q    Type
REMARK                         _______ _______ _______ _____ _____    ______ ____
ROOT
ATOM      1  C   UNL     1      -3.241   0.014   0.156  0.00  0.00    +0.000 C 
ATOM      2  O   UNL     1      -3.133  -0.743  -0.810  0.00  0.00    +0.000 OA
ENDROOT
BRANCH   1   7
ATOM      3  C   UNL     1      -1.030  -1.785   5.224  0.00  0.00    +0.000 C 
ATOM      4  C   UNL     1      -1.583  -1.301   3.916  0.00  0.00    +0.000 A 
ATOM      5  C   UNL     1      -2.134  -0.019   3.812  0.00  0.00    +0.000 A 
ATOM      6  C   UNL     1      -2.677   0.429   2.603  0.00  0.00    +0.000 A 
ATOM      7  C   UNL     1      -2.683  -0.406   1.480  0.00  0.00    +0.000 A 
ATOM      8  C   UNL     1      -2.144  -1.695   1.590  0.00  0.00    +0.000 A 
ATOM      9  C   UNL     1      -1.605  -2.142   2.799  0.00  0.00    +0.000 A 
ENDBRANCH   1   7
BRANCH   1  10
ATOM     10  C   UNL     1      -3.932   1.358   0.013  0.00  0.00    +0.000 C 
BRANCH  10  11
ATOM     11  C   UNL     1      -2.995   2.540  -0.056  0.00  0.00    +0.000 A 
ATOM     12  C   UNL     1      -1.819   2.497  -0.816  0.00  0.00    +0.000 A 
ATOM     13  C   UNL     1      -0.966   3.605  -0.882  0.00  0.00    +0.000 A 
ATOM     14  C   UNL     1      -1.285   4.779  -0.202  0.00  0.00    +0.000 A 
ATOM     15  C   UNL     1      -2.471   4.837   0.532  0.00  0.00    +0.000 A 
ATOM     16  C   UNL     1      -3.323   3.732   0.602  0.00  0.00    +0.000 A 
BRANCH  14  17
ATOM     17  O   UNL     1      -0.543   5.927  -0.181  0.00  0.00    +0.000 OA
ATOM     18  C   UNL     1       0.697   5.900  -0.878  0.00  0.00    +0.000 C 
ENDBRANCH  14  17
ENDBRANCH  10  11
ENDBRANCH   1  10
TORSDOF 4
