REMARK  Name = *****
REMARK  3 active torsions:
REMARK  status: ('A' for Active; 'I' for Inactive)
REMARK    1  A    between atoms: C_1  and  C_2
REMARK    2  A    between atoms: C_4  and  C_8
REMARK    3  A    between atoms: C_9  and  C_10
REMARK                            x       y       z     vdW  Elec       q    Type
REMARK                         _______ _______ _______ _____ _____    ______ ____
ROOT
ATOM      1  C   UNL     1      -1.812   2.484   0.110  0.00  0.00    +0.000 C 
ATOM      2  C   UNL     1      -1.276   3.699  -0.090  0.00  0.00    +0.000 C 
ENDROOT
BRANCH   1   6
ATOM      3  C   UNL     1       2.294  -0.250   1.112  0.00  0.00    +0.000 C 
ATOM      4  C   UNL     1       0.937  -0.111   0.487  0.00  0.00    +0.000 A 
ATOM      5  C   UNL     1       0.235   1.100   0.573  0.00  0.00    +0.000 A 
ATOM      6  C   UNL     1      -1.045   1.233   0.015  0.00  0.00    +0.000 A 
ATOM      7  C   UNL     1      -1.634   0.122  -0.600  0.00  0.00    +0.000 A 
ATOM      8  C   UNL     1      -0.949  -1.091  -0.677  0.00  0.00    +0.000 A 
ATOM      9  C   UNL     1       0.330  -1.208  -0.134  0.00  0.00    +0.000 A 
ENDBRANCH   1   6
BRANCH   2  10
ATOM     10  C   UNL     1      -1.981   4.972  -0.013  0.00  0.00    +0.000 C 
ATOM     11  C   UNL     1      -1.294   6.122  -0.160  0.00  0.00    +0.000 C 
ATOM     12  C   UNL     1      -1.905   7.489  -0.061  0.00  0.00    +0.000 C 
ATOM     13  C   UNL     1      -3.309   7.480   0.541  0.00  0.00    +0.000 C 
ATOM     14  C   UNL     1      -4.137   6.342  -0.040  0.00  0.00    +0.000 C 
ATOM     15  C   UNL     1      -3.478   4.984   0.223  0.00  0.00    +0.000 C 
ENDBRANCH   2  10
TORSDOF 2
