REMARK  Name = *****
REMARK  3 active torsions:
REMARK  status: ('A' for Active; 'I' for Inactive)
REMARK    1  A    between atoms: C_4  and  C_7
REMARK    2  A    between atoms: C_7  and  O_9
REMARK    3  A    between atoms: O_9  and  C_10
REMARK                            x       y       z     vdW  Elec       q    Type
REMARK                         _______ _______ _______ _____ _____    ______ ____
ROOT
ATOM      1  O   UNL     1      -3.029  -1.370   0.856  0.00  0.00    +0.000 OA
ENDROOT
BRANCH   1   2
ATOM      2  C   UNL     1      -4.353  -1.437   1.302  0.00  0.00    +0.000 A 
ATOM      3  C   UNL     1      -5.390  -1.628   0.383  0.00  0.00    +0.000 A 
ATOM      4  C   UNL     1      -6.708  -1.717   0.834  0.00  0.00    +0.000 A 
ATOM      5  C   UNL     1      -6.989  -1.627   2.199  0.00  0.00    +0.000 A 
ATOM      6  C   UNL     1      -5.950  -1.458   3.117  0.00  0.00    +0.000 A 
ATOM      7  C   UNL     1      -4.630  -1.369   2.671  0.00  0.00    +0.000 A 
ATOM      8 CL   UNL     1      -3.371  -1.192   3.837  0.00  0.00    +0.000 Cl
ATOM      9 CL   UNL     1      -5.079  -1.776  -1.308  0.00  0.00    +0.000 Cl
ENDBRANCH   1   2
BRANCH   1  10
ATOM     10  C   UNL     1      -2.648  -0.071   0.580  0.00  0.00    +0.000 C 
ATOM     11  O   UNL     1      -3.340   0.932   0.685  0.00  0.00    +0.000 OA
BRANCH  10  15
ATOM     12  C   UNL     1       1.423   0.128  -0.755  0.00  0.00    +0.000 A 
ATOM     13  C   UNL     1       0.881  -1.110  -0.411  0.00  0.00    +0.000 A 
ATOM     14  C   UNL     1      -0.443  -1.198   0.026  0.00  0.00    +0.000 A 
ATOM     15  C   UNL     1      -1.232  -0.043   0.120  0.00  0.00    +0.000 A 
ATOM     16  C   UNL     1      -0.678   1.197  -0.228  0.00  0.00    +0.000 A 
ATOM     17  C   UNL     1       0.646   1.281  -0.665  0.00  0.00    +0.000 A 
ENDBRANCH  10  15
ENDBRANCH   1  10
TORSDOF 3
