REMARK  Name = *****
REMARK  3 active torsions:
REMARK  status: ('A' for Active; 'I' for Inactive)
REMARK    1  A    between atoms: C_4  and  C_7
REMARK    2  A    between atoms: C_7  and  O_8
REMARK    3  A    between atoms: O_8  and  C_9
REMARK                            x       y       z     vdW  Elec       q    Type
REMARK                         _______ _______ _______ _____ _____    ______ ____
ROOT
ATOM      1  C   UNL     1      -4.894  -0.799  -0.544  0.00  0.00    +0.000 C 
ATOM      2  C   UNL     1      -5.610  -1.669   0.188  0.00  0.00    +0.000 C 
ATOM      3  C   UNL     1      -7.109  -1.715   0.159  0.00  0.00    +0.000 C 
ATOM      4  C   UNL     1      -7.738  -0.465  -0.469  0.00  0.00    +0.000 C 
ATOM      5  C   UNL     1      -7.032  -0.162  -1.773  0.00  0.00    +0.000 C 
ATOM      6  C   UNL     1      -5.567   0.191  -1.485  0.00  0.00    +0.000 C 
ATOM      7  F   UNL     1      -4.881   0.293  -2.657  0.00  0.00    +0.000 F 
ATOM      8  F   UNL     1      -5.502   1.430  -0.915  0.00  0.00    +0.000 F 
ATOM      9  F   UNL     1      -7.110  -1.232  -2.614  0.00  0.00    +0.000 F 
ATOM     10  F   UNL     1      -7.640   0.868  -2.427  0.00  0.00    +0.000 F 
ATOM     11  F   UNL     1      -7.633   0.598   0.379  0.00  0.00    +0.000 F 
ATOM     12  F   UNL     1      -9.072  -0.654  -0.665  0.00  0.00    +0.000 F 
ATOM     13  F   UNL     1      -7.592  -1.901   1.416  0.00  0.00    +0.000 F 
ATOM     14  F   UNL     1      -7.479  -2.819  -0.546  0.00  0.00    +0.000 F 
ENDROOT
BRANCH   1  15
ATOM     15  O   UNL     1      -3.511  -0.859  -0.469  0.00  0.00    +0.000 OA
BRANCH  15  16
ATOM     16  C   UNL     1      -2.841   0.409  -0.474  0.00  0.00    +0.000 C 
BRANCH  16  20
ATOM     17  C   UNL     1       1.327  -0.170   0.488  0.00  0.00    +0.000 A 
ATOM     18  C   UNL     1       0.737  -0.912  -0.533  0.00  0.00    +0.000 A 
ATOM     19  C   UNL     1      -0.612  -0.730  -0.840  0.00  0.00    +0.000 A 
ATOM     20  C   UNL     1      -1.389   0.194  -0.124  0.00  0.00    +0.000 A 
ATOM     21  C   UNL     1      -0.781   0.941   0.896  0.00  0.00    +0.000 A 
ATOM     22  C   UNL     1       0.569   0.757   1.201  0.00  0.00    +0.000 A 
ENDBRANCH  16  20
ENDBRANCH  15  16
ENDBRANCH   1  15
TORSDOF 3
