REMARK  Name = *****
REMARK  3 active torsions:
REMARK  status: ('A' for Active; 'I' for Inactive)
REMARK    1  A    between atoms: C_4  and  C_8
REMARK    2  A    between atoms: C_8  and  O_9
REMARK    3  A    between atoms: O_9  and  C_10
REMARK                            x       y       z     vdW  Elec       q    Type
REMARK                         _______ _______ _______ _____ _____    ______ ____
ROOT
ATOM      1  C   UNL     1       2.566   1.211   0.079  0.00  0.00    +0.000 C 
ENDROOT
BRANCH   1   5
ATOM      2  C   UNL     1      -0.091  -0.003   1.346  0.00  0.00    +0.000 C 
ATOM      3  C   UNL     1      -0.152  -1.122   0.303  0.00  0.00    +0.000 C 
ATOM      4  C   UNL     1       1.167  -0.883  -0.465  0.00  0.00    +0.000 C 
ATOM      5  C   UNL     1       1.261   0.678  -0.514  0.00  0.00    +0.000 C 
ATOM      6  C   UNL     1       0.011   1.108   0.295  0.00  0.00    +0.000 C 
ATOM      7  C   UNL     1      -1.202   0.744  -0.534  0.00  0.00    +0.000 C 
ATOM      8  C   UNL     1      -1.293  -0.595  -0.537  0.00  0.00    +0.000 C 
ENDBRANCH   1   5
BRANCH   1   9
ATOM      9  O   UNL     1       3.644   0.768  -0.746  0.00  0.00    +0.000 OA
BRANCH   9  10
ATOM     10  C   UNL     1       4.908   1.131  -0.370  0.00  0.00    +0.000 A 
ATOM     11  C   UNL     1       5.243   1.934   0.721  0.00  0.00    +0.000 A 
ATOM     12  C   UNL     1       6.584   2.227   0.992  0.00  0.00    +0.000 A 
ATOM     13  C   UNL     1       7.593   1.721   0.174  0.00  0.00    +0.000 A 
ATOM     14  C   UNL     1       7.264   0.920  -0.916  0.00  0.00    +0.000 A 
ATOM     15  C   UNL     1       5.926   0.628  -1.185  0.00  0.00    +0.000 A 
ENDBRANCH   9  10
ENDBRANCH   1   9
TORSDOF 3
