REMARK  Name = *****
REMARK  7 active torsions:
REMARK  status: ('A' for Active; 'I' for Inactive)
REMARK    1  A    between atoms: C_1  and  C_2
REMARK    2  A    between atoms: C_5  and  S_8
REMARK    3  A    between atoms: S_8  and  C_9
REMARK    4  A    between atoms: C_9  and  C_10
REMARK    5  A    between atoms: C_10  and  C_18
REMARK    6  A    between atoms: C_14  and  O_16
REMARK    7  A    between atoms: O_16  and  C_17
REMARK                            x       y       z     vdW  Elec       q    Type
REMARK                         _______ _______ _______ _____ _____    ______ ____
ROOT
ATOM      1  C   UNL     1      -3.893   1.679  -0.019  0.00  0.00    +0.000 C 
ENDROOT
BRANCH   1   2
ATOM      2  C   UNL     1      -5.414   1.754  -0.334  0.00  0.00    +0.000 C 
ATOM      3  C   UNL     1      -5.859   3.225  -0.562  0.00  0.00    +0.000 C 
ATOM      4  C   UNL     1      -7.134   3.375  -1.344  0.00  0.00    +0.000 C 
ATOM      5  C   UNL     1      -7.697   2.378  -2.044  0.00  0.00    +0.000 C 
ATOM      6  C   UNL     1      -7.114   0.996  -2.136  0.00  0.00    +0.000 C 
ATOM      7  C   UNL     1      -5.658   0.956  -1.643  0.00  0.00    +0.000 C 
ATOM      8  C   UNL     1      -6.227   1.120   0.818  0.00  0.00    +0.000 C 
BRANCH   6   9
ATOM      9  O   UNL     1      -7.106   0.578  -3.504  0.00  0.00    +0.000 OA
ATOM     10  C   UNL     1      -8.285  -0.122  -3.879  0.00  0.00    +0.000 C 
ENDBRANCH   6   9
ENDBRANCH   1   2
BRANCH   1  11
ATOM     11  S   UNL     1      -3.355   2.620   1.460  0.00  0.00    +0.000 S 
BRANCH  11  16
ATOM     12  C   UNL     1       2.710   2.249   0.948  0.00  0.00    +0.000 C 
ATOM     13  C   UNL     1       1.215   2.330   1.042  0.00  0.00    +0.000 A 
ATOM     14  C   UNL     1       0.444   1.165   1.112  0.00  0.00    +0.000 A 
ATOM     15  C   UNL     1      -0.947   1.240   1.235  0.00  0.00    +0.000 A 
ATOM     16  C   UNL     1      -1.585   2.482   1.291  0.00  0.00    +0.000 A 
ATOM     17  C   UNL     1      -0.814   3.646   1.252  0.00  0.00    +0.000 A 
ATOM     18  C   UNL     1       0.576   3.572   1.129  0.00  0.00    +0.000 A 
ENDBRANCH  11  16
ENDBRANCH   1  11
TORSDOF 4
