REMARK  Name = *****
REMARK  5 active torsions:
REMARK  status: ('A' for Active; 'I' for Inactive)
REMARK    1  A    between atoms: C_1  and  C_2
REMARK    2  A    between atoms: C_5  and  C_8
REMARK    3  A    between atoms: N_10  and  C_11
REMARK    4  A    between atoms: N_10  and  C_12
REMARK    5  A    between atoms: C_16  and  C_18
REMARK                            x       y       z     vdW  Elec       q    Type
REMARK                         _______ _______ _______ _____ _____    ______ ____
ROOT
ATOM      1  C   UNL     1      -3.241  -0.086   0.056  0.00  0.00    +0.000 C 
ATOM      2  O   UNL     1      -3.668  -1.182   0.412  0.00  0.00    +0.000 OA
ATOM      3  N   UNL     1      -3.991   0.943  -0.546  0.00  0.00    +0.000 N 
ATOM      4  C   UNL     1      -3.343   1.880  -1.467  0.00  0.00    +0.000 C 
ENDROOT
BRANCH   1   9
ATOM      5  C   UNL     1       2.404   0.755   1.005  0.00  0.00    +0.000 C 
ATOM      6  C   UNL     1       0.937   0.529   0.782  0.00  0.00    +0.000 A 
ATOM      7  C   UNL     1       0.491  -0.617   0.109  0.00  0.00    +0.000 A 
ATOM      8  C   UNL     1      -0.872  -0.815  -0.123  0.00  0.00    +0.000 A 
ATOM      9  C   UNL     1      -1.794   0.149   0.293  0.00  0.00    +0.000 A 
ATOM     10  C   UNL     1      -1.361   1.292   0.974  0.00  0.00    +0.000 A 
ATOM     11  C   UNL     1       0.002   1.485   1.205  0.00  0.00    +0.000 A 
ENDBRANCH   1   9
BRANCH   3  12
ATOM     12  C   UNL     1      -5.430   1.023  -0.406  0.00  0.00    +0.000 A 
ATOM     13  C   UNL     1      -6.124   0.263   0.547  0.00  0.00    +0.000 A 
ATOM     14  C   UNL     1      -7.513   0.355   0.690  0.00  0.00    +0.000 A 
ATOM     15  C   UNL     1      -8.246   1.225  -0.108  0.00  0.00    +0.000 A 
ATOM     16  C   UNL     1      -7.590   2.025  -1.043  0.00  0.00    +0.000 A 
ATOM     17  C   UNL     1      -6.194   1.913  -1.187  0.00  0.00    +0.000 A 
ATOM     18  C   UNL     1      -8.370   2.948  -1.933  0.00  0.00    +0.000 C 
ENDBRANCH   3  12
TORSDOF 2
