REMARK  Name = *****
REMARK  2 active torsions:
REMARK  status: ('A' for Active; 'I' for Inactive)
REMARK    1  A    between atoms: C_5  and  C_7
REMARK    2  A    between atoms: C_8  and  C_9
REMARK                            x       y       z     vdW  Elec       q    Type
REMARK                         _______ _______ _______ _____ _____    ______ ____
ROOT
ATOM      1  C   UNL     1       4.928   2.514   0.029  0.00  0.00    +0.000 C 
ATOM      2  C   UNL     1       6.134   2.728   0.580  0.00  0.00    +0.000 C 
ENDROOT
BRANCH   1   7
ATOM      3  C   UNL     1       2.080   0.069   0.300  0.00  0.00    +0.000 A 
ATOM      4  C   UNL     1       2.738  -1.156   0.210  0.00  0.00    +0.000 A 
ATOM      5  C   UNL     1       4.123  -1.191   0.061  0.00  0.00    +0.000 A 
ATOM      6  C   UNL     1       4.851   0.000   0.008  0.00  0.00    +0.000 A 
ATOM      7  C   UNL     1       4.203   1.238   0.113  0.00  0.00    +0.000 A 
ATOM      8  C   UNL     1       2.809   1.260   0.245  0.00  0.00    +0.000 A 
ENDBRANCH   1   7
BRANCH   2   9
ATOM      9  C   UNL     1       6.860   4.003   0.496  0.00  0.00    +0.000 A 
ATOM     10  C   UNL     1       6.212   5.242   0.593  0.00  0.00    +0.000 A 
ATOM     11  C   UNL     1       6.942   6.432   0.540  0.00  0.00    +0.000 A 
ATOM     12  C   UNL     1       8.328   6.397   0.400  0.00  0.00    +0.000 A 
ATOM     13  C   UNL     1       8.985   5.171   0.318  0.00  0.00    +0.000 A 
ATOM     14  C   UNL     1       8.255   3.981   0.371  0.00  0.00    +0.000 A 
ENDBRANCH   2   9
TORSDOF 2
