REMARK  Name = *****
REMARK  2 active torsions:
REMARK  status: ('A' for Active; 'I' for Inactive)
REMARK    1  A    between atoms: C_1  and  C_2
REMARK    2  A    between atoms: C_5  and  C_8
REMARK                            x       y       z     vdW  Elec       q    Type
REMARK                         _______ _______ _______ _____ _____    ______ ____
ROOT
ATOM      1  C   UNL     1      -2.580   2.121  -0.192  0.00  0.00    +0.000 C 
ATOM      2  C   UNL     1      -3.704   2.018  -0.912  0.00  0.00    +0.000 C 
ATOM      3  C   UNL     1      -4.946   2.828  -0.738  0.00  0.00    +0.000 C 
ATOM      4  C   UNL     1      -4.848   4.042   0.147  0.00  0.00    +0.000 A 
ATOM      5  C   UNL     1      -5.922   4.954   0.137  0.00  0.00    +0.000 A 
ATOM      6  C   UNL     1      -5.908   6.090   0.944  0.00  0.00    +0.000 A 
ATOM      7  C   UNL     1      -4.823   6.329   1.779  0.00  0.00    +0.000 A 
ATOM      8  C   UNL     1      -3.758   5.428   1.805  0.00  0.00    +0.000 A 
ATOM      9  C   UNL     1      -3.759   4.281   0.995  0.00  0.00    +0.000 A 
ATOM     10  S   UNL     1      -2.348   3.203   1.126  0.00  0.00    +0.000 S 
ENDROOT
BRANCH   1  15
ATOM     11  C   UNL     1       1.875  -1.357  -1.426  0.00  0.00    +0.000 C 
ATOM     12  C   UNL     1       0.706  -0.466  -1.126  0.00  0.00    +0.000 A 
ATOM     13  C   UNL     1       0.576   0.774  -1.762  0.00  0.00    +0.000 A 
ATOM     14  C   UNL     1      -0.494   1.618  -1.456  0.00  0.00    +0.000 A 
ATOM     15  C   UNL     1      -1.442   1.241  -0.496  0.00  0.00    +0.000 A 
ATOM     16  C   UNL     1      -1.307   0.005   0.148  0.00  0.00    +0.000 A 
ATOM     17  C   UNL     1      -0.236  -0.839  -0.160  0.00  0.00    +0.000 A 
ENDBRANCH   1  15
TORSDOF 1
