REMARK  Name = *****
REMARK  3 active torsions:
REMARK  status: ('A' for Active; 'I' for Inactive)
REMARK    1  A    between atoms: C_1  and  C_2
REMARK    2  A    between atoms: C_3  and  N_9
REMARK    3  A    between atoms: C_10  and  C_11
REMARK                            x       y       z     vdW  Elec       q    Type
REMARK                         _______ _______ _______ _____ _____    ______ ____
ROOT
ATOM      1  C   UNL     1       3.446  -0.231  -1.136  0.00  0.00    +0.000 C 
ATOM      2  C   UNL     1       2.075  -0.153  -0.524  0.00  0.00    +0.000 A 
ATOM      3  C   UNL     1       1.508   1.090  -0.187  0.00  0.00    +0.000 A 
ATOM      4  C   UNL     1       0.221   1.141   0.358  0.00  0.00    +0.000 A 
ATOM      5  C   UNL     1      -0.484  -0.035   0.598  0.00  0.00    +0.000 A 
ATOM      6  C   UNL     1       0.079  -1.271   0.292  0.00  0.00    +0.000 A 
ATOM      7  C   UNL     1       1.355  -1.331  -0.269  0.00  0.00    +0.000 A 
ATOM      8 CL   UNL     1      -2.062   0.038   1.281  0.00  0.00    +0.000 Cl
ENDROOT
BRANCH   3   9
ATOM      9  N   UNL     1       2.196   2.291  -0.428  0.00  0.00    +0.000 NA
ATOM     10  C   UNL     1       2.907   2.745   0.556  0.00  0.00    +0.000 C 
BRANCH  10  11
ATOM     11  C   UNL     1       3.685   3.994   0.448  0.00  0.00    +0.000 A 
ATOM     12  C   UNL     1       3.668   4.749  -0.727  0.00  0.00    +0.000 A 
ATOM     13  C   UNL     1       4.412   5.927  -0.805  0.00  0.00    +0.000 A 
ATOM     14  C   UNL     1       5.171   6.346   0.288  0.00  0.00    +0.000 A 
ATOM     15  C   UNL     1       5.187   5.591   1.461  0.00  0.00    +0.000 A 
ATOM     16  C   UNL     1       4.444   4.412   1.545  0.00  0.00    +0.000 A 
ENDBRANCH  10  11
ENDBRANCH   3   9
TORSDOF 2
