REMARK  Name = *****
REMARK  4 active torsions:
REMARK  status: ('A' for Active; 'I' for Inactive)
REMARK    1  A    between atoms: C_1  and  C_2
REMARK    2  A    between atoms: C_4  and  O_8
REMARK    3  A    between atoms: O_8  and  C_9
REMARK    4  A    between atoms: C_9  and  C_11
REMARK                            x       y       z     vdW  Elec       q    Type
REMARK                         _______ _______ _______ _____ _____    ______ ____
ROOT
ATOM      1  C   UNL     1      -2.308   4.635   0.797  0.00  0.00    +0.000 A 
ATOM      2  C   UNL     1      -1.685   5.879   0.783  0.00  0.00    +0.000 A 
ATOM      3  C   UNL     1      -2.437   7.029   0.568  0.00  0.00    +0.000 A 
ATOM      4  C   UNL     1      -3.810   6.939   0.373  0.00  0.00    +0.000 A 
ATOM      5  C   UNL     1      -4.433   5.697   0.394  0.00  0.00    +0.000 A 
ATOM      6  C   UNL     1      -3.685   4.544   0.607  0.00  0.00    +0.000 A 
ATOM      7  F   UNL     1      -4.303   3.356   0.644  0.00  0.00    +0.000 F 
ATOM      8  F   UNL     1      -5.757   5.609   0.211  0.00  0.00    +0.000 F 
ATOM      9  F   UNL     1      -4.532   8.048   0.165  0.00  0.00    +0.000 F 
ATOM     10  F   UNL     1      -1.835   8.226   0.541  0.00  0.00    +0.000 F 
ATOM     11  F   UNL     1      -0.359   5.983   0.946  0.00  0.00    +0.000 F 
ENDROOT
BRANCH   1  12
ATOM     12  C   UNL     1      -1.512   3.436   1.051  0.00  0.00    +0.000 C 
ATOM     13  O   UNL     1      -0.791   3.312   2.025  0.00  0.00    +0.000 OA
BRANCH  12  14
ATOM     14  O   UNL     1      -1.717   2.571  -0.003  0.00  0.00    +0.000 OA
BRANCH  14  18
ATOM     15  C   UNL     1       2.535   0.022   0.066  0.00  0.00    +0.000 C 
ATOM     16  C   UNL     1       1.037   0.091   0.085  0.00  0.00    +0.000 A 
ATOM     17  C   UNL     1       0.376   1.325   0.055  0.00  0.00    +0.000 A 
ATOM     18  C   UNL     1      -1.019   1.360   0.076  0.00  0.00    +0.000 A 
ATOM     19  C   UNL     1      -1.771   0.188   0.078  0.00  0.00    +0.000 A 
ATOM     20  C   UNL     1      -1.116  -1.041   0.095  0.00  0.00    +0.000 A 
ATOM     21  C   UNL     1       0.280  -1.090   0.099  0.00  0.00    +0.000 A 
ENDBRANCH  14  18
ENDBRANCH  12  14
ENDBRANCH   1  12
TORSDOF 3
