REMARK  Name = *****
REMARK  4 active torsions:
REMARK  status: ('A' for Active; 'I' for Inactive)
REMARK    1  A    between atoms: C_1  and  O_2
REMARK    2  A    between atoms: O_2  and  C_3
REMARK    3  A    between atoms: C_7  and  C_9
REMARK    4  A    between atoms: C_10  and  C_11
REMARK                            x       y       z     vdW  Elec       q    Type
REMARK                         _______ _______ _______ _____ _____    ______ ____
ROOT
ATOM      1  C   UNL     1       3.310   1.243  -0.367  0.00  0.00    +0.000 A 
ATOM      2  C   UNL     1       2.546   2.366  -0.682  0.00  0.00    +0.000 A 
ATOM      3  C   UNL     1       2.981   3.253  -1.669  0.00  0.00    +0.000 A 
ATOM      4  C   UNL     1       4.184   3.025  -2.340  0.00  0.00    +0.000 A 
ATOM      5  C   UNL     1       4.971   1.912  -2.024  0.00  0.00    +0.000 A 
ATOM      6  C   UNL     1       4.514   1.021  -1.044  0.00  0.00    +0.000 A 
ENDROOT
BRANCH   1   8
ATOM      7  C   UNL     1       1.790   0.480   1.295  0.00  0.00    +0.000 C 
ATOM      8  O   UNL     1       2.998   0.294   0.568  0.00  0.00    +0.000 OA
ENDBRANCH   1   8
BRANCH   5   9
ATOM      9  C   UNL     1       6.228   1.613  -2.727  0.00  0.00    +0.000 C 
ATOM     10  C   UNL     1       7.127   2.546  -3.080  0.00  0.00    +0.000 C 
BRANCH  10  11
ATOM     11  C   UNL     1       8.388   2.305  -3.773  0.00  0.00    +0.000 C 
ATOM     12  C   UNL     1       9.151   3.351  -4.144  0.00  0.00    +0.000 C 
ATOM     13  C   UNL     1      10.446   3.226  -4.894  0.00  0.00    +0.000 C 
ATOM     14  C   UNL     1      10.670   1.835  -5.483  0.00  0.00    +0.000 C 
ATOM     15  C   UNL     1      10.291   0.755  -4.479  0.00  0.00    +0.000 C 
ATOM     16  C   UNL     1       8.824   0.882  -4.055  0.00  0.00    +0.000 C 
ENDBRANCH  10  11
ENDBRANCH   5   9
TORSDOF 3
