REMARK  Name = *****
REMARK  5 active torsions:
REMARK  status: ('A' for Active; 'I' for Inactive)
REMARK    1  A    between atoms: C_1  and  C_2
REMARK    2  A    between atoms: C_5  and  N_8
REMARK    3  A    between atoms: N_8  and  O_9
REMARK    4  A    between atoms: O_9  and  C_10
REMARK    5  A    between atoms: C_10  and  C_12
REMARK                            x       y       z     vdW  Elec       q    Type
REMARK                         _______ _______ _______ _____ _____    ______ ____
ROOT
ATOM      1  N   UNL     1      -3.330   0.068   0.035  0.00  0.00    +0.000 N 
ATOM      2  H   UNL     1      -3.822  -0.767   0.207  0.00  0.00    +0.000 HD
ENDROOT
BRANCH   1   7
ATOM      3  C   UNL     1       2.400  -0.079  -0.091  0.00  0.00    +0.000 C 
ATOM      4  C   UNL     1       0.901  -0.022  -0.065  0.00  0.00    +0.000 A 
ATOM      5  C   UNL     1       0.229   1.184   0.151  0.00  0.00    +0.000 A 
ATOM      6  C   UNL     1      -1.170   1.222   0.170  0.00  0.00    +0.000 A 
ATOM      7  C   UNL     1      -1.923   0.065  -0.052  0.00  0.00    +0.000 A 
ATOM      8  C   UNL     1      -1.244  -1.146  -0.232  0.00  0.00    +0.000 A 
ATOM      9  C   UNL     1       0.153  -1.189  -0.253  0.00  0.00    +0.000 A 
ENDBRANCH   1   7
BRANCH   1  10
ATOM     10  O   UNL     1      -4.021   1.283  -0.129  0.00  0.00    +0.000 OA
BRANCH  10  11
ATOM     11  C   UNL     1      -5.158   1.129  -0.871  0.00  0.00    +0.000 C 
ATOM     12  O   UNL     1      -5.532   0.073  -1.365  0.00  0.00    +0.000 OA
BRANCH  11  13
ATOM     13  C   UNL     1      -5.882   2.421  -1.009  0.00  0.00    +0.000 A 
ATOM     14  C   UNL     1      -7.078   2.430  -1.741  0.00  0.00    +0.000 A 
ATOM     15  C   UNL     1      -7.796   3.616  -1.900  0.00  0.00    +0.000 A 
ATOM     16  C   UNL     1      -7.324   4.799  -1.332  0.00  0.00    +0.000 A 
ATOM     17  C   UNL     1      -6.136   4.798  -0.603  0.00  0.00    +0.000 A 
ATOM     18  C   UNL     1      -5.413   3.613  -0.439  0.00  0.00    +0.000 A 
ENDBRANCH  11  13
ENDBRANCH  10  11
ENDBRANCH   1  10
TORSDOF 4
