REMARK  Name = *****
REMARK  6 active torsions:
REMARK  status: ('A' for Active; 'I' for Inactive)
REMARK    1  A    between atoms: C_1  and  N_2
REMARK    2  A    between atoms: N_2  and  C_3
REMARK    3  A    between atoms: N_2  and  C_4
REMARK    4  A    between atoms: C_7  and  C_10
REMARK    5  A    between atoms: C_10  and  C_11
REMARK    6  A    between atoms: C_11  and  C_12
REMARK                            x       y       z     vdW  Elec       q    Type
REMARK                         _______ _______ _______ _____ _____    ______ ____
ROOT
ATOM      1  C   UNL     1       5.064  -3.310  -4.053  0.00  0.00    +0.000 C 
ENDROOT
BRANCH   1   5
ATOM      2  C   UNL     1       3.153  -0.926  -0.925  0.00  0.00    +0.000 A 
ATOM      3  C   UNL     1       2.451  -1.378  -2.057  0.00  0.00    +0.000 A 
ATOM      4  C   UNL     1       3.058  -2.145  -3.062  0.00  0.00    +0.000 A 
ATOM      5  C   UNL     1       4.401  -2.505  -2.966  0.00  0.00    +0.000 A 
ATOM      6  C   UNL     1       5.121  -2.080  -1.850  0.00  0.00    +0.000 A 
ATOM      7  C   UNL     1       4.502  -1.314  -0.850  0.00  0.00    +0.000 A 
BRANCH   2   9
ATOM      8  C   UNL     1       1.289   0.526  -0.233  0.00  0.00    +0.000 C 
ATOM      9  N   UNL     1       2.533  -0.175   0.082  0.00  0.00    +0.000 N 
ATOM     10  C   UNL     1       3.354   0.434   1.126  0.00  0.00    +0.000 C 
ENDBRANCH   2   9
ENDBRANCH   1   5
BRANCH   1  11
ATOM     11  C   UNL     1       5.631  -2.411  -5.155  0.00  0.00    +0.000 C 
BRANCH  11  12
ATOM     12  C   UNL     1       6.297  -3.214  -6.237  0.00  0.00    +0.000 A 
ATOM     13  C   UNL     1       5.569  -3.704  -7.322  0.00  0.00    +0.000 A 
ATOM     14  C   UNL     1       6.175  -4.466  -8.321  0.00  0.00    +0.000 A 
ATOM     15  C   UNL     1       7.536  -4.756  -8.242  0.00  0.00    +0.000 A 
ATOM     16  C   UNL     1       8.279  -4.284  -7.160  0.00  0.00    +0.000 A 
ATOM     17  C   UNL     1       7.656  -3.525  -6.171  0.00  0.00    +0.000 A 
ATOM     18  F   UNL     1       8.389  -3.094  -5.134  0.00  0.00    +0.000 F 
ATOM     19  F   UNL     1       4.257  -3.448  -7.414  0.00  0.00    +0.000 F 
ENDBRANCH  11  12
ENDBRANCH   1  11
TORSDOF 4
