REMARK  Name = *****
REMARK  4 active torsions:
REMARK  status: ('A' for Active; 'I' for Inactive)
REMARK    1  A    between atoms: C_4  and  C_7
REMARK    2  A    between atoms: C_7  and  C_8
REMARK    3  A    between atoms: C_7  and  C_10
REMARK    4  A    between atoms: C_8  and  S_9
REMARK                            x       y       z     vdW  Elec       q    Type
REMARK                         _______ _______ _______ _____ _____    ______ ____
ROOT
ATOM      1  C   UNL     1      -2.901   0.204  -0.173  0.00  0.00    +0.000 C 
ENDROOT
BRANCH   1   2
ATOM      2  C   UNL     1      -3.722  -1.060  -0.127  0.00  0.00    +0.000 A 
ATOM      3  N   UNL     1      -4.855  -1.265   0.522  0.00  0.00    +0.000 NA
ATOM      4  C   UNL     1      -5.170  -2.567   0.219  0.00  0.00    +0.000 A 
ATOM      5  C   UNL     1      -6.255  -3.366   0.601  0.00  0.00    +0.000 A 
ATOM      6  C   UNL     1      -6.304  -4.686   0.124  0.00  0.00    +0.000 A 
ATOM      7  C   UNL     1      -5.299  -5.192  -0.710  0.00  0.00    +0.000 A 
ATOM      8  C   UNL     1      -4.209  -4.404  -1.101  0.00  0.00    +0.000 A 
ATOM      9  C   UNL     1      -4.199  -3.106  -0.608  0.00  0.00    +0.000 A 
ATOM     10  O   UNL     1      -3.262  -2.143  -0.835  0.00  0.00    +0.000 OA
ENDBRANCH   1   2
BRANCH   1  14
ATOM     11  C   UNL     1       1.320  -0.285   0.817  0.00  0.00    +0.000 A 
ATOM     12  C   UNL     1       0.926   0.718  -0.061  0.00  0.00    +0.000 A 
ATOM     13  C   UNL     1      -0.424   0.876  -0.390  0.00  0.00    +0.000 A 
ATOM     14  C   UNL     1      -1.408   0.019   0.134  0.00  0.00    +0.000 A 
ATOM     15  C   UNL     1      -0.986  -0.965   1.049  0.00  0.00    +0.000 A 
ATOM     16  C   UNL     1       0.363  -1.123   1.378  0.00  0.00    +0.000 A 
ENDBRANCH   1  14
BRANCH   1  17
ATOM     17  C   UNL     1      -3.273   1.010  -1.442  0.00  0.00    +0.000 C 
BRANCH  17  18
ATOM     18  S   UNL     1      -2.791   0.284  -3.053  0.00  0.00    +0.000 S 
ATOM     19  H   UNL     1      -1.435   0.212  -3.130  0.00  0.00    +0.000 HD
ENDBRANCH  17  18
ENDBRANCH   1  17
TORSDOF 4
