REMARK  Name = *****
REMARK  5 active torsions:
REMARK  status: ('A' for Active; 'I' for Inactive)
REMARK    1  A    between atoms: C_1  and  C_2
REMARK    2  A    between atoms: C_2  and  C_4
REMARK    3  A    between atoms: C_4  and  S_10
REMARK    4  A    between atoms: S_10  and  C_11
REMARK    5  A    between atoms: C_11  and  C_12
REMARK                            x       y       z     vdW  Elec       q    Type
REMARK                         _______ _______ _______ _____ _____    ______ ____
ROOT
ATOM      1  C   UNL     1       3.409  -0.005  -1.362  0.00  0.00    +0.000 C 
ATOM      2  C   UNL     1       4.359  -1.226  -1.415  0.00  0.00    +0.000 C 
ATOM      3  C   UNL     1       5.352  -1.203  -2.581  0.00  0.00    +0.000 C 
ATOM      4  C   UNL     1       6.142   0.098  -2.631  0.00  0.00    +0.000 C 
ATOM      5  C   UNL     1       5.225   1.314  -2.636  0.00  0.00    +0.000 C 
ATOM      6  C   UNL     1       4.257   1.286  -1.454  0.00  0.00    +0.000 C 
ENDROOT
BRANCH   1   8
ATOM      7  C   UNL     1       2.070  -1.317   0.485  0.00  0.00    +0.000 C 
ATOM      8  C   UNL     1       2.604  -0.005  -0.042  0.00  0.00    +0.000 C 
ATOM      9  O   UNL     1       2.358   1.041   0.567  0.00  0.00    +0.000 OA
ENDBRANCH   1   8
BRANCH   1  10
ATOM     10  S   UNL     1       2.193  -0.144  -2.766  0.00  0.00    +0.000 S 
BRANCH  10  11
ATOM     11  C   UNL     1       1.131   1.315  -2.478  0.00  0.00    +0.000 C 
BRANCH  11  12
ATOM     12  C   UNL     1       0.044   1.397  -3.523  0.00  0.00    +0.000 A 
ATOM     13  C   UNL     1      -1.206   0.801  -3.302  0.00  0.00    +0.000 A 
ATOM     14  C   UNL     1      -2.205   0.870  -4.274  0.00  0.00    +0.000 A 
ATOM     15  C   UNL     1      -1.965   1.530  -5.478  0.00  0.00    +0.000 A 
ATOM     16  C   UNL     1      -0.724   2.118  -5.713  0.00  0.00    +0.000 A 
ATOM     17  C   UNL     1       0.277   2.050  -4.743  0.00  0.00    +0.000 A 
ENDBRANCH  11  12
ENDBRANCH  10  11
ENDBRANCH   1  10
TORSDOF 4
