REMARK  Name = *****
REMARK  3 active torsions:
REMARK  status: ('A' for Active; 'I' for Inactive)
REMARK    1  A    between atoms: C_1  and  C_2
REMARK    2  A    between atoms: C_4  and  C_8
REMARK    3  A    between atoms: C_9  and  C_10
REMARK                            x       y       z     vdW  Elec       q    Type
REMARK                         _______ _______ _______ _____ _____    ______ ____
ROOT
ATOM      1  C   UNL     1      -2.834   6.173  -2.122  0.00  0.00    +0.000 C 
ATOM      2  C   UNL     1      -2.733   5.166  -1.237  0.00  0.00    +0.000 C 
ENDROOT
BRANCH   1   6
ATOM      3  C   UNL     1      -5.058   3.793  -5.959  0.00  0.00    +0.000 C 
ATOM      4  C   UNL     1      -4.831   5.036  -5.150  0.00  0.00    +0.000 A 
ATOM      5  C   UNL     1      -3.982   5.007  -4.033  0.00  0.00    +0.000 A 
ATOM      6  C   UNL     1      -3.737   6.166  -3.281  0.00  0.00    +0.000 A 
ATOM      7  C   UNL     1      -4.326   7.369  -3.687  0.00  0.00    +0.000 A 
ATOM      8  C   UNL     1      -5.160   7.411  -4.806  0.00  0.00    +0.000 A 
ATOM      9  C   UNL     1      -5.409   6.249  -5.536  0.00  0.00    +0.000 A 
ENDBRANCH   1   6
BRANCH   2  10
ATOM     10  C   UNL     1      -1.806   5.186  -0.045  0.00  0.00    +0.000 C 
ATOM     11  C   UNL     1      -2.596   5.140   1.279  0.00  0.00    +0.000 C 
ATOM     12  C   UNL     1      -3.021   3.720   1.656  0.00  0.00    +0.000 C 
ATOM     13  C   UNL     1      -1.815   2.784   1.760  0.00  0.00    +0.000 C 
ATOM     14  C   UNL     1      -0.810   2.987   0.665  0.00  0.00    +0.000 C 
ATOM     15  C   UNL     1      -0.814   4.053  -0.150  0.00  0.00    +0.000 C 
ENDBRANCH   2  10
TORSDOF 2
