REMARK  Name = *****
REMARK  3 active torsions:
REMARK  status: ('A' for Active; 'I' for Inactive)
REMARK    1  A    between atoms: C_1  and  C_2
REMARK    2  A    between atoms: C_3  and  C_7
REMARK    3  A    between atoms: N_8  and  C_9
REMARK                            x       y       z     vdW  Elec       q    Type
REMARK                         _______ _______ _______ _____ _____    ______ ____
ROOT
ATOM      1  C   UNL     1       0.740  -2.541   0.288  0.00  0.00    +0.000 C 
ATOM      2  N   UNL     1       1.847  -3.003  -0.204  0.00  0.00    +0.000 NA
ENDROOT
BRANCH   2   3
ATOM      3  C   UNL     1       2.002  -4.394  -0.163  0.00  0.00    +0.000 A 
ATOM      4  C   UNL     1       1.506  -5.193  -1.199  0.00  0.00    +0.000 A 
ATOM      5  C   UNL     1       1.676  -6.578  -1.163  0.00  0.00    +0.000 A 
ATOM      6  C   UNL     1       2.353  -7.156  -0.094  0.00  0.00    +0.000 A 
ATOM      7  C   UNL     1       2.867  -6.375   0.935  0.00  0.00    +0.000 A 
ATOM      8  C   UNL     1       2.694  -4.990   0.897  0.00  0.00    +0.000 A 
ATOM      9  F   UNL     1       2.518  -8.484  -0.059  0.00  0.00    +0.000 F 
ENDBRANCH   2   3
BRANCH   1  12
ATOM     10  C   UNL     1       2.567  -0.127  -0.748  0.00  0.00    +0.000 C 
ATOM     11  C   UNL     1       1.208  -0.044  -0.129  0.00  0.00    +0.000 A 
ATOM     12  C   UNL     1       0.451  -1.124   0.308  0.00  0.00    +0.000 A 
ATOM     13  S   UNL     1      -1.054  -0.631   0.964  0.00  0.00    +0.000 S 
ATOM     14  C   UNL     1      -0.720   1.015   0.675  0.00  0.00    +0.000 A 
ATOM     15  C   UNL     1       0.513   1.192   0.091  0.00  0.00    +0.000 A 
ENDBRANCH   1  12
TORSDOF 2
