REMARK  Name = *****
REMARK  5 active torsions:
REMARK  status: ('A' for Active; 'I' for Inactive)
REMARK    1  A    between atoms: C_1  and  N_2
REMARK    2  A    between atoms: N_2  and  C_3
REMARK    3  A    between atoms: N_2  and  C_4
REMARK    4  A    between atoms: C_7  and  C_10
REMARK    5  A    between atoms: C_11  and  C_12
REMARK                            x       y       z     vdW  Elec       q    Type
REMARK                         _______ _______ _______ _____ _____    ______ ____
ROOT
ATOM      1  C   UNL     1       5.303  -2.722   4.116  0.00  0.00    +0.000 C 
ATOM      2  C   UNL     1       5.813  -3.256   5.063  0.00  0.00    +0.000 C 
ENDROOT
BRANCH   2   3
ATOM      3  C   UNL     1       6.382  -3.888   6.214  0.00  0.00    +0.000 A 
ATOM      4  C   UNL     1       6.365  -5.277   6.347  0.00  0.00    +0.000 A 
ATOM      5  C   UNL     1       6.897  -5.873   7.485  0.00  0.00    +0.000 A 
ATOM      6  C   UNL     1       7.450  -5.099   8.501  0.00  0.00    +0.000 A 
ATOM      7  C   UNL     1       7.474  -3.710   8.374  0.00  0.00    +0.000 A 
ATOM      8  C   UNL     1       6.940  -3.105   7.231  0.00  0.00    +0.000 A 
ATOM      9  F   UNL     1       6.877  -7.207   7.617  0.00  0.00    +0.000 F 
ATOM     10  F   UNL     1       5.831  -6.047   5.386  0.00  0.00    +0.000 F 
ENDBRANCH   2   3
BRANCH   1  14
ATOM     11  C   UNL     1       3.290  -0.795   0.864  0.00  0.00    +0.000 A 
ATOM     12  C   UNL     1       2.876  -2.042   1.367  0.00  0.00    +0.000 A 
ATOM     13  C   UNL     1       3.538  -2.680   2.427  0.00  0.00    +0.000 A 
ATOM     14  C   UNL     1       4.651  -2.089   3.013  0.00  0.00    +0.000 A 
ATOM     15  C   UNL     1       5.107  -0.871   2.524  0.00  0.00    +0.000 A 
ATOM     16  C   UNL     1       4.437  -0.242   1.464  0.00  0.00    +0.000 A 
BRANCH  11  18
ATOM     17  C   UNL     1       1.329  -0.671  -0.631  0.00  0.00    +0.000 C 
ATOM     18  N   UNL     1       2.627  -0.161  -0.194  0.00  0.00    +0.000 N 
ATOM     19  C   UNL     1       2.856   1.266  -0.414  0.00  0.00    +0.000 C 
ENDBRANCH  11  18
ENDBRANCH   1  14
TORSDOF 3
