REMARK  Name = *****
REMARK  3 active torsions:
REMARK  status: ('A' for Active; 'I' for Inactive)
REMARK    1  A    between atoms: C_4  and  C_7
REMARK    2  A    between atoms: C_8  and  C_9
REMARK    3  A    between atoms: C_10  and  C_11
REMARK                            x       y       z     vdW  Elec       q    Type
REMARK                         _______ _______ _______ _____ _____    ______ ____
ROOT
ATOM      1  C   UNL     1      -2.833   0.342  -0.196  0.00  0.00    +0.000 C 
ATOM      2  C   UNL     1      -3.709  -0.662  -0.366  0.00  0.00    +0.000 C 
ENDROOT
BRANCH   1   6
ATOM      3  C   UNL     1       1.409  -0.091   0.161  0.00  0.00    +0.000 A 
ATOM      4  C   UNL     1       0.706  -0.920  -0.711  0.00  0.00    +0.000 A 
ATOM      5  C   UNL     1      -0.681  -0.794  -0.832  0.00  0.00    +0.000 A 
ATOM      6  C   UNL     1      -1.380   0.154  -0.074  0.00  0.00    +0.000 A 
ATOM      7  C   UNL     1      -0.659   0.993   0.786  0.00  0.00    +0.000 A 
ATOM      8  C   UNL     1       0.728   0.867   0.907  0.00  0.00    +0.000 A 
ENDBRANCH   1   6
BRANCH   2   9
ATOM      9  C   UNL     1      -5.137  -0.438  -0.475  0.00  0.00    +0.000 C 
ATOM     10  C   UNL     1      -6.093  -1.370  -0.655  0.00  0.00    +0.000 C 
ATOM     11 CL   UNL     1      -5.724  -3.064  -0.794  0.00  0.00    +0.000 Cl
BRANCH  10  12
ATOM     12  C   UNL     1      -7.557  -1.050  -0.756  0.00  0.00    +0.000 C 
ATOM     13  F   UNL     1      -8.284  -1.662   0.215  0.00  0.00    +0.000 F 
ATOM     14  F   UNL     1      -7.809   0.283  -0.638  0.00  0.00    +0.000 F 
ATOM     15  F   UNL     1      -8.084  -1.433  -1.948  0.00  0.00    +0.000 F 
ENDBRANCH  10  12
ENDBRANCH   2   9
TORSDOF 3
