REMARK  Name = *****
REMARK  4 active torsions:
REMARK  status: ('A' for Active; 'I' for Inactive)
REMARK    1  A    between atoms: C_1  and  C_2
REMARK    2  A    between atoms: C_2  and  C_3
REMARK    3  A    between atoms: C_2  and  S_9
REMARK    4  A    between atoms: S_9  and  C_11
REMARK                            x       y       z     vdW  Elec       q    Type
REMARK                         _______ _______ _______ _____ _____    ______ ____
ROOT
ATOM      1  C   UNL     1       1.121   0.291  -0.096  0.00  0.00    +0.000 C 
ATOM      2  C   UNL     1       2.633   0.133  -0.279  0.00  0.00    +0.000 C 
ENDROOT
BRANCH   2   3
ATOM      3  C   UNL     1       3.094  -1.333  -0.489  0.00  0.00    +0.000 C 
ATOM      4  C   UNL     1       2.368  -2.066  -1.633  0.00  0.00    +0.000 C 
ATOM      5  C   UNL     1       2.897  -3.490  -1.810  0.00  0.00    +0.000 C 
ATOM      6  C   UNL     1       2.804  -4.289  -0.514  0.00  0.00    +0.000 C 
ATOM      7  C   UNL     1       3.497  -3.572   0.640  0.00  0.00    +0.000 C 
ATOM      8  C   UNL     1       2.971  -2.148   0.814  0.00  0.00    +0.000 C 
ENDBRANCH   2   3
BRANCH   2   9
ATOM      9  S   UNL     1       3.165   1.214  -1.692  0.00  0.00    +0.000 S 
ATOM     10  O   UNL     1       2.634   2.591  -1.412  0.00  0.00    +0.000 OA
BRANCH   9  11
ATOM     11  C   UNL     1       4.927   1.307  -1.300  0.00  0.00    +0.000 A 
ATOM     12  C   UNL     1       5.834   0.515  -2.014  0.00  0.00    +0.000 A 
ATOM     13  C   UNL     1       7.198   0.575  -1.722  0.00  0.00    +0.000 A 
ATOM     14  C   UNL     1       7.661   1.433  -0.724  0.00  0.00    +0.000 A 
ATOM     15  C   UNL     1       6.763   2.236  -0.021  0.00  0.00    +0.000 A 
ATOM     16  C   UNL     1       5.399   2.176  -0.311  0.00  0.00    +0.000 A 
ENDBRANCH   9  11
ENDBRANCH   2   9
TORSDOF 3
