REMARK  Name = *****
REMARK  2 active torsions:
REMARK  status: ('A' for Active; 'I' for Inactive)
REMARK    1  A    between atoms: N_7  and  C_11
REMARK    2  A    between atoms: C_11  and  C_12
REMARK                            x       y       z     vdW  Elec       q    Type
REMARK                         _______ _______ _______ _____ _____    ______ ____
ROOT
ATOM      1  C   UNL     1      -2.057  -0.705   0.384  0.00  0.00    +0.000 A 
ATOM      2  C   UNL     1      -2.192   0.674   0.176  0.00  0.00    +0.000 A 
ATOM      3  C   UNL     1      -1.079   1.450  -0.148  0.00  0.00    +0.000 A 
ATOM      4  C   UNL     1       0.153   0.823  -0.258  0.00  0.00    +0.000 A 
ATOM      5  C   UNL     1       0.297  -0.550  -0.050  0.00  0.00    +0.000 A 
ATOM      6  C   UNL     1      -0.808  -1.326   0.270  0.00  0.00    +0.000 A 
ATOM      7  N   UNL     1       1.630  -0.987  -0.212  0.00  0.00    +0.000 N 
ATOM      8  C   UNL     1       2.538   0.012  -0.535  0.00  0.00    +0.000 A 
ATOM      9  O   UNL     1       3.740  -0.111  -0.714  0.00  0.00    +0.000 OA
ATOM     10  S   UNL     1       1.705   1.570  -0.657  0.00  0.00    +0.000 S 
ENDROOT
BRANCH   7  11
ATOM     11  C   UNL     1       2.060  -2.357  -0.025  0.00  0.00    +0.000 C 
BRANCH  11  12
ATOM     12  C   UNL     1       2.269  -2.723   1.429  0.00  0.00    +0.000 A 
ATOM     13  C   UNL     1       1.476  -3.708   2.041  0.00  0.00    +0.000 A 
ATOM     14  C   UNL     1       1.673  -4.044   3.382  0.00  0.00    +0.000 A 
ATOM     15  C   UNL     1       2.665  -3.402   4.112  0.00  0.00    +0.000 A 
ATOM     16  C   UNL     1       3.468  -2.432   3.526  0.00  0.00    +0.000 A 
ATOM     17  C   UNL     1       3.273  -2.094   2.186  0.00  0.00    +0.000 A 
ATOM     18  F   UNL     1       2.853  -3.727   5.398  0.00  0.00    +0.000 F 
ENDBRANCH  11  12
ENDBRANCH   7  11
TORSDOF 2
