REMARK  Name = *****
REMARK  5 active torsions:
REMARK  status: ('A' for Active; 'I' for Inactive)
REMARK    1  A    between atoms: C_1  and  C_2
REMARK    2  A    between atoms: C_5  and  C_8
REMARK    3  A    between atoms: C_8  and  C_9
REMARK    4  A    between atoms: C_8  and  O_10
REMARK    5  A    between atoms: O_10  and  C_11
REMARK                            x       y       z     vdW  Elec       q    Type
REMARK                         _______ _______ _______ _____ _____    ______ ____
ROOT
ATOM      1  C   UNL     1      -3.036  -0.131  -0.223  0.00  0.00    +0.000 C 
ATOM      2  C   UNL     1      -3.381  -1.154   0.857  0.00  0.00    +0.000 C 
ENDROOT
BRANCH   1   7
ATOM      3  C   UNL     1       2.706   0.926  -0.265  0.00  0.00    +0.000 C 
ATOM      4  C   UNL     1       1.235   0.634  -0.233  0.00  0.00    +0.000 A 
ATOM      5  C   UNL     1       0.658  -0.207  -1.191  0.00  0.00    +0.000 A 
ATOM      6  C   UNL     1      -0.717  -0.453  -1.183  0.00  0.00    +0.000 A 
ATOM      7  C   UNL     1      -1.545   0.150  -0.226  0.00  0.00    +0.000 A 
ATOM      8  C   UNL     1      -0.963   0.999   0.727  0.00  0.00    +0.000 A 
ATOM      9  C   UNL     1       0.412   1.245   0.718  0.00  0.00    +0.000 A 
ENDBRANCH   1   7
BRANCH   1  10
ATOM     10  O   UNL     1      -3.789   1.056   0.059  0.00  0.00    +0.000 OA
BRANCH  10  11
ATOM     11  C   UNL     1      -3.927   1.944  -1.055  0.00  0.00    +0.000 C 
ATOM     12  C   UNL     1      -4.168   3.346  -0.488  0.00  0.00    +0.000 C 
ATOM     13  C   UNL     1      -4.442   4.365  -1.589  0.00  0.00    +0.000 C 
ATOM     14  C   UNL     1      -5.604   3.928  -2.477  0.00  0.00    +0.000 C 
ATOM     15  C   UNL     1      -5.385   2.528  -3.041  0.00  0.00    +0.000 C 
ATOM     16  C   UNL     1      -5.104   1.513  -1.937  0.00  0.00    +0.000 C 
ENDBRANCH  10  11
ENDBRANCH   1  10
TORSDOF 3
