REMARK  Name = *****
REMARK  5 active torsions:
REMARK  status: ('A' for Active; 'I' for Inactive)
REMARK    1  A    between atoms: C_1  and  C_2
REMARK    2  A    between atoms: C_4  and  C_16
REMARK    3  A    between atoms: C_5  and  N_9
REMARK    4  A    between atoms: C_6  and  C_8
REMARK    5  A    between atoms: C_10  and  C_11
REMARK                            x       y       z     vdW  Elec       q    Type
REMARK                         _______ _______ _______ _____ _____    ______ ____
ROOT
ATOM      1  C   UNL     1       2.088   1.869   0.519  0.00  0.00    +0.000 C 
ATOM      2  C   UNL     1       1.047   0.829   0.229  0.00  0.00    +0.000 A 
ATOM      3  C   UNL     1       1.423  -0.454  -0.183  0.00  0.00    +0.000 A 
ATOM      4  C   UNL     1       0.457  -1.424  -0.493  0.00  0.00    +0.000 A 
ATOM      5  C   UNL     1      -0.911  -1.108  -0.373  0.00  0.00    +0.000 A 
ATOM      6  C   UNL     1      -1.296   0.196  -0.004  0.00  0.00    +0.000 A 
ATOM      7  C   UNL     1      -0.312   1.150   0.299  0.00  0.00    +0.000 A 
ATOM      8  C   UNL     1      -2.749   0.573   0.083  0.00  0.00    +0.000 C 
ATOM      9  C   UNL     1       0.896  -2.795  -0.928  0.00  0.00    +0.000 C 
ENDROOT
BRANCH   5  10
ATOM     10  N   UNL     1      -1.889  -2.079  -0.659  0.00  0.00    +0.000 NA
ATOM     11  C   UNL     1      -2.261  -2.809   0.346  0.00  0.00    +0.000 C 
BRANCH  11  12
ATOM     12  C   UNL     1      -3.257  -3.836   0.177  0.00  0.00    +0.000 A 
ATOM     13  C   UNL     1      -3.942  -4.200  -0.965  0.00  0.00    +0.000 A 
ATOM     14  C   UNL     1      -4.853  -5.271  -0.730  0.00  0.00    +0.000 A 
ATOM     15  C   UNL     1      -4.830  -5.686   0.583  0.00  0.00    +0.000 A 
ATOM     16  S   UNL     1      -3.717  -4.787   1.521  0.00  0.00    +0.000 S 
ENDBRANCH  11  12
ENDBRANCH   5  10
TORSDOF 2
