REMARK  Name = *****
REMARK  2 active torsions:
REMARK  status: ('A' for Active; 'I' for Inactive)
REMARK    1  A    between atoms: C_2  and  C_10
REMARK    2  A    between atoms: C_3  and  C_4
REMARK                            x       y       z     vdW  Elec       q    Type
REMARK                         _______ _______ _______ _____ _____    ______ ____
ROOT
ATOM      1  C   UNL     1       1.241  -0.486   0.531  0.00  0.00    +0.000 C 
ATOM      2  C   UNL     1       2.343  -0.869  -0.547  0.00  0.00    +0.000 C 
ATOM      3  C   UNL     1       2.492   0.058   0.370  0.00  0.00    +0.000 C 
ENDROOT
BRANCH   3   4
ATOM      4  C   UNL     1       3.389   1.054   0.864  0.00  0.00    +0.000 A 
ATOM      5  C   UNL     1       4.706   1.127   0.397  0.00  0.00    +0.000 A 
ATOM      6  C   UNL     1       5.585   2.091   0.898  0.00  0.00    +0.000 A 
ATOM      7  C   UNL     1       5.152   2.992   1.868  0.00  0.00    +0.000 A 
ATOM      8  C   UNL     1       3.842   2.929   2.340  0.00  0.00    +0.000 A 
ATOM      9  C   UNL     1       2.965   1.962   1.841  0.00  0.00    +0.000 A 
ENDBRANCH   3   4
BRANCH   2  10
ATOM     10  C   UNL     1       1.949  -1.938  -1.442  0.00  0.00    +0.000 A 
ATOM     11  C   UNL     1       2.507  -1.933  -2.728  0.00  0.00    +0.000 A 
ATOM     12  C   UNL     1       2.194  -2.937  -3.648  0.00  0.00    +0.000 A 
ATOM     13  C   UNL     1       1.332  -3.968  -3.287  0.00  0.00    +0.000 A 
ATOM     14  C   UNL     1       0.784  -3.997  -2.007  0.00  0.00    +0.000 A 
ATOM     15  C   UNL     1       1.092  -2.988  -1.089  0.00  0.00    +0.000 A 
ENDBRANCH   2  10
TORSDOF 2
