REMARK  Name = *****
REMARK  1 active torsions:
REMARK  status: ('A' for Active; 'I' for Inactive)
REMARK    1  A    between atoms: C_4  and  C_7
REMARK                            x       y       z     vdW  Elec       q    Type
REMARK                         _______ _______ _______ _____ _____    ______ ____
ROOT
ATOM      1  C   UNL     1      -3.168  -0.984  -0.442  0.00  0.00    +0.000 C 
ATOM      2  C   UNL     1      -3.867  -2.012   0.076  0.00  0.00    +0.000 C 
ATOM      3  C   UNL     1      -5.249  -2.213  -0.349  0.00  0.00    +0.000 A 
ATOM      4  C   UNL     1      -5.993  -3.334   0.028  0.00  0.00    +0.000 A 
ATOM      5  C   UNL     1      -7.324  -3.449  -0.374  0.00  0.00    +0.000 A 
ATOM      6  C   UNL     1      -7.915  -2.439  -1.135  0.00  0.00    +0.000 A 
ATOM      7  C   UNL     1      -7.174  -1.316  -1.506  0.00  0.00    +0.000 A 
ATOM      8  C   UNL     1      -5.829  -1.214  -1.143  0.00  0.00    +0.000 A 
ATOM      9  N   UNL     1      -5.074  -0.052  -1.427  0.00  0.00    +0.000 N 
ATOM     10  O   UNL     1      -3.667  -0.096  -1.394  0.00  0.00    +0.000 OA
ATOM     11  H   UNL     1      -5.534   0.789  -1.649  0.00  0.00    +0.000 HD
ENDROOT
BRANCH   1  15
ATOM     12  C   UNL     1       0.919  -0.220   0.605  0.00  0.00    +0.000 A 
ATOM     13  C   UNL     1       0.508  -1.523   0.330  0.00  0.00    +0.000 A 
ATOM     14  C   UNL     1      -0.823  -1.780  -0.010  0.00  0.00    +0.000 A 
ATOM     15  C   UNL     1      -1.761  -0.738  -0.074  0.00  0.00    +0.000 A 
ATOM     16  C   UNL     1      -1.329   0.569   0.196  0.00  0.00    +0.000 A 
ATOM     17  C   UNL     1       0.002   0.826   0.536  0.00  0.00    +0.000 A 
ENDBRANCH   1  15
TORSDOF 1
