REMARK  Name = *****
REMARK  5 active torsions:
REMARK  status: ('A' for Active; 'I' for Inactive)
REMARK    1  A    between atoms: C_1  and  C_2
REMARK    2  A    between atoms: C_5  and  C_8
REMARK    3  A    between atoms: C_8  and  N_9
REMARK    4  A    between atoms: C_10  and  C_11
REMARK    5  A    between atoms: C_10  and  C_12
REMARK                            x       y       z     vdW  Elec       q    Type
REMARK                         _______ _______ _______ _____ _____    ______ ____
ROOT
ATOM      1  N   UNL     1      -3.852   1.417  -0.106  0.00  0.00    +0.000 NA
ATOM      2  C   UNL     1      -5.128   1.609  -0.090  0.00  0.00    +0.000 C 
ATOM      3  C   UNL     1      -6.159   0.499  -0.022  0.00  0.00    +0.000 C 
ENDROOT
BRANCH   2   4
ATOM      4  C   UNL     1      -5.633   3.027  -0.128  0.00  0.00    +0.000 A 
ATOM      5  C   UNL     1      -4.711   4.073  -0.283  0.00  0.00    +0.000 A 
ATOM      6  C   UNL     1      -5.141   5.401  -0.321  0.00  0.00    +0.000 A 
ATOM      7  C   UNL     1      -6.497   5.698  -0.204  0.00  0.00    +0.000 A 
ATOM      8  C   UNL     1      -7.422   4.667  -0.047  0.00  0.00    +0.000 A 
ATOM      9  C   UNL     1      -6.994   3.336  -0.006  0.00  0.00    +0.000 A 
ENDBRANCH   2   4
BRANCH   1  10
ATOM     10  C   UNL     1      -3.297   0.067  -0.065  0.00  0.00    +0.000 C 
BRANCH  10  15
ATOM     11  C   UNL     1       2.536  -0.014   0.054  0.00  0.00    +0.000 C 
ATOM     12  C   UNL     1       1.039   0.030  -0.002  0.00  0.00    +0.000 A 
ATOM     13  C   UNL     1       0.328   0.969   0.752  0.00  0.00    +0.000 A 
ATOM     14  C   UNL     1      -1.069   0.990   0.723  0.00  0.00    +0.000 A 
ATOM     15  C   UNL     1      -1.784   0.074  -0.060  0.00  0.00    +0.000 A 
ATOM     16  C   UNL     1      -1.068  -0.884  -0.791  0.00  0.00    +0.000 A 
ATOM     17  C   UNL     1       0.329  -0.906  -0.761  0.00  0.00    +0.000 A 
ENDBRANCH  10  15
ENDBRANCH   1  10
TORSDOF 3
