REMARK  Name = *****
REMARK  2 active torsions:
REMARK  status: ('A' for Active; 'I' for Inactive)
REMARK    1  A    between atoms: C_4  and  C_7
REMARK    2  A    between atoms: N_8  and  C_9
REMARK                            x       y       z     vdW  Elec       q    Type
REMARK                         _______ _______ _______ _____ _____    ______ ____
ROOT
ATOM      1  C   UNL     1      -5.025  -0.320  -0.701  0.00  0.00    +0.000 A 
ATOM      2  C   UNL     1      -5.533   0.715  -1.501  0.00  0.00    +0.000 A 
ATOM      3  C   UNL     1      -6.903   0.937  -1.604  0.00  0.00    +0.000 A 
ATOM      4  C   UNL     1      -7.793   0.123  -0.920  0.00  0.00    +0.000 A 
ATOM      5  C   UNL     1      -7.315  -0.914  -0.133  0.00  0.00    +0.000 A 
ATOM      6  C   UNL     1      -5.945  -1.136  -0.027  0.00  0.00    +0.000 A 
ATOM      7  F   UNL     1      -5.508  -2.146   0.741  0.00  0.00    +0.000 F 
ATOM      8  F   UNL     1      -8.174  -1.701   0.529  0.00  0.00    +0.000 F 
ATOM      9  F   UNL     1      -9.112   0.339  -1.018  0.00  0.00    +0.000 F 
ATOM     10  F   UNL     1      -7.362   1.941  -2.364  0.00  0.00    +0.000 F 
ATOM     11  F   UNL     1      -4.692   1.517  -2.174  0.00  0.00    +0.000 F 
ENDROOT
BRANCH   1  13
ATOM     12  C   UNL     1      -2.857   0.348  -0.218  0.00  0.00    +0.000 C 
ATOM     13  N   UNL     1      -3.647  -0.603  -0.608  0.00  0.00    +0.000 NA
BRANCH  12  17
ATOM     14  C   UNL     1       1.357  -0.182   0.157  0.00  0.00    +0.000 A 
ATOM     15  C   UNL     1       0.559  -1.260  -0.226  0.00  0.00    +0.000 A 
ATOM     16  C   UNL     1      -0.821  -1.097  -0.353  0.00  0.00    +0.000 A 
ATOM     17  C   UNL     1      -1.399   0.149  -0.094  0.00  0.00    +0.000 A 
ATOM     18  C   UNL     1      -0.602   1.230   0.291  0.00  0.00    +0.000 A 
ATOM     19  C   UNL     1       0.779   1.062   0.415  0.00  0.00    +0.000 A 
ENDBRANCH  12  17
ENDBRANCH   1  13
TORSDOF 2
