REMARK  Name = *****
REMARK  4 active torsions:
REMARK  status: ('A' for Active; 'I' for Inactive)
REMARK    1  A    between atoms: C_1  and  N_2
REMARK    2  A    between atoms: C_8  and  O_10
REMARK    3  A    between atoms: O_10  and  C_11
REMARK    4  A    between atoms: C_11  and  C_13
REMARK                            x       y       z     vdW  Elec       q    Type
REMARK                         _______ _______ _______ _____ _____    ______ ____
ROOT
ATOM      1  O   UNL     1       5.065   0.294   0.851  0.00  0.00    +0.000 OA
ENDROOT
BRANCH   1   9
ATOM      2  C   UNL     1       2.374  -3.081  -0.420  0.00  0.00    +0.000 C 
ATOM      3  N   UNL     1       3.256  -1.923  -0.539  0.00  0.00    +0.000 N 
ATOM      4  C   UNL     1       4.453  -2.196  -1.349  0.00  0.00    +0.000 C 
ATOM      5  C   UNL     1       3.977  -2.109  -2.802  0.00  0.00    +0.000 C 
ATOM      6  C   UNL     1       2.778  -1.174  -2.753  0.00  0.00    +0.000 C 
ATOM      7  C   UNL     1       2.636  -0.807  -1.273  0.00  0.00    +0.000 C 
ATOM      8  C   UNL     1       3.421   0.473  -0.935  0.00  0.00    +0.000 C 
ATOM      9  C   UNL     1       4.906   0.243  -0.593  0.00  0.00    +0.000 C 
ATOM     10  C   UNL     1       5.497  -1.107  -1.041  0.00  0.00    +0.000 C 
ATOM     11  H   UNL     1       3.468  -1.701   0.433  0.00  0.00    +0.000 HD
ENDBRANCH   1   9
BRANCH   1  12
ATOM     12  C   UNL     1       5.117   1.518   1.423  0.00  0.00    +0.000 C 
ATOM     13  O   UNL     1       5.085   2.590   0.842  0.00  0.00    +0.000 OA
BRANCH  12  14
ATOM     14  C   UNL     1       5.210   1.386   2.902  0.00  0.00    +0.000 A 
ATOM     15  C   UNL     1       5.321   2.557   3.663  0.00  0.00    +0.000 A 
ATOM     16  C   UNL     1       5.402   2.476   5.052  0.00  0.00    +0.000 A 
ATOM     17  C   UNL     1       5.374   1.242   5.695  0.00  0.00    +0.000 A 
ATOM     18  C   UNL     1       5.262   0.080   4.936  0.00  0.00    +0.000 A 
ATOM     19  C   UNL     1       5.178   0.141   3.545  0.00  0.00    +0.000 A 
ATOM     20 CL   UNL     1       5.225  -1.450   5.724  0.00  0.00    +0.000 Cl
ATOM     21 CL   UNL     1       5.537   3.917   5.983  0.00  0.00    +0.000 Cl
ENDBRANCH  12  14
ENDBRANCH   1  12
TORSDOF 3
