REMARK  Name = *****
REMARK  4 active torsions:
REMARK  status: ('A' for Active; 'I' for Inactive)
REMARK    1  A    between atoms: C_4  and  O_7
REMARK    2  A    between atoms: O_7  and  C_8
REMARK    3  A    between atoms: C_8  and  O_10
REMARK    4  A    between atoms: O_10  and  C_11
REMARK                            x       y       z     vdW  Elec       q    Type
REMARK                         _______ _______ _______ _____ _____    ______ ____
ROOT
ATOM      1  C   UNL     1      -3.392  -0.486  -1.030  0.00  0.00    +0.000 C 
ATOM      2  S   UNL     1      -2.853  -1.797  -1.891  0.00  0.00    +0.000 S 
ENDROOT
BRANCH   1   3
ATOM      3  O   UNL     1      -2.713   0.190  -0.017  0.00  0.00    +0.000 OA
BRANCH   3   7
ATOM      4  C   UNL     1       1.126  -0.846   1.249  0.00  0.00    +0.000 A 
ATOM      5  C   UNL     1       0.959   0.100   0.234  0.00  0.00    +0.000 A 
ATOM      6  C   UNL     1      -0.322   0.441  -0.198  0.00  0.00    +0.000 A 
ATOM      7  C   UNL     1      -1.419  -0.187   0.387  0.00  0.00    +0.000 A 
ATOM      8  C   UNL     1      -1.271  -1.114   1.416  0.00  0.00    +0.000 A 
ATOM      9  C   UNL     1       0.013  -1.450   1.841  0.00  0.00    +0.000 A 
ENDBRANCH   3   7
ENDBRANCH   1   3
BRANCH   1  10
ATOM     10  O   UNL     1      -4.655   0.016  -1.324  0.00  0.00    +0.000 OA
BRANCH  10  11
ATOM     11  C   UNL     1      -5.079   1.147  -0.612  0.00  0.00    +0.000 A 
ATOM     12  C   UNL     1      -4.768   2.415  -1.101  0.00  0.00    +0.000 A 
ATOM     13  C   UNL     1      -5.219   3.536  -0.405  0.00  0.00    +0.000 A 
ATOM     14  C   UNL     1      -5.982   3.374   0.753  0.00  0.00    +0.000 A 
ATOM     15  C   UNL     1      -6.306   2.098   1.221  0.00  0.00    +0.000 A 
ATOM     16  C   UNL     1      -5.857   0.972   0.531  0.00  0.00    +0.000 A 
ATOM     17 CL   UNL     1      -6.538   4.760   1.608  0.00  0.00    +0.000 Cl
ENDBRANCH  10  11
ENDBRANCH   1  10
TORSDOF 4
