REMARK  Name = *****
REMARK  3 active torsions:
REMARK  status: ('A' for Active; 'I' for Inactive)
REMARK    1  A    between atoms: C_4  and  C_7
REMARK    2  A    between atoms: C_7  and  S_10
REMARK    3  A    between atoms: S_10  and  C_11
REMARK                            x       y       z     vdW  Elec       q    Type
REMARK                         _______ _______ _______ _____ _____    ______ ____
ROOT
ATOM      1  C   UNL     1      -2.912   0.295  -0.187  0.00  0.00    +0.000 C 
ATOM      2  F   UNL     1      -3.342   1.114   0.818  0.00  0.00    +0.000 F 
ATOM      3  F   UNL     1      -3.282   0.918  -1.345  0.00  0.00    +0.000 F 
ENDROOT
BRANCH   1   7
ATOM      4  C   UNL     1       1.358  -0.368  -0.006  0.00  0.00    +0.000 A 
ATOM      5  C   UNL     1       0.633  -0.172   1.168  0.00  0.00    +0.000 A 
ATOM      6  C   UNL     1      -0.744   0.046   1.112  0.00  0.00    +0.000 A 
ATOM      7  C   UNL     1      -1.413   0.071  -0.124  0.00  0.00    +0.000 A 
ATOM      8  C   UNL     1      -0.670  -0.129  -1.299  0.00  0.00    +0.000 A 
ATOM      9  C   UNL     1       0.708  -0.346  -1.239  0.00  0.00    +0.000 A 
ENDBRANCH   1   7
BRANCH   1  10
ATOM     10  S   UNL     1      -3.796  -1.307  -0.062  0.00  0.00    +0.000 S 
BRANCH  10  11
ATOM     11  C   UNL     1      -5.452  -0.801  -0.487  0.00  0.00    +0.000 A 
ATOM     12  C   UNL     1      -6.092  -1.426  -1.563  0.00  0.00    +0.000 A 
ATOM     13  C   UNL     1      -7.397  -1.072  -1.913  0.00  0.00    +0.000 A 
ATOM     14  C   UNL     1      -8.075  -0.098  -1.182  0.00  0.00    +0.000 A 
ATOM     15  C   UNL     1      -7.451   0.516  -0.098  0.00  0.00    +0.000 A 
ATOM     16  C   UNL     1      -6.146   0.162   0.252  0.00  0.00    +0.000 A 
ENDBRANCH  10  11
ENDBRANCH   1  10
TORSDOF 3
