REMARK  Name = *****
REMARK  2 active torsions:
REMARK  status: ('A' for Active; 'I' for Inactive)
REMARK    1  A    between atoms: C_1  and  C_7
REMARK    2  A    between atoms: C_7  and  C_8
REMARK                            x       y       z     vdW  Elec       q    Type
REMARK                         _______ _______ _______ _____ _____    ______ ____
ROOT
ATOM      1  C   UNL     1       1.988   0.929   1.652  0.00  0.00    +0.000 C 
ENDROOT
BRANCH   1   2
ATOM      2  C   UNL     1       1.083   0.703   0.422  0.00  0.00    +0.000 C 
ATOM      3  S   UNL     1       1.274  -0.863  -0.480  0.00  0.00    +0.000 S 
ATOM      4  C   UNL     1       0.813  -2.053   0.811  0.00  0.00    +0.000 C 
ATOM      5  C   UNL     1      -0.340  -1.642   1.722  0.00  0.00    +0.000 C 
ATOM      6  C   UNL     1      -1.331  -0.681   1.092  0.00  0.00    +0.000 C 
ATOM      7  S   UNL     1      -0.679   1.006   0.877  0.00  0.00    +0.000 S 
ENDBRANCH   1   2
BRANCH   1   8
ATOM      8  C   UNL     1       3.513   1.083   1.456  0.00  0.00    +0.000 C 
ATOM      9  S   UNL     1       4.359  -0.517   1.266  0.00  0.00    +0.000 S 
ATOM     10  C   UNL     1       6.082   0.038   1.379  0.00  0.00    +0.000 C 
ATOM     11  C   UNL     1       6.460   1.037   0.293  0.00  0.00    +0.000 C 
ATOM     12  C   UNL     1       5.733   2.369   0.405  0.00  0.00    +0.000 C 
ATOM     13  S   UNL     1       3.948   2.229   0.113  0.00  0.00    +0.000 S 
ENDBRANCH   1   8
TORSDOF 2
