REMARK  Name = *****
REMARK  3 active torsions:
REMARK  status: ('A' for Active; 'I' for Inactive)
REMARK    1  A    between atoms: C_1  and  C_2
REMARK    2  A    between atoms: C_5  and  C_9
REMARK    3  A    between atoms: C_10  and  C_11
REMARK                            x       y       z     vdW  Elec       q    Type
REMARK                         _______ _______ _______ _____ _____    ______ ____
ROOT
ATOM      1  C   UNL     1       1.168   0.073   0.090  0.00  0.00    +0.000 C 
ATOM      2  C   UNL     1       2.660  -0.001   0.080  0.00  0.00    +0.000 A 
ATOM      3  C   UNL     1       3.364  -1.137   0.074  0.00  0.00    +0.000 A 
ATOM      4  C   UNL     1       4.801  -1.081   0.061  0.00  0.00    +0.000 A 
ATOM      5  C   UNL     1       5.459   0.090   0.055  0.00  0.00    +0.000 A 
ATOM      6  C   UNL     1       4.674   1.356   0.064  0.00  0.00    +0.000 A 
ATOM      7  O   UNL     1       5.220   2.456   0.061  0.00  0.00    +0.000 OA
ATOM      8  O   UNL     1       3.307   1.254   0.075  0.00  0.00    +0.000 OA
ATOM      9 CL   UNL     1       5.613  -2.615   0.053  0.00  0.00    +0.000 Cl
ENDROOT
BRANCH   5  10
ATOM     10  C   UNL     1       6.885   0.167   0.039  0.00  0.00    +0.000 C 
ATOM     11  C   UNL     1       8.084   0.237   0.022  0.00  0.00    +0.000 C 
BRANCH  11  12
ATOM     12  C   UNL     1       9.511   0.325  -0.002  0.00  0.00    +0.000 A 
ATOM     13  C   UNL     1      10.134   1.575  -0.010  0.00  0.00    +0.000 A 
ATOM     14  C   UNL     1      11.527   1.661  -0.036  0.00  0.00    +0.000 A 
ATOM     15  C   UNL     1      12.298   0.498  -0.054  0.00  0.00    +0.000 A 
ATOM     16  C   UNL     1      11.677  -0.751  -0.046  0.00  0.00    +0.000 A 
ATOM     17  C   UNL     1      10.284  -0.839  -0.020  0.00  0.00    +0.000 A 
ENDBRANCH  11  12
ENDBRANCH   5  10
TORSDOF 2
