REMARK  Name = *****
REMARK  3 active torsions:
REMARK  status: ('A' for Active; 'I' for Inactive)
REMARK    1  A    between atoms: C_4  and  C_7
REMARK    2  A    between atoms: C_15  and  O_16
REMARK    3  A    between atoms: O_16  and  O_17
REMARK                            x       y       z     vdW  Elec       q    Type
REMARK                         _______ _______ _______ _____ _____    ______ ____
ROOT
ATOM      1  C   UNL     1      -1.910  -1.021   0.881  0.00  0.00    +0.000 C 
ATOM      2  C   UNL     1      -2.021  -1.077   2.225  0.00  0.00    +0.000 C 
ATOM      3  C   UNL     1      -3.244  -1.785   2.559  0.00  0.00    +0.000 A 
ATOM      4  C   UNL     1      -3.771  -2.092   3.802  0.00  0.00    +0.000 A 
ATOM      5  C   UNL     1      -4.969  -2.810   3.853  0.00  0.00    +0.000 A 
ATOM      6  C   UNL     1      -5.614  -3.211   2.672  0.00  0.00    +0.000 A 
ATOM      7  C   UNL     1      -5.074  -2.897   1.422  0.00  0.00    +0.000 A 
ATOM      8  C   UNL     1      -3.890  -2.176   1.382  0.00  0.00    +0.000 A 
ATOM      9  C   UNL     1      -3.088  -1.714   0.197  0.00  0.00    +0.000 C 
ENDROOT
BRANCH   1  13
ATOM     10  C   UNL     1       1.342   0.725  -1.341  0.00  0.00    +0.000 A 
ATOM     11  C   UNL     1       0.363  -0.015  -1.995  0.00  0.00    +0.000 A 
ATOM     12  C   UNL     1      -0.693  -0.579  -1.271  0.00  0.00    +0.000 A 
ATOM     13  C   UNL     1      -0.793  -0.420   0.121  0.00  0.00    +0.000 A 
ATOM     14  C   UNL     1       0.205   0.337   0.758  0.00  0.00    +0.000 A 
ATOM     15  C   UNL     1       1.262   0.903   0.036  0.00  0.00    +0.000 A 
ENDBRANCH   1  13
BRANCH   9  16
ATOM     16  O   UNL     1      -3.822  -0.760  -0.575  0.00  0.00    +0.000 OA
BRANCH  16  17
ATOM     17  O   UNL     1      -4.612  -1.516  -1.543  0.00  0.00    +0.000 OA
ATOM     18  H   UNL     1      -5.127  -0.902  -2.089  0.00  0.00    +0.000 HD
ENDBRANCH  16  17
ENDBRANCH   9  16
TORSDOF 3
