REMARK  Name = *****
REMARK  3 active torsions:
REMARK  status: ('A' for Active; 'I' for Inactive)
REMARK    1  A    between atoms: C_2  and  C_12
REMARK    2  A    between atoms: C_3  and  C_4
REMARK    3  A    between atoms: C_3  and  C_6
REMARK                            x       y       z     vdW  Elec       q    Type
REMARK                         _______ _______ _______ _____ _____    ______ ____
ROOT
ATOM      1  C   UNL     1       1.388  -0.594  -0.182  0.00  0.00    +0.000 C 
ATOM      2  C   UNL     1       1.432   0.906  -0.096  0.00  0.00    +0.000 C 
ATOM      3  C   UNL     1       0.269   0.132   0.560  0.00  0.00    +0.000 C 
ENDROOT
BRANCH   2   4
ATOM      4  C   UNL     1       1.235   1.758  -1.331  0.00  0.00    +0.000 A 
ATOM      5  C   UNL     1       1.898   1.472  -2.536  0.00  0.00    +0.000 A 
ATOM      6  C   UNL     1       1.722   2.277  -3.658  0.00  0.00    +0.000 A 
ATOM      7  C   UNL     1       0.896   3.391  -3.619  0.00  0.00    +0.000 A 
ATOM      8  C   UNL     1       0.239   3.707  -2.435  0.00  0.00    +0.000 A 
ATOM      9  C   UNL     1       0.414   2.901  -1.304  0.00  0.00    +0.000 A 
ATOM     10  F   UNL     1       2.367   1.973  -4.793  0.00  0.00    +0.000 F 
ENDBRANCH   2   4
BRANCH   3  11
ATOM     11  C   UNL     1       0.290   0.063   2.094  0.00  0.00    +0.000 A 
ATOM     12  C   UNL     1       0.272   1.232   2.878  0.00  0.00    +0.000 A 
ATOM     13  C   UNL     1       0.279   1.173   4.274  0.00  0.00    +0.000 A 
ATOM     14  C   UNL     1       0.297  -0.060   4.919  0.00  0.00    +0.000 A 
ATOM     15  C   UNL     1       0.304  -1.232   4.169  0.00  0.00    +0.000 A 
ATOM     16  C   UNL     1       0.297  -1.169   2.773  0.00  0.00    +0.000 A 
ENDBRANCH   3  11
BRANCH   3  17
ATOM     17  C   UNL     1      -1.020   0.122  -0.116  0.00  0.00    +0.000 C 
ATOM     18  N   UNL     1      -2.051   0.107  -0.650  0.00  0.00    +0.000 NA
ENDBRANCH   3  17
TORSDOF 3
