REMARK  Name = *****
REMARK  3 active torsions:
REMARK  status: ('A' for Active; 'I' for Inactive)
REMARK    1  A    between atoms: C_1  and  N_2
REMARK    2  A    between atoms: N_2  and  C_3
REMARK    3  A    between atoms: C_9  and  C_11
REMARK                            x       y       z     vdW  Elec       q    Type
REMARK                         _______ _______ _______ _____ _____    ______ ____
ROOT
ATOM      1  C   UNL     1       2.402  -2.577   0.184  0.00  0.00    +0.000 A 
ATOM      2  C   UNL     1       1.336  -3.077  -0.558  0.00  0.00    +0.000 A 
ATOM      3  C   UNL     1       0.713  -4.256  -0.163  0.00  0.00    +0.000 A 
ATOM      4  C   UNL     1       1.162  -4.938   0.962  0.00  0.00    +0.000 A 
ATOM      5  C   UNL     1       2.233  -4.442   1.695  0.00  0.00    +0.000 A 
ATOM      6  C   UNL     1       2.859  -3.264   1.305  0.00  0.00    +0.000 A 
ATOM      7  F   UNL     1       3.882  -2.787   2.029  0.00  0.00    +0.000 F 
ATOM      8  F   UNL     1       2.657  -5.095   2.786  0.00  0.00    +0.000 F 
ATOM      9  F   UNL     1       0.554  -6.069   1.346  0.00  0.00    +0.000 F 
ATOM     10  F   UNL     1      -0.327  -4.729  -0.863  0.00  0.00    +0.000 F 
ATOM     11  F   UNL     1       0.888  -2.421  -1.637  0.00  0.00    +0.000 F 
ENDROOT
BRANCH   1  14
ATOM     12  C   UNL     1       1.291   0.026   0.721  0.00  0.00    +0.000 C 
ATOM     13  N   UNL     1       2.569  -0.117   0.015  0.00  0.00    +0.000 N 
ATOM     14  C   UNL     1       3.113  -1.383  -0.271  0.00  0.00    +0.000 C 
ATOM     15  O   UNL     1       4.131  -1.640  -0.908  0.00  0.00    +0.000 OA
BRANCH  13  16
ATOM     16  C   UNL     1       3.204   1.104  -0.438  0.00  0.00    +0.000 A 
ATOM     17  C   UNL     1       4.559   1.155  -0.796  0.00  0.00    +0.000 A 
ATOM     18  C   UNL     1       5.162   2.347  -1.221  0.00  0.00    +0.000 A 
ATOM     19  C   UNL     1       4.423   3.520  -1.294  0.00  0.00    +0.000 A 
ATOM     20  C   UNL     1       3.080   3.502  -0.941  0.00  0.00    +0.000 A 
ATOM     21  C   UNL     1       2.480   2.309  -0.516  0.00  0.00    +0.000 A 
ENDBRANCH  13  16
ENDBRANCH   1  14
TORSDOF 2
