REMARK  Name = *****
REMARK  4 active torsions:
REMARK  status: ('A' for Active; 'I' for Inactive)
REMARK    1  A    between atoms: C_1  and  C_2
REMARK    2  A    between atoms: C_5  and  C_8
REMARK    3  A    between atoms: C_8  and  C_9
REMARK    4  A    between atoms: C_9  and  C_11
REMARK                            x       y       z     vdW  Elec       q    Type
REMARK                         _______ _______ _______ _____ _____    ______ ____
ROOT
ATOM      1  C   UNL     1      -3.735   1.538  -0.182  0.00  0.00    +0.000 C 
ATOM      2  O   UNL     1      -4.239   2.182   0.740  0.00  0.00    +0.000 OA
ENDROOT
BRANCH   1   3
ATOM      3  C   UNL     1      -3.614   2.176  -1.532  0.00  0.00    +0.000 A 
ATOM      4  C   UNL     1      -3.079   1.512  -2.643  0.00  0.00    +0.000 A 
ATOM      5  C   UNL     1      -2.986   2.165  -3.877  0.00  0.00    +0.000 A 
ATOM      6  C   UNL     1      -3.430   3.480  -4.007  0.00  0.00    +0.000 A 
ATOM      7  C   UNL     1      -3.967   4.151  -2.912  0.00  0.00    +0.000 A 
ATOM      8  C   UNL     1      -4.058   3.500  -1.678  0.00  0.00    +0.000 A 
ATOM      9 CL   UNL     1      -3.312   4.277  -5.526  0.00  0.00    +0.000 Cl
ENDBRANCH   1   3
BRANCH   1  10
ATOM     10  C   UNL     1      -3.247   0.119   0.039  0.00  0.00    +0.000 C 
BRANCH  10  15
ATOM     11  C   UNL     1       2.541  -0.586   0.111  0.00  0.00    +0.000 C 
ATOM     12  C   UNL     1       1.055  -0.388   0.067  0.00  0.00    +0.000 A 
ATOM     13  C   UNL     1       0.473   0.725   0.682  0.00  0.00    +0.000 A 
ATOM     14  C   UNL     1      -0.914   0.896   0.675  0.00  0.00    +0.000 A 
ATOM     15  C   UNL     1      -1.745  -0.039   0.043  0.00  0.00    +0.000 A 
ATOM     16  C   UNL     1      -1.161  -1.172  -0.539  0.00  0.00    +0.000 A 
ATOM     17  C   UNL     1       0.226  -1.345  -0.527  0.00  0.00    +0.000 A 
ENDBRANCH  10  15
ENDBRANCH   1  10
TORSDOF 3
