REMARK  Name = *****
REMARK  5 active torsions:
REMARK  status: ('A' for Active; 'I' for Inactive)
REMARK    1  A    between atoms: C_1  and  C_2
REMARK    2  A    between atoms: C_2  and  N_3
REMARK    3  A    between atoms: N_3  and  C_4
REMARK    4  A    between atoms: C_9  and  C_10
REMARK    5  A    between atoms: C_11  and  C_13
REMARK                            x       y       z     vdW  Elec       q    Type
REMARK                         _______ _______ _______ _____ _____    ______ ____
ROOT
ATOM      1  N   UNL     1       3.165  -0.249   1.381  0.00  0.00    +0.000 N 
ATOM      2  C   UNL     1       4.524  -0.109   1.716  0.00  0.00    +0.000 C 
ATOM      3  O   UNL     1       5.000  -0.275   2.838  0.00  0.00    +0.000 OA
ENDROOT
BRANCH   1   4
ATOM      4  C   UNL     1       2.199  -0.335   2.447  0.00  0.00    +0.000 A 
ATOM      5  C   UNL     1       1.273  -1.393   2.474  0.00  0.00    +0.000 A 
ATOM      6  C   UNL     1       0.333  -1.513   3.501  0.00  0.00    +0.000 A 
ATOM      7  C   UNL     1       0.296  -0.571   4.520  0.00  0.00    +0.000 A 
ATOM      8  C   UNL     1       1.188   0.498   4.502  0.00  0.00    +0.000 A 
ATOM      9  C   UNL     1       2.128   0.646   3.463  0.00  0.00    +0.000 A 
ATOM     10  C   UNL     1       2.995   1.877   3.495  0.00  0.00    +0.000 C 
ENDBRANCH   1   4
BRANCH   2  11
ATOM     11  C   UNL     1       5.484   0.263   0.650  0.00  0.00    +0.000 A 
ATOM     12  C   UNL     1       5.278   1.408  -0.129  0.00  0.00    +0.000 A 
ATOM     13  C   UNL     1       6.210   1.754  -1.110  0.00  0.00    +0.000 A 
ATOM     14  C   UNL     1       7.347   0.966  -1.296  0.00  0.00    +0.000 A 
ATOM     15  C   UNL     1       7.568  -0.161  -0.504  0.00  0.00    +0.000 A 
ATOM     16  C   UNL     1       6.638  -0.510   0.479  0.00  0.00    +0.000 A 
ATOM     17 CL   UNL     1       8.492   1.394  -2.507  0.00  0.00    +0.000 Cl
ENDBRANCH   2  11
BRANCH   1  19
ATOM     18  C   UNL     1       1.683   0.298  -0.551  0.00  0.00    +0.000 C 
ATOM     19  C   UNL     1       2.739  -0.637   0.023  0.00  0.00    +0.000 C 
ENDBRANCH   1  19
TORSDOF 3
