REMARK  Name = *****
REMARK  4 active torsions:
REMARK  status: ('A' for Active; 'I' for Inactive)
REMARK    1  A    between atoms: C_1  and  C_2
REMARK    2  A    between atoms: C_5  and  S_8
REMARK    3  A    between atoms: S_8  and  C_9
REMARK    4  A    between atoms: C_9  and  C_11
REMARK                            x       y       z     vdW  Elec       q    Type
REMARK                         _______ _______ _______ _____ _____    ______ ____
ROOT
ATOM      1  C   UNL     1      -4.089   1.343  -0.368  0.00  0.00    +0.000 C 
ATOM      2  O   UNL     1      -3.438   1.519  -1.388  0.00  0.00    +0.000 OA
ENDROOT
BRANCH   1   3
ATOM      3  C   UNL     1      -5.455   1.877  -0.257  0.00  0.00    +0.000 A 
ATOM      4  C   UNL     1      -6.455   1.243  -1.010  0.00  0.00    +0.000 A 
ATOM      5  C   UNL     1      -7.769   1.705  -0.949  0.00  0.00    +0.000 A 
ATOM      6  C   UNL     1      -8.085   2.802  -0.149  0.00  0.00    +0.000 A 
ATOM      7  C   UNL     1      -7.086   3.447   0.586  0.00  0.00    +0.000 A 
ATOM      8  C   UNL     1      -5.765   2.990   0.530  0.00  0.00    +0.000 A 
ATOM      9 BR   UNL     1      -4.457   3.952   1.511  0.00  0.00    +0.000 Br
ENDBRANCH   1   3
BRANCH   1  10
ATOM     10  S   UNL     1      -3.572   0.343   0.983  0.00  0.00    +0.000 S 
BRANCH  10  15
ATOM     11  C   UNL     1       2.421  -0.191   0.026  0.00  0.00    +0.000 C 
ATOM     12  C   UNL     1       0.942  -0.045   0.232  0.00  0.00    +0.000 A 
ATOM     13  C   UNL     1       0.406   1.159   0.702  0.00  0.00    +0.000 A 
ATOM     14  C   UNL     1      -0.969   1.285   0.921  0.00  0.00    +0.000 A 
ATOM     15  C   UNL     1      -1.824   0.207   0.676  0.00  0.00    +0.000 A 
ATOM     16  C   UNL     1      -1.288  -1.004   0.230  0.00  0.00    +0.000 A 
ATOM     17  C   UNL     1       0.086  -1.130   0.011  0.00  0.00    +0.000 A 
ENDBRANCH  10  15
ENDBRANCH   1  10
TORSDOF 3
