REMARK  Name = *****
REMARK  4 active torsions:
REMARK  status: ('A' for Active; 'I' for Inactive)
REMARK    1  A    between atoms: C_1  and  C_2
REMARK    2  A    between atoms: C_2  and  C_11
REMARK    3  A    between atoms: N_3  and  O_4
REMARK    4  A    between atoms: O_4  and  C_5
REMARK                            x       y       z     vdW  Elec       q    Type
REMARK                         _______ _______ _______ _____ _____    ______ ____
ROOT
ATOM      1  C   UNL     1       1.072   0.233   0.531  0.00  0.00    +0.000 C 
ATOM      2  C   UNL     1       2.557   0.180   0.229  0.00  0.00    +0.000 C 
ATOM      3  N   UNL     1       3.236   1.210  -0.184  0.00  0.00    +0.000 NA
ENDROOT
BRANCH   2   4
ATOM      4  C   UNL     1       3.270  -1.120   0.406  0.00  0.00    +0.000 A 
ATOM      5  C   UNL     1       2.612  -2.344   0.240  0.00  0.00    +0.000 A 
ATOM      6  C   UNL     1       3.311  -3.543   0.408  0.00  0.00    +0.000 A 
ATOM      7  C   UNL     1       4.667  -3.523   0.734  0.00  0.00    +0.000 A 
ATOM      8  C   UNL     1       5.330  -2.307   0.887  0.00  0.00    +0.000 A 
ATOM      9  C   UNL     1       4.636  -1.108   0.720  0.00  0.00    +0.000 A 
ENDBRANCH   2   4
BRANCH   3  10
ATOM     10  O   UNL     1       2.421   2.341  -0.321  0.00  0.00    +0.000 OA
BRANCH  10  11
ATOM     11  C   UNL     1       3.143   3.432  -0.750  0.00  0.00    +0.000 A 
ATOM     12  C   UNL     1       4.440   3.376  -1.264  0.00  0.00    +0.000 A 
ATOM     13  C   UNL     1       5.079   4.546  -1.684  0.00  0.00    +0.000 A 
ATOM     14  C   UNL     1       4.422   5.772  -1.595  0.00  0.00    +0.000 A 
ATOM     15  C   UNL     1       3.124   5.832  -1.089  0.00  0.00    +0.000 A 
ATOM     16  C   UNL     1       2.486   4.663  -0.670  0.00  0.00    +0.000 A 
ENDBRANCH  10  11
ENDBRANCH   3  10
TORSDOF 3
