REMARK  Name = *****
REMARK  6 active torsions:
REMARK  status: ('A' for Active; 'I' for Inactive)
REMARK    1  A    between atoms: C_1  and  C_2
REMARK    2  A    between atoms: C_4  and  C_19
REMARK    3  A    between atoms: C_5  and  N_9
REMARK    4  A    between atoms: C_6  and  C_8
REMARK    5  A    between atoms: N_9  and  S_10
REMARK    6  A    between atoms: S_10  and  C_12
REMARK                            x       y       z     vdW  Elec       q    Type
REMARK                         _______ _______ _______ _____ _____    ______ ____
ROOT
ATOM      1  N   UNL     1      -2.324  -1.848   0.300  0.00  0.00    +0.000 N 
ATOM      2  H   UNL     1      -3.045  -1.928  -0.365  0.00  0.00    +0.000 HD
ENDROOT
BRANCH   1   7
ATOM      3  C   UNL     1       2.247   1.614  -0.218  0.00  0.00    +0.000 C 
ATOM      4  C   UNL     1       1.055   0.714  -0.079  0.00  0.00    +0.000 A 
ATOM      5  C   UNL     1       1.131  -0.626  -0.462  0.00  0.00    +0.000 A 
ATOM      6  C   UNL     1       0.014  -1.473  -0.369  0.00  0.00    +0.000 A 
ATOM      7  C   UNL     1      -1.213  -0.967   0.122  0.00  0.00    +0.000 A 
ATOM      8  C   UNL     1      -1.299   0.396   0.493  0.00  0.00    +0.000 A 
ATOM      9  C   UNL     1      -0.164   1.218   0.380  0.00  0.00    +0.000 A 
ATOM     10  C   UNL     1      -2.566   1.008   1.030  0.00  0.00    +0.000 C 
ATOM     11  C   UNL     1       0.163  -2.905  -0.805  0.00  0.00    +0.000 C 
ENDBRANCH   1   7
BRANCH   1  12
ATOM     12  S   UNL     1      -2.313  -2.746   1.741  0.00  0.00    +0.000 S 
ATOM     13  O   UNL     1      -3.064  -1.970   2.783  0.00  0.00    +0.000 OA
BRANCH  12  14
ATOM     14  C   UNL     1      -3.538  -3.933   1.102  0.00  0.00    +0.000 A 
ATOM     15  C   UNL     1      -4.822  -4.002   1.658  0.00  0.00    +0.000 A 
ATOM     16  C   UNL     1      -5.743  -4.925   1.167  0.00  0.00    +0.000 A 
ATOM     17  C   UNL     1      -5.399  -5.788   0.128  0.00  0.00    +0.000 A 
ATOM     18  C   UNL     1      -4.119  -5.731  -0.424  0.00  0.00    +0.000 A 
ATOM     19  C   UNL     1      -3.191  -4.809   0.064  0.00  0.00    +0.000 A 
ATOM     20 CL   UNL     1      -7.321  -5.003   1.849  0.00  0.00    +0.000 Cl
ENDBRANCH  12  14
ENDBRANCH   1  12
TORSDOF 3
