REMARK  Name = *****
REMARK  3 active torsions:
REMARK  status: ('A' for Active; 'I' for Inactive)
REMARK    1  A    between atoms: C_1  and  C_2
REMARK    2  A    between atoms: C_5  and  O_8
REMARK    3  A    between atoms: O_8  and  C_9
REMARK                            x       y       z     vdW  Elec       q    Type
REMARK                         _______ _______ _______ _____ _____    ______ ____
ROOT
ATOM      1  O   UNL     1      -3.401   0.055  -0.215  0.00  0.00    +0.000 OA
ENDROOT
BRANCH   1   6
ATOM      2  C   UNL     1      -5.894  -4.299   2.427  0.00  0.00    +0.000 C 
ATOM      3  C   UNL     1      -5.259  -3.121   1.748  0.00  0.00    +0.000 A 
ATOM      4  C   UNL     1      -5.953  -2.417   0.755  0.00  0.00    +0.000 A 
ATOM      5  C   UNL     1      -5.350  -1.344   0.096  0.00  0.00    +0.000 A 
ATOM      6  C   UNL     1      -4.049  -0.968   0.433  0.00  0.00    +0.000 A 
ATOM      7  C   UNL     1      -3.336  -1.682   1.392  0.00  0.00    +0.000 A 
ATOM      8  C   UNL     1      -3.940  -2.756   2.050  0.00  0.00    +0.000 A 
ENDBRANCH   1   6
BRANCH   1   9
ATOM      9  C   UNL     1      -3.997   1.295  -0.177  0.00  0.00    +0.000 C 
ATOM     10  C   UNL     1      -3.574   2.333  -0.915  0.00  0.00    +0.000 C 
ATOM     11  C   UNL     1      -2.406   2.262  -1.868  0.00  0.00    +0.000 C 
ATOM     12  C   UNL     1      -1.386   3.358  -1.558  0.00  0.00    +0.000 C 
ATOM     13  C   UNL     1      -2.035   4.742  -1.509  0.00  0.00    +0.000 C 
ATOM     14  C   UNL     1      -3.209   4.777  -0.529  0.00  0.00    +0.000 C 
ATOM     15  C   UNL     1      -4.236   3.686  -0.834  0.00  0.00    +0.000 C 
ENDBRANCH   1   9
TORSDOF 2
