REMARK  Name = *****
REMARK  3 active torsions:
REMARK  status: ('A' for Active; 'I' for Inactive)
REMARK    1  A    between atoms: C_5  and  C_7
REMARK    2  A    between atoms: C_7  and  C_8
REMARK    3  A    between atoms: C_8  and  C_9
REMARK                            x       y       z     vdW  Elec       q    Type
REMARK                         _______ _______ _______ _____ _____    ______ ____
ROOT
ATOM      1  C   UNL     1      -2.418   0.304  -0.954  0.00  0.00    +0.000 C 
ENDROOT
BRANCH   1   6
ATOM      2  C   UNL     1       1.046   0.682  -0.668  0.00  0.00    +0.000 C 
ATOM      3  C   UNL     1       1.072  -0.817  -0.355  0.00  0.00    +0.000 C 
ATOM      4  C   UNL     1      -0.378  -1.200  -0.285  0.00  0.00    +0.000 C 
ATOM      5  C   UNL     1      -1.167  -1.025   0.984  0.00  0.00    +0.000 C 
ATOM      6  C   UNL     1      -1.201   0.047  -0.088  0.00  0.00    +0.000 C 
ATOM      7  C   UNL     1      -0.222   1.204   0.016  0.00  0.00    +0.000 C 
ENDBRANCH   1   6
BRANCH   1   8
ATOM      8  C   UNL     1      -3.480  -0.798  -0.974  0.00  0.00    +0.000 C 
BRANCH   8   9
ATOM      9  C   UNL     1      -4.613  -0.462  -1.914  0.00  0.00    +0.000 A 
ATOM     10  C   UNL     1      -4.541  -0.819  -3.267  0.00  0.00    +0.000 A 
ATOM     11  C   UNL     1      -5.580  -0.493  -4.140  0.00  0.00    +0.000 A 
ATOM     12  C   UNL     1      -6.697   0.196  -3.670  0.00  0.00    +0.000 A 
ATOM     13  C   UNL     1      -6.774   0.562  -2.328  0.00  0.00    +0.000 A 
ATOM     14  C   UNL     1      -5.736   0.237  -1.453  0.00  0.00    +0.000 A 
ENDBRANCH   8   9
ENDBRANCH   1   8
TORSDOF 3
