REMARK  Name = *****
REMARK  3 active torsions:
REMARK  status: ('A' for Active; 'I' for Inactive)
REMARK    1  A    between atoms: C_4  and  C_8
REMARK    2  A    between atoms: C_8  and  O_9
REMARK    3  A    between atoms: O_9  and  C_10
REMARK                            x       y       z     vdW  Elec       q    Type
REMARK                         _______ _______ _______ _____ _____    ______ ____
ROOT
ATOM      1  C   UNL     1       1.496  -2.289   0.569  0.00  0.00    +0.000 C 
ENDROOT
BRANCH   1   5
ATOM      2  C   UNL     1       1.662   0.858   1.023  0.00  0.00    +0.000 C 
ATOM      3  C   UNL     1       2.816   0.717   2.020  0.00  0.00    +0.000 C 
ATOM      4  C   UNL     1       2.921  -0.820   2.135  0.00  0.00    +0.000 C 
ATOM      5  C   UNL     1       2.656  -1.296   0.668  0.00  0.00    +0.000 C 
ATOM      6  C   UNL     1       2.369   0.040  -0.064  0.00  0.00    +0.000 C 
ATOM      7  C   UNL     1       3.673   0.808  -0.111  0.00  0.00    +0.000 C 
ATOM      8  C   UNL     1       3.944   1.206   1.141  0.00  0.00    +0.000 C 
ENDBRANCH   1   5
BRANCH   1   9
ATOM      9  O   UNL     1       1.868  -3.479   1.267  0.00  0.00    +0.000 OA
BRANCH   9  10
ATOM     10  C   UNL     1       0.945  -4.487   1.318  0.00  0.00    +0.000 A 
ATOM     11  C   UNL     1      -0.305  -4.490   0.698  0.00  0.00    +0.000 A 
ATOM     12  C   UNL     1      -1.153  -5.593   0.834  0.00  0.00    +0.000 A 
ATOM     13  C   UNL     1      -0.757  -6.696   1.589  0.00  0.00    +0.000 A 
ATOM     14  C   UNL     1       0.490  -6.699   2.208  0.00  0.00    +0.000 A 
ATOM     15  C   UNL     1       1.337  -5.597   2.071  0.00  0.00    +0.000 A 
ENDBRANCH   9  10
ENDBRANCH   1   9
TORSDOF 3
