REMARK  Name = *****
REMARK  4 active torsions:
REMARK  status: ('A' for Active; 'I' for Inactive)
REMARK    1  A    between atoms: C_1  and  C_2
REMARK    2  A    between atoms: C_5  and  C_8
REMARK    3  A    between atoms: C_9  and  O_10
REMARK    4  A    between atoms: O_10  and  C_11
REMARK                            x       y       z     vdW  Elec       q    Type
REMARK                         _______ _______ _______ _____ _____    ______ ____
ROOT
ATOM      1  C   UNL     1      -3.256   0.066  -0.325  0.00  0.00    +0.000 C 
ATOM      2  C   UNL     1      -4.017   1.159  -0.450  0.00  0.00    +0.000 C 
ENDROOT
BRANCH   1   7
ATOM      3  C   UNL     1       2.502  -0.022   0.277  0.00  0.00    +0.000 C 
ATOM      4  C   UNL     1       1.013   0.030   0.100  0.00  0.00    +0.000 A 
ATOM      5  C   UNL     1       0.261   1.044   0.702  0.00  0.00    +0.000 A 
ATOM      6  C   UNL     1      -1.131   1.073   0.563  0.00  0.00    +0.000 A 
ATOM      7  C   UNL     1      -1.795   0.089  -0.179  0.00  0.00    +0.000 A 
ATOM      8  C   UNL     1      -1.042  -0.942  -0.752  0.00  0.00    +0.000 A 
ATOM      9  C   UNL     1       0.350  -0.971  -0.615  0.00  0.00    +0.000 A 
ENDBRANCH   1   7
BRANCH   2  10
ATOM     10  O   UNL     1      -5.384   1.074  -0.587  0.00  0.00    +0.000 OA
BRANCH  10  11
ATOM     11  C   UNL     1      -6.049   2.234  -0.899  0.00  0.00    +0.000 A 
ATOM     12  C   UNL     1      -5.776   2.942  -2.073  0.00  0.00    +0.000 A 
ATOM     13  C   UNL     1      -6.504   4.095  -2.370  0.00  0.00    +0.000 A 
ATOM     14  C   UNL     1      -7.508   4.523  -1.500  0.00  0.00    +0.000 A 
ATOM     15  C   UNL     1      -7.795   3.804  -0.339  0.00  0.00    +0.000 A 
ATOM     16  C   UNL     1      -7.067   2.650  -0.042  0.00  0.00    +0.000 A 
ATOM     17 CL   UNL     1      -8.406   5.944  -1.867  0.00  0.00    +0.000 Cl
ENDBRANCH  10  11
ENDBRANCH   2  10
TORSDOF 3
