REMARK  Name = *****
REMARK  5 active torsions:
REMARK  status: ('A' for Active; 'I' for Inactive)
REMARK    1  A    between atoms: C_4  and  C_7
REMARK    2  A    between atoms: C_7  and  C_8
REMARK    3  A    between atoms: C_7  and  O_10
REMARK    4  A    between atoms: O_10  and  C_11
REMARK    5  A    between atoms: C_11  and  C_13
REMARK                            x       y       z     vdW  Elec       q    Type
REMARK                         _______ _______ _______ _____ _____    ______ ____
ROOT
ATOM      1  C   UNL     1      -2.835   0.373  -0.061  0.00  0.00    +0.000 C 
ENDROOT
BRANCH   1   5
ATOM      2  C   UNL     1       1.409  -0.452   0.162  0.00  0.00    +0.000 A 
ATOM      3  C   UNL     1       0.821   0.442   1.053  0.00  0.00    +0.000 A 
ATOM      4  C   UNL     1      -0.549   0.704   0.981  0.00  0.00    +0.000 A 
ATOM      5  C   UNL     1      -1.348   0.073   0.014  0.00  0.00    +0.000 A 
ATOM      6  C   UNL     1      -0.740  -0.822  -0.880  0.00  0.00    +0.000 A 
ATOM      7  C   UNL     1       0.629  -1.084  -0.805  0.00  0.00    +0.000 A 
ENDBRANCH   1   5
BRANCH   1   8
ATOM      8  C   UNL     1      -3.184   1.252  -1.269  0.00  0.00    +0.000 C 
ATOM      9  F   UNL     1      -2.930   0.585  -2.432  0.00  0.00    +0.000 F 
ENDBRANCH   1   8
BRANCH   1  10
ATOM     10  O   UNL     1      -3.546  -0.880  -0.114  0.00  0.00    +0.000 OA
BRANCH  10  11
ATOM     11  C   UNL     1      -4.843  -0.829   0.268  0.00  0.00    +0.000 C 
ATOM     12  O   UNL     1      -5.428   0.166   0.667  0.00  0.00    +0.000 OA
BRANCH  11  13
ATOM     13  C   UNL     1      -5.474  -2.170   0.155  0.00  0.00    +0.000 A 
ATOM     14  C   UNL     1      -6.729  -2.364   0.746  0.00  0.00    +0.000 A 
ATOM     15  C   UNL     1      -7.363  -3.605   0.659  0.00  0.00    +0.000 A 
ATOM     16  C   UNL     1      -6.749  -4.655  -0.023  0.00  0.00    +0.000 A 
ATOM     17  C   UNL     1      -5.502  -4.467  -0.618  0.00  0.00    +0.000 A 
ATOM     18  C   UNL     1      -4.863  -3.229  -0.531  0.00  0.00    +0.000 A 
ENDBRANCH  11  13
ENDBRANCH  10  11
ENDBRANCH   1  10
TORSDOF 5
