REMARK  Name = *****
REMARK  4 active torsions:
REMARK  status: ('A' for Active; 'I' for Inactive)
REMARK    1  A    between atoms: C_1  and  C_2
REMARK    2  A    between atoms: C_5  and  C_8
REMARK    3  A    between atoms: C_8  and  C_9
REMARK    4  A    between atoms: C_9  and  C_11
REMARK                            x       y       z     vdW  Elec       q    Type
REMARK                         _______ _______ _______ _____ _____    ______ ____
ROOT
ATOM      1  C   UNL     1      -3.235   0.233   0.207  0.00  0.00    +0.000 C 
ENDROOT
BRANCH   1   6
ATOM      2  C   UNL     1       2.363  -0.182  -1.352  0.00  0.00    +0.000 C 
ATOM      3  C   UNL     1       0.921  -0.051  -0.962  0.00  0.00    +0.000 A 
ATOM      4  C   UNL     1       0.570   0.438   0.300  0.00  0.00    +0.000 A 
ATOM      5  C   UNL     1      -0.772   0.534   0.676  0.00  0.00    +0.000 A 
ATOM      6  C   UNL     1      -1.787   0.128  -0.199  0.00  0.00    +0.000 A 
ATOM      7  C   UNL     1      -1.434  -0.366  -1.462  0.00  0.00    +0.000 A 
ATOM      8  C   UNL     1      -0.092  -0.462  -1.836  0.00  0.00    +0.000 A 
ENDBRANCH   1   6
BRANCH   1   9
ATOM      9  C   UNL     1      -3.853   1.610   0.005  0.00  0.00    +0.000 C 
ATOM     10  O   UNL     1      -3.183   2.636  -0.114  0.00  0.00    +0.000 OA
BRANCH   9  11
ATOM     11  C   UNL     1      -5.381   1.656  -0.011  0.00  0.00    +0.000 C 
ATOM     12  C   UNL     1      -5.893   1.385  -1.428  0.00  0.00    +0.000 C 
ATOM     13  C   UNL     1      -7.416   1.468  -1.502  0.00  0.00    +0.000 C 
ATOM     14  C   UNL     1      -7.938   2.797  -0.962  0.00  0.00    +0.000 C 
ATOM     15  C   UNL     1      -7.427   3.070   0.449  0.00  0.00    +0.000 C 
ATOM     16  C   UNL     1      -5.904   2.998   0.517  0.00  0.00    +0.000 C 
ENDBRANCH   9  11
ENDBRANCH   1   9
TORSDOF 3
