REMARK  Name = *****
REMARK  5 active torsions:
REMARK  status: ('A' for Active; 'I' for Inactive)
REMARK    1  A    between atoms: C_1  and  N_2
REMARK    2  A    between atoms: N_2  and  C_3
REMARK    3  A    between atoms: N_2  and  C_4
REMARK    4  A    between atoms: C_7  and  C_10
REMARK    5  A    between atoms: C_11  and  C_12
REMARK                            x       y       z     vdW  Elec       q    Type
REMARK                         _______ _______ _______ _____ _____    ______ ____
ROOT
ATOM      1  C   UNL     1       3.249  -0.890   0.888  0.00  0.00    +0.000 A 
ATOM      2  C   UNL     1       2.833  -2.192   1.224  0.00  0.00    +0.000 A 
ATOM      3  C   UNL     1       3.489  -2.963   2.195  0.00  0.00    +0.000 A 
ATOM      4  C   UNL     1       4.599  -2.454   2.859  0.00  0.00    +0.000 A 
ATOM      5  C   UNL     1       5.051  -1.179   2.542  0.00  0.00    +0.000 A 
ATOM      6  C   UNL     1       4.386  -0.417   1.569  0.00  0.00    +0.000 A 
ENDROOT
BRANCH   1   8
ATOM      7  C   UNL     1       1.310  -0.577  -0.608  0.00  0.00    +0.000 C 
ATOM      8  N   UNL     1       2.602  -0.129  -0.092  0.00  0.00    +0.000 N 
ATOM      9  C   UNL     1       2.829   1.315  -0.126  0.00  0.00    +0.000 C 
ENDBRANCH   1   8
BRANCH   4  10
ATOM     10  C   UNL     1       5.270  -3.235   3.851  0.00  0.00    +0.000 C 
ATOM     11  C   UNL     1       5.832  -3.891   4.686  0.00  0.00    +0.000 C 
BRANCH  11  12
ATOM     12  C   UNL     1       6.497  -4.673   5.681  0.00  0.00    +0.000 A 
ATOM     13  C   UNL     1       7.406  -4.067   6.554  0.00  0.00    +0.000 A 
ATOM     14  C   UNL     1       8.055  -4.830   7.529  0.00  0.00    +0.000 A 
ATOM     15  C   UNL     1       7.792  -6.196   7.626  0.00  0.00    +0.000 A 
ATOM     16  C   UNL     1       6.887  -6.806   6.758  0.00  0.00    +0.000 A 
ATOM     17  C   UNL     1       6.239  -6.042   5.784  0.00  0.00    +0.000 A 
ATOM     18 CL   UNL     1       8.590  -7.136   8.826  0.00  0.00    +0.000 Cl
ENDBRANCH  11  12
ENDBRANCH   4  10
TORSDOF 3
