REMARK  Name = *****
REMARK  5 active torsions:
REMARK  status: ('A' for Active; 'I' for Inactive)
REMARK    1  A    between atoms: C_1  and  C_2
REMARK    2  A    between atoms: C_2  and  C_4
REMARK    3  A    between atoms: C_9  and  S_10
REMARK    4  A    between atoms: S_10  and  C_11
REMARK    5  A    between atoms: C_11  and  C_13
REMARK                            x       y       z     vdW  Elec       q    Type
REMARK                         _______ _______ _______ _____ _____    ______ ____
ROOT
ATOM      1  S   UNL     1       5.790   2.556   0.637  0.00  0.00    +0.000 S 
ENDROOT
BRANCH   1   7
ATOM      2  C   UNL     1       3.705   0.762   1.266  0.00  0.00    +0.000 A 
ATOM      3  C   UNL     1       2.909   0.058   2.184  0.00  0.00    +0.000 A 
ATOM      4  C   UNL     1       3.148   0.172   3.553  0.00  0.00    +0.000 A 
ATOM      5  C   UNL     1       4.179   0.987   4.010  0.00  0.00    +0.000 A 
ATOM      6  C   UNL     1       4.975   1.688   3.100  0.00  0.00    +0.000 A 
ATOM      7  C   UNL     1       4.754   1.579   1.718  0.00  0.00    +0.000 A 
BRANCH   2   9
ATOM      8  C   UNL     1       1.972   0.809  -0.614  0.00  0.00    +0.000 C 
ATOM      9  C   UNL     1       3.400   0.604  -0.178  0.00  0.00    +0.000 C 
ATOM     10  O   UNL     1       4.279   0.283  -0.972  0.00  0.00    +0.000 OA
ENDBRANCH   2   9
ENDBRANCH   1   7
BRANCH   1  11
ATOM     11  C   UNL     1       7.067   1.395   0.294  0.00  0.00    +0.000 C 
ATOM     12  O   UNL     1       7.359   0.462   1.030  0.00  0.00    +0.000 OA
BRANCH  11  13
ATOM     13  C   UNL     1       7.782   1.606  -0.972  0.00  0.00    +0.000 A 
ATOM     14  C   UNL     1       7.446   0.787  -2.058  0.00  0.00    +0.000 A 
ATOM     15  C   UNL     1       8.108   0.942  -3.276  0.00  0.00    +0.000 A 
ATOM     16  C   UNL     1       9.110   1.903  -3.407  0.00  0.00    +0.000 A 
ATOM     17  C   UNL     1       9.457   2.708  -2.318  0.00  0.00    +0.000 A 
ATOM     18  C   UNL     1       8.797   2.559  -1.094  0.00  0.00    +0.000 A 
ATOM     19 CL   UNL     1       9.296   3.560   0.221  0.00  0.00    +0.000 Cl
ENDBRANCH  11  13
ENDBRANCH   1  11
TORSDOF 4
