REMARK  Name = *****
REMARK  1 active torsions:
REMARK  status: ('A' for Active; 'I' for Inactive)
REMARK    1  A    between atoms: C_3  and  C_6
REMARK                            x       y       z     vdW  Elec       q    Type
REMARK                         _______ _______ _______ _____ _____    ______ ____
ROOT
ATOM      1  C   UNL     1      -2.145  -0.880   1.112  0.00  0.00    +0.000 A 
ATOM      2  C   UNL     1      -3.320  -1.566   0.761  0.00  0.00    +0.000 A 
ATOM      3  C   UNL     1      -4.256  -1.963   1.732  0.00  0.00    +0.000 A 
ATOM      4  C   UNL     1      -5.432  -2.646   1.380  0.00  0.00    +0.000 A 
ATOM      5  C   UNL     1      -6.353  -3.033   2.356  0.00  0.00    +0.000 A 
ATOM      6  C   UNL     1      -6.110  -2.743   3.695  0.00  0.00    +0.000 A 
ATOM      7  C   UNL     1      -4.946  -2.065   4.061  0.00  0.00    +0.000 A 
ATOM      8  C   UNL     1      -4.011  -1.669   3.091  0.00  0.00    +0.000 A 
ATOM      9  C   UNL     1      -2.837  -0.987   3.443  0.00  0.00    +0.000 A 
ATOM     10  C   UNL     1      -1.917  -0.598   2.466  0.00  0.00    +0.000 A 
ENDROOT
BRANCH   1  13
ATOM     11  C   UNL     1       1.259  -0.209  -0.272  0.00  0.00    +0.000 C 
ATOM     12  C   UNL     1       0.185  -1.221   0.134  0.00  0.00    +0.000 C 
ATOM     13  C   UNL     1      -1.160  -0.478   0.036  0.00  0.00    +0.000 C 
ATOM     14  C   UNL     1      -0.739   0.963   0.089  0.00  0.00    +0.000 C 
ATOM     15  C   UNL     1       0.580   1.105  -0.079  0.00  0.00    +0.000 C 
ENDBRANCH   1  13
TORSDOF 1
