REMARK  Name = *****
REMARK  5 active torsions:
REMARK  status: ('A' for Active; 'I' for Inactive)
REMARK    1  A    between atoms: C_1  and  C_2
REMARK    2  A    between atoms: C_5  and  C_16
REMARK    3  A    between atoms: N_8  and  C_9
REMARK    4  A    between atoms: C_9  and  C_10
REMARK    5  A    between atoms: C_16  and  C_18
REMARK                            x       y       z     vdW  Elec       q    Type
REMARK                         _______ _______ _______ _____ _____    ______ ____
ROOT
ATOM      1  C   UNL     1       1.207  -0.106  -0.417  0.00  0.00    +0.000 C 
ATOM      2  C   UNL     1       2.677  -0.024  -0.133  0.00  0.00    +0.000 C 
ATOM      3  C   UNL     1       3.325   1.140   0.032  0.00  0.00    +0.000 C 
ATOM      4  C   UNL     1       4.794   1.285   0.281  0.00  0.00    +0.000 C 
ATOM      5  C   UNL     1       5.619   0.028  -0.032  0.00  0.00    +0.000 C 
ATOM      6  C   UNL     1       4.896  -1.252   0.402  0.00  0.00    +0.000 C 
ATOM      7  C   UNL     1       3.430  -1.316  -0.012  0.00  0.00    +0.000 C 
ATOM      8  N   UNL     1       2.783  -2.419  -0.205  0.00  0.00    +0.000 NA
ENDROOT
BRANCH   5   9
ATOM      9  C   UNL     1       6.129  -0.027  -1.475  0.00  0.00    +0.000 C 
ATOM     10  C   UNL     1       7.448  -0.002  -1.739  0.00  0.00    +0.000 C 
ATOM     11  C   UNL     1       5.136  -0.109  -2.604  0.00  0.00    +0.000 C 
ENDBRANCH   5   9
BRANCH   8  12
ATOM     12  C   UNL     1       3.462  -3.703  -0.044  0.00  0.00    +0.000 C 
BRANCH  12  13
ATOM     13  C   UNL     1       2.498  -4.868  -0.090  0.00  0.00    +0.000 A 
ATOM     14  C   UNL     1       2.865  -6.066  -0.720  0.00  0.00    +0.000 A 
ATOM     15  C   UNL     1       1.998  -7.161  -0.727  0.00  0.00    +0.000 A 
ATOM     16  C   UNL     1       0.758  -7.074  -0.096  0.00  0.00    +0.000 A 
ATOM     17  C   UNL     1       0.386  -5.894   0.545  0.00  0.00    +0.000 A 
ATOM     18  C   UNL     1       1.253  -4.800   0.553  0.00  0.00    +0.000 A 
ENDBRANCH  12  13
ENDBRANCH   8  12
TORSDOF 3
