REMARK  Name = *****
REMARK  4 active torsions:
REMARK  status: ('A' for Active; 'I' for Inactive)
REMARK    1  A    between atoms: C_4  and  O_7
REMARK    2  A    between atoms: O_7  and  C_8
REMARK    3  A    between atoms: C_8  and  O_10
REMARK    4  A    between atoms: O_10  and  C_11
REMARK                            x       y       z     vdW  Elec       q    Type
REMARK                         _______ _______ _______ _____ _____    ______ ____
ROOT
ATOM      1  C   UNL     1      -3.382   0.181  -1.207  0.00  0.00    +0.000 C 
ATOM      2  O   UNL     1      -3.223  -0.978  -1.568  0.00  0.00    +0.000 OA
ENDROOT
BRANCH   1   3
ATOM      3  O   UNL     1      -2.476   0.955  -0.494  0.00  0.00    +0.000 OA
BRANCH   3   7
ATOM      4  C   UNL     1       1.235  -0.684   0.497  0.00  0.00    +0.000 A 
ATOM      5  C   UNL     1       0.856  -0.619  -0.846  0.00  0.00    +0.000 A 
ATOM      6  C   UNL     1      -0.385  -0.087  -1.197  0.00  0.00    +0.000 A 
ATOM      7  C   UNL     1      -1.245   0.357  -0.193  0.00  0.00    +0.000 A 
ATOM      8  C   UNL     1      -0.867   0.316   1.148  0.00  0.00    +0.000 A 
ATOM      9  C   UNL     1       0.376  -0.214   1.492  0.00  0.00    +0.000 A 
ENDBRANCH   3   7
ENDBRANCH   1   3
BRANCH   1  10
ATOM     10  O   UNL     1      -4.503   0.967  -1.436  0.00  0.00    +0.000 OA
BRANCH  10  11
ATOM     11  C   UNL     1      -5.485   0.317  -2.184  0.00  0.00    +0.000 A 
ATOM     12  C   UNL     1      -6.520  -0.340  -1.521  0.00  0.00    +0.000 A 
ATOM     13  C   UNL     1      -7.529  -0.948  -2.269  0.00  0.00    +0.000 A 
ATOM     14  C   UNL     1      -7.496  -0.877  -3.663  0.00  0.00    +0.000 A 
ATOM     15  C   UNL     1      -6.466  -0.199  -4.319  0.00  0.00    +0.000 A 
ATOM     16  C   UNL     1      -5.456   0.410  -3.575  0.00  0.00    +0.000 A 
ATOM     17 BR   UNL     1      -8.866  -1.699  -4.674  0.00  0.00    +0.000 Br
ENDBRANCH  10  11
ENDBRANCH   1  10
TORSDOF 4
