REMARK  Name = *****
REMARK  4 active torsions:
REMARK  status: ('A' for Active; 'I' for Inactive)
REMARK    1  A    between atoms: C_1  and  C_2
REMARK    2  A    between atoms: C_5  and  S_8
REMARK    3  A    between atoms: S_8  and  S_9
REMARK    4  A    between atoms: S_9  and  C_11
REMARK                            x       y       z     vdW  Elec       q    Type
REMARK                         _______ _______ _______ _____ _____    ______ ____
ROOT
ATOM      1  S   UNL     1      -3.605  -0.472  -0.337  0.00  0.00    +0.000 S 
ENDROOT
BRANCH   1   6
ATOM      2  C   UNL     1       2.423   0.315   0.123  0.00  0.00    +0.000 C 
ATOM      3  C   UNL     1       0.941   0.130  -0.023  0.00  0.00    +0.000 A 
ATOM      4  C   UNL     1       0.058   1.146   0.358  0.00  0.00    +0.000 A 
ATOM      5  C   UNL     1      -1.324   0.960   0.253  0.00  0.00    +0.000 A 
ATOM      6  C   UNL     1      -1.840  -0.246  -0.231  0.00  0.00    +0.000 A 
ATOM      7  C   UNL     1      -0.960  -1.271  -0.586  0.00  0.00    +0.000 A 
ATOM      8  C   UNL     1       0.422  -1.086  -0.482  0.00  0.00    +0.000 A 
ENDBRANCH   1   6
BRANCH   1   9
ATOM      9  S   UNL     1      -3.904  -0.446  -2.345  0.00  0.00    +0.000 S 
ATOM     10  O   UNL     1      -3.403  -1.819  -2.692  0.00  0.00    +0.000 OA
BRANCH   9  11
ATOM     11  C   UNL     1      -5.710  -0.548  -2.405  0.00  0.00    +0.000 A 
ATOM     12  C   UNL     1      -6.478   0.592  -2.137  0.00  0.00    +0.000 A 
ATOM     13  C   UNL     1      -7.872   0.531  -2.193  0.00  0.00    +0.000 A 
ATOM     14  C   UNL     1      -8.505  -0.666  -2.522  0.00  0.00    +0.000 A 
ATOM     15  C   UNL     1      -7.747  -1.804  -2.796  0.00  0.00    +0.000 A 
ATOM     16  C   UNL     1      -6.354  -1.745  -2.740  0.00  0.00    +0.000 A 
ENDBRANCH   9  11
ENDBRANCH   1   9
TORSDOF 3
