REMARK  Name = *****
REMARK  5 active torsions:
REMARK  status: ('A' for Active; 'I' for Inactive)
REMARK    1  A    between atoms: C_1  and  O_2
REMARK    2  A    between atoms: O_2  and  C_3
REMARK    3  A    between atoms: C_6  and  S_9
REMARK    4  A    between atoms: S_9  and  C_10
REMARK    5  A    between atoms: C_10  and  C_12
REMARK                            x       y       z     vdW  Elec       q    Type
REMARK                         _______ _______ _______ _____ _____    ______ ____
ROOT
ATOM      1  S   UNL     1       5.386  -4.897   1.597  0.00  0.00    +0.000 S 
ENDROOT
BRANCH   1   5
ATOM      2  C   UNL     1       3.242  -1.084   0.191  0.00  0.00    +0.000 A 
ATOM      3  C   UNL     1       2.564  -2.302   0.190  0.00  0.00    +0.000 A 
ATOM      4  C   UNL     1       3.214  -3.470   0.609  0.00  0.00    +0.000 A 
ATOM      5  C   UNL     1       4.551  -3.436   1.016  0.00  0.00    +0.000 A 
ATOM      6  C   UNL     1       5.224  -2.212   1.027  0.00  0.00    +0.000 A 
ATOM      7  C   UNL     1       4.572  -1.046   0.615  0.00  0.00    +0.000 A 
BRANCH   2   9
ATOM      8  C   UNL     1       1.392   0.129  -0.677  0.00  0.00    +0.000 C 
ATOM      9  O   UNL     1       2.727   0.125  -0.187  0.00  0.00    +0.000 OA
ENDBRANCH   2   9
ENDBRANCH   1   5
BRANCH   1  10
ATOM     10  C   UNL     1       5.402  -5.941   0.176  0.00  0.00    +0.000 C 
ATOM     11  O   UNL     1       4.688  -5.729  -0.798  0.00  0.00    +0.000 OA
BRANCH  10  12
ATOM     12  C   UNL     1       6.284  -7.149   0.207  0.00  0.00    +0.000 A 
ATOM     13  C   UNL     1       7.321  -7.332   1.134  0.00  0.00    +0.000 A 
ATOM     14  C   UNL     1       8.104  -8.491   1.099  0.00  0.00    +0.000 A 
ATOM     15  C   UNL     1       7.862  -9.472   0.140  0.00  0.00    +0.000 A 
ATOM     16  C   UNL     1       6.841  -9.299  -0.791  0.00  0.00    +0.000 A 
ATOM     17  C   UNL     1       6.058  -8.142  -0.760  0.00  0.00    +0.000 A 
ENDBRANCH  10  12
ENDBRANCH   1  10
TORSDOF 4
