REMARK  Name = *****
REMARK  2 active torsions:
REMARK  status: ('A' for Active; 'I' for Inactive)
REMARK    1  A    between atoms: C_4  and  C_6
REMARK    2  A    between atoms: C_7  and  C_8
REMARK                            x       y       z     vdW  Elec       q    Type
REMARK                         _______ _______ _______ _____ _____    ______ ____
ROOT
ATOM      1  C   UNL     1      -0.842  -2.449   0.020  0.00  0.00    +0.000 C 
ATOM      2  C   UNL     1      -0.110  -3.570  -0.072  0.00  0.00    +0.000 C 
ENDROOT
BRANCH   2   3
ATOM      3  C   UNL     1      -0.678  -4.925  -0.061  0.00  0.00    +0.000 A 
ATOM      4  C   UNL     1      -1.870  -5.242  -0.728  0.00  0.00    +0.000 A 
ATOM      5  C   UNL     1      -2.363  -6.551  -0.718  0.00  0.00    +0.000 A 
ATOM      6  C   UNL     1      -1.660  -7.551  -0.050  0.00  0.00    +0.000 A 
ATOM      7  C   UNL     1      -0.467  -7.255   0.603  0.00  0.00    +0.000 A 
ATOM      8  C   UNL     1       0.025  -5.946   0.592  0.00  0.00    +0.000 A 
ATOM      9 CL   UNL     1      -2.266  -9.161  -0.039  0.00  0.00    +0.000 Cl
ENDBRANCH   2   3
BRANCH   1  13
ATOM     10  C   UNL     1       0.192   1.065   0.056  0.00  0.00    +0.000 A 
ATOM     11  C   UNL     1       1.370   0.374  -0.059  0.00  0.00    +0.000 A 
ATOM     12  O   UNL     1       1.136  -0.960  -0.086  0.00  0.00    +0.000 OA
ATOM     13  C   UNL     1      -0.224  -1.167   0.014  0.00  0.00    +0.000 A 
ATOM     14  C   UNL     1      -0.826   0.083   0.103  0.00  0.00    +0.000 A 
ENDBRANCH   1  13
TORSDOF 2
