REMARK  Name = *****
REMARK  2 active torsions:
REMARK  status: ('A' for Active; 'I' for Inactive)
REMARK    1  A    between atoms: C_1  and  C_2
REMARK    2  A    between atoms: C_3  and  C_12
REMARK                            x       y       z     vdW  Elec       q    Type
REMARK                         _______ _______ _______ _____ _____    ______ ____
ROOT
ATOM      1  C   UNL     1       0.902   0.119  -0.134  0.00  0.00    +0.000 C 
ATOM      2  C   UNL     1       2.395  -0.004   0.049  0.00  0.00    +0.000 C 
ATOM      3  C   UNL     1       3.044  -1.184   0.180  0.00  0.00    +0.000 C 
ATOM      4  C   UNL     1       4.533  -1.276   0.409  0.00  0.00    +0.000 C 
ATOM      5  C   UNL     1       5.295  -0.098  -0.193  0.00  0.00    +0.000 C 
ATOM      6  C   UNL     1       4.595   1.215   0.039  0.00  0.00    +0.000 A 
ATOM      7  C   UNL     1       5.350   2.398   0.084  0.00  0.00    +0.000 A 
ATOM      8  C   UNL     1       4.722   3.632   0.229  0.00  0.00    +0.000 A 
ATOM      9  C   UNL     1       3.336   3.692   0.320  0.00  0.00    +0.000 A 
ATOM     10  C   UNL     1       2.578   2.518   0.267  0.00  0.00    +0.000 A 
ATOM     11  C   UNL     1       3.188   1.260   0.126  0.00  0.00    +0.000 A 
ENDROOT
BRANCH   3  12
ATOM     12  C   UNL     1       2.354  -2.485   0.137  0.00  0.00    +0.000 A 
ATOM     13  C   UNL     1       2.041  -3.079  -1.092  0.00  0.00    +0.000 A 
ATOM     14  C   UNL     1       1.377  -4.306  -1.131  0.00  0.00    +0.000 A 
ATOM     15  C   UNL     1       1.024  -4.945   0.057  0.00  0.00    +0.000 A 
ATOM     16  C   UNL     1       1.335  -4.360   1.284  0.00  0.00    +0.000 A 
ATOM     17  C   UNL     1       1.999  -3.133   1.325  0.00  0.00    +0.000 A 
ENDBRANCH   3  12
TORSDOF 1
