REMARK  Name = *****
REMARK  4 active torsions:
REMARK  status: ('A' for Active; 'I' for Inactive)
REMARK    1  A    between atoms: C_1  and  C_2
REMARK    2  A    between atoms: C_7  and  O_8
REMARK    3  A    between atoms: O_8  and  C_9
REMARK    4  A    between atoms: C_9  and  C_11
REMARK                            x       y       z     vdW  Elec       q    Type
REMARK                         _______ _______ _______ _____ _____    ______ ____
ROOT
ATOM      1  O   UNL     1       1.223  -2.275   0.308  0.00  0.00    +0.000 OA
ENDROOT
BRANCH   1   8
ATOM      2  C   UNL     1       2.394   0.230  -0.400  0.00  0.00    +0.000 C 
ATOM      3  C   UNL     1       0.926   0.077  -0.136  0.00  0.00    +0.000 A 
ATOM      4  C   UNL     1       0.069   1.183  -0.208  0.00  0.00    +0.000 A 
ATOM      5  C   UNL     1      -1.298   1.041   0.049  0.00  0.00    +0.000 A 
ATOM      6  C   UNL     1      -1.825  -0.205   0.386  0.00  0.00    +0.000 A 
ATOM      7  C   UNL     1      -0.989  -1.317   0.462  0.00  0.00    +0.000 A 
ATOM      8  C   UNL     1       0.371  -1.170   0.182  0.00  0.00    +0.000 A 
ENDBRANCH   1   8
BRANCH   1   9
ATOM      9  C   UNL     1       1.108  -3.228  -0.702  0.00  0.00    +0.000 C 
ATOM     10  O   UNL     1       0.327  -3.167  -1.646  0.00  0.00    +0.000 OA
BRANCH   9  11
ATOM     11  C   UNL     1       2.046  -4.322  -0.495  0.00  0.00    +0.000 A 
ATOM     12  C   UNL     1       2.175  -5.452  -1.286  0.00  0.00    +0.000 A 
ATOM     13  C   UNL     1       3.189  -6.339  -0.822  0.00  0.00    +0.000 A 
ATOM     14  C   UNL     1       3.807  -5.861   0.311  0.00  0.00    +0.000 A 
ATOM     15  S   UNL     1       3.164  -4.356   0.805  0.00  0.00    +0.000 S 
ENDBRANCH   9  11
ENDBRANCH   1   9
TORSDOF 3
