REMARK  Name = *****
REMARK  2 active torsions:
REMARK  status: ('A' for Active; 'I' for Inactive)
REMARK    1  A    between atoms: C_5  and  C_8
REMARK    2  A    between atoms: C_9  and  C_10
REMARK                            x       y       z     vdW  Elec       q    Type
REMARK                         _______ _______ _______ _____ _____    ______ ____
ROOT
ATOM      1  C   UNL     1      -2.614   1.606  -0.389  0.00  0.00    +0.000 C 
ATOM      2  C   UNL     1      -3.790   1.217   0.133  0.00  0.00    +0.000 C 
ENDROOT
BRANCH   2   3
ATOM      3  C   UNL     1      -5.039   1.993   0.054  0.00  0.00    +0.000 A 
ATOM      4  C   UNL     1      -6.260   1.308  -0.032  0.00  0.00    +0.000 A 
ATOM      5  C   UNL     1      -7.472   1.992  -0.084  0.00  0.00    +0.000 A 
ATOM      6  C   UNL     1      -7.490   3.377  -0.038  0.00  0.00    +0.000 A 
ATOM      7  C   UNL     1      -6.298   4.078   0.066  0.00  0.00    +0.000 A 
ATOM      8  C   UNL     1      -5.084   3.393   0.118  0.00  0.00    +0.000 A 
ATOM      9  F   UNL     1      -3.953   4.104   0.247  0.00  0.00    +0.000 F 
ATOM     10  F   UNL     1      -6.311   5.417   0.125  0.00  0.00    +0.000 F 
ATOM     11  F   UNL     1      -8.655   4.037  -0.086  0.00  0.00    +0.000 F 
ATOM     12  F   UNL     1      -8.622   1.309  -0.176  0.00  0.00    +0.000 F 
ATOM     13  F   UNL     1      -6.272  -0.034  -0.073  0.00  0.00    +0.000 F 
ENDBRANCH   2   3
BRANCH   1  18
ATOM     14  C   UNL     1       0.575  -1.364   0.599  0.00  0.00    +0.000 C 
ATOM     15  C   UNL     1       1.564  -0.202   0.569  0.00  0.00    +0.000 C 
ATOM     16  C   UNL     1       1.084   1.011  -0.215  0.00  0.00    +0.000 C 
ATOM     17  N   UNL     1      -0.243   1.473   0.189  0.00  0.00    +0.000 N 
ATOM     18  C   UNL     1      -1.381   0.831  -0.301  0.00  0.00    +0.000 C 
ATOM     19  C   UNL     1      -1.378  -0.438  -0.762  0.00  0.00    +0.000 C 
ATOM     20  C   UNL     1      -0.298  -1.482  -0.650  0.00  0.00    +0.000 C 
ATOM     21  C   UNL     1      -0.294   2.594   1.017  0.00  0.00    +0.000 C 
ATOM     22  O   UNL     1       0.670   3.219   1.448  0.00  0.00    +0.000 OA
ENDBRANCH   1  18
TORSDOF 2
