REMARK  Name = *****
REMARK  4 active torsions:
REMARK  status: ('A' for Active; 'I' for Inactive)
REMARK    1  A    between atoms: C_1  and  C_2
REMARK    2  A    between atoms: C_2  and  C_3
REMARK    3  A    between atoms: C_3  and  C_11
REMARK    4  A    between atoms: C_4  and  C_5
REMARK                            x       y       z     vdW  Elec       q    Type
REMARK                         _______ _______ _______ _____ _____    ______ ____
ROOT
ATOM      1  C   UNL     1       2.928  -1.151   0.626  0.00  0.00    +0.000 C 
ATOM      2  C   UNL     1       2.076  -2.135   0.985  0.00  0.00    +0.000 C 
ENDROOT
BRANCH   2   3
ATOM      3  C   UNL     1       0.611  -2.188   0.845  0.00  0.00    +0.000 A 
ATOM      4  C   UNL     1      -0.120  -3.086   1.619  0.00  0.00    +0.000 A 
ATOM      5  C   UNL     1      -1.503  -3.152   1.456  0.00  0.00    +0.000 A 
ATOM      6  C   UNL     1      -2.116  -2.328   0.521  0.00  0.00    +0.000 A 
ATOM      7  C   UNL     1      -1.315  -1.472  -0.214  0.00  0.00    +0.000 A 
ATOM      8  N   UNL     1       0.026  -1.389  -0.074  0.00  0.00    +0.000 NA
ENDBRANCH   2   3
BRANCH   1   9
ATOM      9  C   UNL     1       4.367  -1.379   0.876  0.00  0.00    +0.000 A 
ATOM     10  C   UNL     1       5.082  -2.299   0.098  0.00  0.00    +0.000 A 
ATOM     11  C   UNL     1       6.439  -2.522   0.337  0.00  0.00    +0.000 A 
ATOM     12  C   UNL     1       7.091  -1.830   1.357  0.00  0.00    +0.000 A 
ATOM     13  C   UNL     1       6.386  -0.915   2.139  0.00  0.00    +0.000 A 
ATOM     14  C   UNL     1       5.029  -0.690   1.900  0.00  0.00    +0.000 A 
ENDBRANCH   1   9
BRANCH   1  16
ATOM     15  C   UNL     1       2.685   0.238  -1.461  0.00  0.00    +0.000 C 
ATOM     16  C   UNL     1       2.568   0.202   0.057  0.00  0.00    +0.000 C 
ENDBRANCH   1  16
TORSDOF 3
