REMARK  Name = *****
REMARK  4 active torsions:
REMARK  status: ('A' for Active; 'I' for Inactive)
REMARK    1  A    between atoms: C_1  and  O_2
REMARK    2  A    between atoms: O_2  and  C_3
REMARK    3  A    between atoms: C_6  and  C_9
REMARK    4  A    between atoms: C_10  and  C_11
REMARK                            x       y       z     vdW  Elec       q    Type
REMARK                         _______ _______ _______ _____ _____    ______ ____
ROOT
ATOM      1  C   UNL     1       2.976  -1.332   0.571  0.00  0.00    +0.000 A 
ATOM      2  C   UNL     1       2.391  -2.592   0.430  0.00  0.00    +0.000 A 
ATOM      3  C   UNL     1       2.986  -3.713   1.021  0.00  0.00    +0.000 A 
ATOM      4  C   UNL     1       4.167  -3.581   1.753  0.00  0.00    +0.000 A 
ATOM      5  C   UNL     1       4.755  -2.324   1.894  0.00  0.00    +0.000 A 
ATOM      6  C   UNL     1       4.159  -1.207   1.304  0.00  0.00    +0.000 A 
ENDROOT
BRANCH   1   8
ATOM      7  C   UNL     1       1.288  -0.232  -0.690  0.00  0.00    +0.000 C 
ATOM      8  O   UNL     1       2.500  -0.161   0.050  0.00  0.00    +0.000 OA
ENDBRANCH   1   8
BRANCH   4   9
ATOM      9  C   UNL     1       4.770  -4.728   2.357  0.00  0.00    +0.000 C 
ATOM     10  C   UNL     1       5.274  -5.691   2.868  0.00  0.00    +0.000 C 
BRANCH  10  11
ATOM     11  C   UNL     1       5.869  -6.839   3.472  0.00  0.00    +0.000 C 
ATOM     12  C   UNL     1       6.707  -6.671   4.511  0.00  0.00    +0.000 C 
ATOM     13  C   UNL     1       7.397  -7.804   5.215  0.00  0.00    +0.000 C 
ATOM     14  C   UNL     1       7.301  -9.132   4.465  0.00  0.00    +0.000 C 
ATOM     15  C   UNL     1       5.903  -9.343   3.893  0.00  0.00    +0.000 C 
ATOM     16  C   UNL     1       5.521  -8.207   2.940  0.00  0.00    +0.000 C 
ENDBRANCH  10  11
ENDBRANCH   4   9
TORSDOF 3
