REMARK  Name = *****
REMARK  4 active torsions:
REMARK  status: ('A' for Active; 'I' for Inactive)
REMARK    1  A    between atoms: C_3  and  C_4
REMARK    2  A    between atoms: C_3  and  S_11
REMARK    3  A    between atoms: C_4  and  C_5
REMARK    4  A    between atoms: S_11  and  C_12
REMARK                            x       y       z     vdW  Elec       q    Type
REMARK                         _______ _______ _______ _____ _____    ______ ____
ROOT
ATOM      1  C   UNL     1      -0.600   1.008  -0.059  0.00  0.00    +0.000 C 
ATOM      2  C   UNL     1       0.529   0.032  -0.179  0.00  0.00    +0.000 C 
ATOM      3  C   UNL     1      -0.906  -0.469  -0.268  0.00  0.00    +0.000 C 
ENDROOT
BRANCH   3   4
ATOM      4  C   UNL     1      -1.445  -1.255   0.925  0.00  0.00    +0.000 C 
BRANCH   4   5
ATOM      5  C   UNL     1      -2.955  -1.270   1.039  0.00  0.00    +0.000 A 
ATOM      6  C   UNL     1      -3.637  -2.495   1.113  0.00  0.00    +0.000 A 
ATOM      7  C   UNL     1      -5.027  -2.531   1.240  0.00  0.00    +0.000 A 
ATOM      8  C   UNL     1      -5.752  -1.343   1.306  0.00  0.00    +0.000 A 
ATOM      9  C   UNL     1      -5.087  -0.121   1.249  0.00  0.00    +0.000 A 
ATOM     10  C   UNL     1      -3.697  -0.084   1.121  0.00  0.00    +0.000 A 
ENDBRANCH   4   5
ENDBRANCH   3   4
BRANCH   3  11
ATOM     11  S   UNL     1      -1.496  -0.944  -1.875  0.00  0.00    +0.000 S 
BRANCH  11  12
ATOM     12  C   UNL     1      -0.942  -2.638  -1.934  0.00  0.00    +0.000 A 
ATOM     13  C   UNL     1      -1.888  -3.668  -1.919  0.00  0.00    +0.000 A 
ATOM     14  C   UNL     1      -1.481  -5.003  -1.974  0.00  0.00    +0.000 A 
ATOM     15  C   UNL     1      -0.125  -5.315  -2.056  0.00  0.00    +0.000 A 
ATOM     16  C   UNL     1       0.823  -4.293  -2.091  0.00  0.00    +0.000 A 
ATOM     17  C   UNL     1       0.415  -2.958  -2.035  0.00  0.00    +0.000 A 
ENDBRANCH  11  12
ENDBRANCH   3  11
TORSDOF 4
