REMARK  Name = *****
REMARK  6 active torsions:
REMARK  status: ('A' for Active; 'I' for Inactive)
REMARK    1  A    between atoms: C_1  and  C_2
REMARK    2  A    between atoms: C_3  and  C_18
REMARK    3  A    between atoms: C_5  and  C_8
REMARK    4  A    between atoms: C_9  and  C_10
REMARK    5  A    between atoms: C_15  and  O_16
REMARK    6  A    between atoms: O_16  and  C_17
REMARK                            x       y       z     vdW  Elec       q    Type
REMARK                         _______ _______ _______ _____ _____    ______ ____
ROOT
ATOM      1  C   UNL     1       6.714   0.080  -0.619  0.00  0.00    +0.000 C 
ATOM      2  C   UNL     1       7.891   0.037  -0.859  0.00  0.00    +0.000 C 
ENDROOT
BRANCH   1   7
ATOM      3  C   UNL     1       1.087   0.185   0.531  0.00  0.00    +0.000 C 
ATOM      4  C   UNL     1       2.560   0.186   0.223  0.00  0.00    +0.000 A 
ATOM      5  C   UNL     1       3.222   1.358  -0.197  0.00  0.00    +0.000 A 
ATOM      6  C   UNL     1       4.599   1.308  -0.473  0.00  0.00    +0.000 A 
ATOM      7  C   UNL     1       5.314   0.116  -0.334  0.00  0.00    +0.000 A 
ATOM      8  C   UNL     1       4.658  -1.040   0.083  0.00  0.00    +0.000 A 
ATOM      9  C   UNL     1       3.290  -1.005   0.359  0.00  0.00    +0.000 A 
ATOM     10  C   UNL     1       2.487   2.660  -0.356  0.00  0.00    +0.000 C 
ENDBRANCH   1   7
BRANCH   2  11
ATOM     11  C   UNL     1       9.292  -0.025  -1.149  0.00  0.00    +0.000 A 
ATOM     12  C   UNL     1       9.991   1.160  -1.401  0.00  0.00    +0.000 A 
ATOM     13  C   UNL     1      11.362   1.125  -1.673  0.00  0.00    +0.000 A 
ATOM     14  C   UNL     1      12.042  -0.093  -1.686  0.00  0.00    +0.000 A 
ATOM     15  C   UNL     1      11.352  -1.279  -1.436  0.00  0.00    +0.000 A 
ATOM     16  C   UNL     1       9.978  -1.246  -1.189  0.00  0.00    +0.000 A 
BRANCH  16  17
ATOM     17  O   UNL     1       9.337  -2.427  -0.912  0.00  0.00    +0.000 OA
ATOM     18  C   UNL     1       8.907  -3.046  -2.125  0.00  0.00    +0.000 C 
ENDBRANCH  16  17
ENDBRANCH   2  11
TORSDOF 3
