REMARK  Name = *****
REMARK  3 active torsions:
REMARK  status: ('A' for Active; 'I' for Inactive)
REMARK    1  A    between atoms: C_3  and  C_8
REMARK    2  A    between atoms: N_10  and  C_11
REMARK    3  A    between atoms: N_10  and  O_18
REMARK                            x       y       z     vdW  Elec       q    Type
REMARK                         _______ _______ _______ _____ _____    ______ ____
ROOT
ATOM      1  C   UNL     1       2.351   2.386  -0.130  0.00  0.00    +0.000 C 
ATOM      2  O   UNL     1       1.805   1.290  -0.010  0.00  0.00    +0.000 OA
ATOM      3  N   UNL     1       1.725   3.629  -0.076  0.00  0.00    +0.000 N 
ENDROOT
BRANCH   1   6
ATOM      4  C   UNL     1       5.974   1.462   0.355  0.00  0.00    +0.000 A 
ATOM      5  C   UNL     1       4.591   1.539   0.523  0.00  0.00    +0.000 A 
ATOM      6  C   UNL     1       3.826   2.358  -0.319  0.00  0.00    +0.000 A 
ATOM      7  C   UNL     1       4.442   3.068  -1.355  0.00  0.00    +0.000 A 
ATOM      8  C   UNL     1       5.823   2.986  -1.514  0.00  0.00    +0.000 A 
ATOM      9  C   UNL     1       6.592   2.191  -0.663  0.00  0.00    +0.000 A 
ATOM     10 CL   UNL     1       6.590   3.868  -2.777  0.00  0.00    +0.000 Cl
ENDBRANCH   1   6
BRANCH   3  11
ATOM     11  C   UNL     1       0.328   3.902  -0.066  0.00  0.00    +0.000 A 
ATOM     12  C   UNL     1      -0.639   2.887  -0.063  0.00  0.00    +0.000 A 
ATOM     13  C   UNL     1      -2.008   3.188  -0.049  0.00  0.00    +0.000 A 
ATOM     14  C   UNL     1      -2.429   4.513  -0.043  0.00  0.00    +0.000 A 
ATOM     15  C   UNL     1      -1.492   5.540  -0.052  0.00  0.00    +0.000 A 
ATOM     16  C   UNL     1      -0.126   5.234  -0.065  0.00  0.00    +0.000 A 
ATOM     17 CL   UNL     1      -4.108   4.883  -0.026  0.00  0.00    +0.000 Cl
ENDBRANCH   3  11
BRANCH   3  18
ATOM     18  O   UNL     1       2.555   4.775  -0.057  0.00  0.00    +0.000 OA
ATOM     19  H   UNL     1       3.486   4.501  -0.065  0.00  0.00    +0.000 HD
ENDBRANCH   3  18
TORSDOF 3
