REMARK  Name = *****
REMARK  4 active torsions:
REMARK  status: ('A' for Active; 'I' for Inactive)
REMARK    1  A    between atoms: C_5  and  C_7
REMARK    2  A    between atoms: C_7  and  C_8
REMARK    3  A    between atoms: C_7  and  C_14
REMARK    4  A    between atoms: C_8  and  C_9
REMARK                            x       y       z     vdW  Elec       q    Type
REMARK                         _______ _______ _______ _____ _____    ______ ____
ROOT
ATOM      1  C   UNL     1      -0.258  -2.757  -0.023  0.00  0.00    +0.000 C 
ENDROOT
BRANCH   1   6
ATOM      2  C   UNL     1      -0.039   1.069  -0.272  0.00  0.00    +0.000 A 
ATOM      3  C   UNL     1       1.311   1.272  -0.534  0.00  0.00    +0.000 A 
ATOM      4  C   UNL     1       2.169   0.178  -0.627  0.00  0.00    +0.000 A 
ATOM      5  C   UNL     1       1.676  -1.122  -0.467  0.00  0.00    +0.000 A 
ATOM      6  C   UNL     1       0.310  -1.350  -0.221  0.00  0.00    +0.000 A 
ATOM      7  C   UNL     1      -0.535  -0.226  -0.112  0.00  0.00    +0.000 A 
ATOM      8 CL   UNL     1       2.822  -2.413  -0.568  0.00  0.00    +0.000 Cl
ENDBRANCH   1   6
BRANCH   1   9
ATOM      9  C   UNL     1      -1.631  -2.999  -0.666  0.00  0.00    +0.000 C 
ATOM     10  O   UNL     1      -2.562  -3.547  -0.083  0.00  0.00    +0.000 OA
ATOM     11 CL   UNL     1      -1.667  -2.581  -2.370  0.00  0.00    +0.000 Cl
ENDBRANCH   1   9
BRANCH   1  12
ATOM     12  C   UNL     1      -0.199  -3.225   1.445  0.00  0.00    +0.000 C 
BRANCH  12  13
ATOM     13  C   UNL     1      -0.755  -2.262   2.436  0.00  0.00    +0.000 A 
ATOM     14  C   UNL     1      -0.178  -1.470   3.407  0.00  0.00    +0.000 A 
ATOM     15  C   UNL     1      -1.237  -0.766   4.028  0.00  0.00    +0.000 A 
ATOM     16  C   UNL     1      -2.389  -1.176   3.400  0.00  0.00    +0.000 A 
ATOM     17  O   UNL     1      -2.104  -2.082   2.430  0.00  0.00    +0.000 OA
ENDBRANCH  12  13
ENDBRANCH   1  12
TORSDOF 4
