REMARK  Name = *****
REMARK  6 active torsions:
REMARK  status: ('A' for Active; 'I' for Inactive)
REMARK    1  A    between atoms: C_1  and  C_2
REMARK    2  A    between atoms: C_5  and  S_8
REMARK    3  A    between atoms: S_8  and  N_10
REMARK    4  A    between atoms: N_10  and  C_11
REMARK    5  A    between atoms: N_10  and  C_12
REMARK    6  A    between atoms: C_12  and  C_13
REMARK                            x       y       z     vdW  Elec       q    Type
REMARK                         _______ _______ _______ _____ _____    ______ ____
ROOT
ATOM      1  S   UNL     1      -3.534  -0.130  -0.042  0.00  0.00    +0.000 S 
ATOM      2  O   UNL     1      -2.084  -0.284  -0.396  0.00  0.00    +0.000 OA
ENDROOT
BRANCH   1   7
ATOM      3  C   UNL     1      -6.556  -3.069  -4.488  0.00  0.00    +0.000 C 
ATOM      4  C   UNL     1      -5.830  -2.319  -3.411  0.00  0.00    +0.000 A 
ATOM      5  C   UNL     1      -6.336  -2.285  -2.106  0.00  0.00    +0.000 A 
ATOM      6  C   UNL     1      -5.639  -1.619  -1.094  0.00  0.00    +0.000 A 
ATOM      7  C   UNL     1      -4.431  -0.972  -1.375  0.00  0.00    +0.000 A 
ATOM      8  C   UNL     1      -3.905  -1.040  -2.670  0.00  0.00    +0.000 A 
ATOM      9  C   UNL     1      -4.601  -1.707  -3.681  0.00  0.00    +0.000 A 
ENDBRANCH   1   7
BRANCH   1  10
ATOM     10  N   UNL     1      -4.115   1.406  -0.378  0.00  0.00    +0.000 NA
ATOM     11  C   UNL     1      -3.488   2.200  -1.432  0.00  0.00    +0.000 C 
BRANCH  10  12
ATOM     12  C   UNL     1      -5.534   1.759  -0.232  0.00  0.00    +0.000 C 
BRANCH  12  13
ATOM     13  C   UNL     1      -6.132   1.417   1.120  0.00  0.00    +0.000 A 
ATOM     14  C   UNL     1      -5.492   1.798   2.309  0.00  0.00    +0.000 A 
ATOM     15  C   UNL     1      -6.060   1.502   3.549  0.00  0.00    +0.000 A 
ATOM     16  C   UNL     1      -7.281   0.835   3.615  0.00  0.00    +0.000 A 
ATOM     17  C   UNL     1      -7.938   0.469   2.442  0.00  0.00    +0.000 A 
ATOM     18  C   UNL     1      -7.371   0.764   1.201  0.00  0.00    +0.000 A 
ENDBRANCH  12  13
ENDBRANCH  10  12
ENDBRANCH   1  10
TORSDOF 4
