REMARK  Name = *****
REMARK  5 active torsions:
REMARK  status: ('A' for Active; 'I' for Inactive)
REMARK    1  A    between atoms: C_1  and  C_2
REMARK    2  A    between atoms: C_5  and  S_8
REMARK    3  A    between atoms: S_8  and  O_10
REMARK    4  A    between atoms: O_10  and  C_11
REMARK    5  A    between atoms: C_16  and  C_18
REMARK                            x       y       z     vdW  Elec       q    Type
REMARK                         _______ _______ _______ _____ _____    ______ ____
ROOT
ATOM      1  S   UNL     1      -2.372   0.446   0.226  0.00  0.00    +0.000 S 
ATOM      2  O   UNL     1      -2.841  -0.545  -0.799  0.00  0.00    +0.000 OA
ENDROOT
BRANCH   1   7
ATOM      3  C   UNL     1      -4.876  -1.250   5.553  0.00  0.00    +0.000 C 
ATOM      4  C   UNL     1      -4.242  -0.847   4.254  0.00  0.00    +0.000 A 
ATOM      5  C   UNL     1      -3.609   0.395   4.129  0.00  0.00    +0.000 A 
ATOM      6  C   UNL     1      -3.049   0.784   2.910  0.00  0.00    +0.000 A 
ATOM      7  C   UNL     1      -3.128  -0.057   1.793  0.00  0.00    +0.000 A 
ATOM      8  C   UNL     1      -3.769  -1.294   1.915  0.00  0.00    +0.000 A 
ATOM      9  C   UNL     1      -4.329  -1.683   3.134  0.00  0.00    +0.000 A 
ENDBRANCH   1   7
BRANCH   1  10
ATOM     10  O   UNL     1      -3.302   1.756   0.099  0.00  0.00    +0.000 OA
BRANCH  10  11
ATOM     11  C   UNL     1      -3.295   2.397  -1.174  0.00  0.00    +0.000 C 
ATOM     12  C   UNL     1      -2.172   3.456  -1.224  0.00  0.00    +0.000 C 
ATOM     13  C   UNL     1      -2.940   4.774  -1.424  0.00  0.00    +0.000 C 
ATOM     14  C   UNL     1      -3.509   4.806  -2.851  0.00  0.00    +0.000 C 
ATOM     15  C   UNL     1      -4.639   3.769  -2.796  0.00  0.00    +0.000 C 
ATOM     16  C   UNL     1      -4.577   3.261  -1.338  0.00  0.00    +0.000 C 
ATOM     17  C   UNL     1      -4.197   4.543  -0.585  0.00  0.00    +0.000 C 
ATOM     18  C   UNL     1      -5.861   2.605  -0.870  0.00  0.00    +0.000 C 
ENDBRANCH  10  11
ENDBRANCH   1  10
TORSDOF 3
