REMARK  Name = *****
REMARK  2 active torsions:
REMARK  status: ('A' for Active; 'I' for Inactive)
REMARK    1  A    between atoms: C_3  and  C_7
REMARK    2  A    between atoms: C_8  and  C_9
REMARK                            x       y       z     vdW  Elec       q    Type
REMARK                         _______ _______ _______ _____ _____    ______ ____
ROOT
ATOM      1  C   UNL     1       2.251   1.536  -0.273  0.00  0.00    +0.000 C 
ATOM      2  C   UNL     1       3.220   2.229  -0.426  0.00  0.00    +0.000 C 
ENDROOT
BRANCH   1   5
ATOM      3  C   UNL     1      -1.153   0.033  -0.122  0.00  0.00    +0.000 C 
ATOM      4  C   UNL     1      -0.271   1.260   0.106  0.00  0.00    +0.000 C 
ATOM      5  C   UNL     1       1.109   0.716  -0.096  0.00  0.00    +0.000 C 
ATOM      6  C   UNL     1       1.109  -0.622  -0.078  0.00  0.00    +0.000 C 
ATOM      7  C   UNL     1      -0.260  -1.181   0.135  0.00  0.00    +0.000 C 
ATOM      8 BR   UNL     1       2.527  -1.784  -0.263  0.00  0.00    +0.000 Br
ENDBRANCH   1   5
BRANCH   2   9
ATOM      9  C   UNL     1       4.380   3.043  -0.612  0.00  0.00    +0.000 A 
ATOM     10  C   UNL     1       4.283   4.434  -0.523  0.00  0.00    +0.000 A 
ATOM     11  C   UNL     1       5.417   5.227  -0.707  0.00  0.00    +0.000 A 
ATOM     12  C   UNL     1       6.649   4.631  -0.980  0.00  0.00    +0.000 A 
ATOM     13  C   UNL     1       6.748   3.243  -1.068  0.00  0.00    +0.000 A 
ATOM     14  C   UNL     1       5.614   2.448  -0.884  0.00  0.00    +0.000 A 
ENDBRANCH   2   9
TORSDOF 2
