REMARK  Name = *****
REMARK  3 active torsions:
REMARK  status: ('A' for Active; 'I' for Inactive)
REMARK    1  A    between atoms: C_1  and  C_2
REMARK    2  A    between atoms: C_5  and  C_8
REMARK    3  A    between atoms: C_9  and  C_10
REMARK                            x       y       z     vdW  Elec       q    Type
REMARK                         _______ _______ _______ _____ _____    ______ ____
ROOT
ATOM      1  C   UNL     1      -3.304   0.075   0.221  0.00  0.00    +0.000 C 
ATOM      2  C   UNL     1      -4.052  -0.915  -0.299  0.00  0.00    +0.000 C 
ATOM      3 BR   UNL     1      -3.979   1.556   1.147  0.00  0.00    +0.000 Br
ENDROOT
BRANCH   1   8
ATOM      4  C   UNL     1       2.452  -0.235  -0.310  0.00  0.00    +0.000 C 
ATOM      5  C   UNL     1       0.959  -0.182  -0.180  0.00  0.00    +0.000 A 
ATOM      6  C   UNL     1       0.161   0.140  -1.284  0.00  0.00    +0.000 A 
ATOM      7  C   UNL     1      -1.228   0.223  -1.154  0.00  0.00    +0.000 A 
ATOM      8  C   UNL     1      -1.839  -0.002   0.086  0.00  0.00    +0.000 A 
ATOM      9  C   UNL     1      -1.040  -0.310   1.193  0.00  0.00    +0.000 A 
ATOM     10  C   UNL     1       0.349  -0.393   1.062  0.00  0.00    +0.000 A 
ENDBRANCH   1   8
BRANCH   2  11
ATOM     11  C   UNL     1      -5.514  -1.004  -0.251  0.00  0.00    +0.000 A 
ATOM     12  C   UNL     1      -6.313  -0.145  -1.014  0.00  0.00    +0.000 A 
ATOM     13  C   UNL     1      -7.705  -0.253  -0.968  0.00  0.00    +0.000 A 
ATOM     14  C   UNL     1      -8.303  -1.223  -0.164  0.00  0.00    +0.000 A 
ATOM     15  C   UNL     1      -7.512  -2.086   0.593  0.00  0.00    +0.000 A 
ATOM     16  C   UNL     1      -6.120  -1.979   0.548  0.00  0.00    +0.000 A 
ENDBRANCH   2  11
TORSDOF 2
