REMARK  Name = *****
REMARK  2 active torsions:
REMARK  status: ('A' for Active; 'I' for Inactive)
REMARK    1  A    between atoms: C_1  and  C_2
REMARK    2  A    between atoms: C_9  and  C_11
REMARK                            x       y       z     vdW  Elec       q    Type
REMARK                         _______ _______ _______ _____ _____    ______ ____
ROOT
ATOM      1  C   UNL     1       1.034   0.040  -0.031  0.00  0.00    +0.000 C 
ATOM      2  C   UNL     1       2.535   0.070   0.045  0.00  0.00    +0.000 A 
ATOM      3  C   UNL     1       3.263  -1.129  -0.052  0.00  0.00    +0.000 A 
ATOM      4  C   UNL     1       4.646  -1.009  -0.003  0.00  0.00    +0.000 A 
ATOM      5  C   UNL     1       5.333   0.186   0.120  0.00  0.00    +0.000 A 
ATOM      6  C   UNL     1       4.606   1.379   0.202  0.00  0.00    +0.000 A 
ATOM      7  C   UNL     1       3.204   1.303   0.157  0.00  0.00    +0.000 A 
ATOM      8  N   UNL     1       6.684  -0.054   0.135  0.00  0.00    +0.000 NA
ATOM      9  C   UNL     1       6.772  -1.368   0.022  0.00  0.00    +0.000 A 
ATOM     10  O   UNL     1       5.567  -2.012  -0.068  0.00  0.00    +0.000 OA
ENDROOT
BRANCH   9  11
ATOM     11  C   UNL     1       7.979  -2.188  -0.017  0.00  0.00    +0.000 A 
ATOM     12  C   UNL     1       9.230  -1.554   0.075  0.00  0.00    +0.000 A 
ATOM     13  C   UNL     1      10.403  -2.302   0.042  0.00  0.00    +0.000 A 
ATOM     14  C   UNL     1      10.361  -3.684  -0.083  0.00  0.00    +0.000 A 
ATOM     15  C   UNL     1       9.134  -4.331  -0.176  0.00  0.00    +0.000 A 
ATOM     16  C   UNL     1       7.951  -3.585  -0.143  0.00  0.00    +0.000 A 
ATOM     17  F   UNL     1       6.779  -4.233  -0.235  0.00  0.00    +0.000 F 
ATOM     18 CL   UNL     1       9.073  -6.047  -0.331  0.00  0.00    +0.000 Cl
ATOM     19  F   UNL     1      11.508  -4.378  -0.112  0.00  0.00    +0.000 F 
ATOM     20  F   UNL     1      11.582  -1.672   0.132  0.00  0.00    +0.000 F 
ENDBRANCH   9  11
TORSDOF 1
