REMARK  Name = *****
REMARK  6 active torsions:
REMARK  status: ('A' for Active; 'I' for Inactive)
REMARK    1  A    between atoms: C_1  and  C_2
REMARK    2  A    between atoms: C_4  and  C_9
REMARK    3  A    between atoms: C_5  and  C_8
REMARK    4  A    between atoms: C_9  and  O_10
REMARK    5  A    between atoms: O_10  and  C_11
REMARK    6  A    between atoms: C_11  and  C_13
REMARK                            x       y       z     vdW  Elec       q    Type
REMARK                         _______ _______ _______ _____ _____    ______ ____
ROOT
ATOM      1  C   UNL     1      -1.445   2.674  -0.176  0.00  0.00    +0.000 C 
ENDROOT
BRANCH   1   5
ATOM      2  C   UNL     1       2.846   0.071   0.166  0.00  0.00    +0.000 C 
ATOM      3  C   UNL     1       1.349   0.092   0.083  0.00  0.00    +0.000 A 
ATOM      4  C   UNL     1       0.647   1.300   0.005  0.00  0.00    +0.000 A 
ATOM      5  C   UNL     1      -0.758   1.329  -0.084  0.00  0.00    +0.000 A 
ATOM      6  C   UNL     1      -1.471   0.113  -0.088  0.00  0.00    +0.000 A 
ATOM      7  C   UNL     1      -0.761  -1.095   0.007  0.00  0.00    +0.000 A 
ATOM      8  C   UNL     1       0.633  -1.106   0.082  0.00  0.00    +0.000 A 
ATOM      9  C   UNL     1      -2.974   0.057  -0.118  0.00  0.00    +0.000 C 
ENDBRANCH   1   5
BRANCH   1  10
ATOM     10  O   UNL     1      -2.278   2.896   0.968  0.00  0.00    +0.000 OA
BRANCH  10  11
ATOM     11  C   UNL     1      -1.719   3.617   1.969  0.00  0.00    +0.000 C 
ATOM     12  O   UNL     1      -0.595   4.092   1.978  0.00  0.00    +0.000 OA
BRANCH  11  13
ATOM     13  C   UNL     1      -2.687   3.780   3.090  0.00  0.00    +0.000 A 
ATOM     14  C   UNL     1      -4.000   3.293   3.028  0.00  0.00    +0.000 A 
ATOM     15  C   UNL     1      -4.872   3.485   4.103  0.00  0.00    +0.000 A 
ATOM     16  C   UNL     1      -4.438   4.163   5.242  0.00  0.00    +0.000 A 
ATOM     17  C   UNL     1      -3.134   4.649   5.312  0.00  0.00    +0.000 A 
ATOM     18  C   UNL     1      -2.260   4.460   4.239  0.00  0.00    +0.000 A 
ENDBRANCH  11  13
ENDBRANCH  10  11
ENDBRANCH   1  10
TORSDOF 4
