REMARK  Name = *****
REMARK  3 active torsions:
REMARK  status: ('A' for Active; 'I' for Inactive)
REMARK    1  A    between atoms: C_1  and  C_2
REMARK    2  A    between atoms: C_5  and  C_8
REMARK    3  A    between atoms: C_9  and  C_10
REMARK                            x       y       z     vdW  Elec       q    Type
REMARK                         _______ _______ _______ _____ _____    ______ ____
ROOT
ATOM      1  C   UNL     1      -3.265   0.084  -0.036  0.00  0.00    +0.000 C 
ATOM      2  C   UNL     1      -4.056   1.169  -0.097  0.00  0.00    +0.000 C 
ATOM      3  F   UNL     1      -3.494   2.394  -0.224  0.00  0.00    +0.000 F 
ENDROOT
BRANCH   1   8
ATOM      4  C   UNL     1       2.526  -0.018  -0.048  0.00  0.00    +0.000 C 
ATOM      5  C   UNL     1       1.028   0.040  -0.066  0.00  0.00    +0.000 A 
ATOM      6  C   UNL     1       0.345   1.036   0.640  0.00  0.00    +0.000 A 
ATOM      7  C   UNL     1      -1.054   1.070   0.646  0.00  0.00    +0.000 A 
ATOM      8  C   UNL     1      -1.795   0.110  -0.052  0.00  0.00    +0.000 A 
ATOM      9  C   UNL     1      -1.108  -0.904  -0.731  0.00  0.00    +0.000 A 
ATOM     10  C   UNL     1       0.290  -0.939  -0.739  0.00  0.00    +0.000 A 
ENDBRANCH   1   8
BRANCH   2  11
ATOM     11  C   UNL     1      -5.529   1.128  -0.102  0.00  0.00    +0.000 A 
ATOM     12  C   UNL     1      -6.266   0.117   0.533  0.00  0.00    +0.000 A 
ATOM     13  C   UNL     1      -7.664   0.132   0.514  0.00  0.00    +0.000 A 
ATOM     14  C   UNL     1      -8.344   1.162  -0.132  0.00  0.00    +0.000 A 
ATOM     15  C   UNL     1      -7.628   2.181  -0.754  0.00  0.00    +0.000 A 
ATOM     16  C   UNL     1      -6.230   2.166  -0.734  0.00  0.00    +0.000 A 
ENDBRANCH   2  11
TORSDOF 2
