REMARK  Name = *****
REMARK  1 active torsions:
REMARK  status: ('A' for Active; 'I' for Inactive)
REMARK    1  A    between atoms: C_3  and  C_12
REMARK                            x       y       z     vdW  Elec       q    Type
REMARK                         _______ _______ _______ _____ _____    ______ ____
ROOT
ATOM      1  C   UNL     1       2.115  -1.156  -0.385  0.00  0.00    +0.000 C 
ATOM      2  C   UNL     1       2.643   0.282  -0.446  0.00  0.00    +0.000 C 
ATOM      3  C   UNL     1       1.613   1.426  -0.610  0.00  0.00    +0.000 C 
ATOM      4  C   UNL     1       0.592   1.445   0.555  0.00  0.00    +0.000 C 
ATOM      5  C   UNL     1      -0.489   0.393   0.486  0.00  0.00    +0.000 A 
ATOM      6  C   UNL     1      -1.824   0.789   0.297  0.00  0.00    +0.000 A 
ATOM      7  C   UNL     1      -2.849  -0.154   0.239  0.00  0.00    +0.000 A 
ATOM      8  C   UNL     1      -2.555  -1.506   0.372  0.00  0.00    +0.000 A 
ATOM      9  C   UNL     1      -1.235  -1.913   0.562  0.00  0.00    +0.000 A 
ATOM     10  C   UNL     1      -0.192  -0.974   0.619  0.00  0.00    +0.000 A 
ATOM     11  C   UNL     1       1.223  -1.454   0.819  0.00  0.00    +0.000 C 
ENDROOT
BRANCH   3  12
ATOM     12  C   UNL     1       0.991   1.623  -1.994  0.00  0.00    +0.000 A 
ATOM     13  C   UNL     1       1.275   0.797  -3.091  0.00  0.00    +0.000 A 
ATOM     14  C   UNL     1       0.697   1.031  -4.344  0.00  0.00    +0.000 A 
ATOM     15  C   UNL     1      -0.168   2.104  -4.529  0.00  0.00    +0.000 A 
ATOM     16  C   UNL     1      -0.445   2.953  -3.464  0.00  0.00    +0.000 A 
ATOM     17  C   UNL     1       0.134   2.719  -2.214  0.00  0.00    +0.000 A 
ENDBRANCH   3  12
TORSDOF 1
