REMARK  Name = *****
REMARK  4 active torsions:
REMARK  status: ('A' for Active; 'I' for Inactive)
REMARK    1  A    between atoms: C_1  and  C_2
REMARK    2  A    between atoms: C_2  and  C_3
REMARK    3  A    between atoms: C_3  and  C_11
REMARK    4  A    between atoms: N_4  and  C_5
REMARK                            x       y       z     vdW  Elec       q    Type
REMARK                         _______ _______ _______ _____ _____    ______ ____
ROOT
ATOM      1  C   UNL     1       2.854   1.103   0.779  0.00  0.00    +0.000 C 
ATOM      2  N   UNL     1       2.066   1.936   1.394  0.00  0.00    +0.000 NA
ENDROOT
BRANCH   2   3
ATOM      3  C   UNL     1       0.677   1.815   1.287  0.00  0.00    +0.000 A 
ATOM      4  C   UNL     1      -0.039   1.059   2.218  0.00  0.00    +0.000 A 
ATOM      5  C   UNL     1      -1.429   0.956   2.127  0.00  0.00    +0.000 A 
ATOM      6  C   UNL     1      -2.111   1.624   1.110  0.00  0.00    +0.000 A 
ATOM      7  C   UNL     1      -1.405   2.401   0.192  0.00  0.00    +0.000 A 
ATOM      8  C   UNL     1      -0.016   2.501   0.287  0.00  0.00    +0.000 A 
ENDBRANCH   2   3
BRANCH   1   9
ATOM      9  C   UNL     1       4.365   1.288   0.950  0.00  0.00    +0.000 C 
ATOM     10  C   UNL     1       4.767   1.155   2.423  0.00  0.00    +0.000 C 
ATOM     11  C   UNL     1       6.265   1.382   2.614  0.00  0.00    +0.000 C 
ATOM     12  C   UNL     1       6.709   2.722   2.032  0.00  0.00    +0.000 C 
ATOM     13  C   UNL     1       6.305   2.863   0.567  0.00  0.00    +0.000 C 
ATOM     14  C   UNL     1       4.808   2.636   0.370  0.00  0.00    +0.000 C 
ENDBRANCH   1   9
BRANCH   1  16
ATOM     15  C   UNL     1       2.462  -1.369   0.701  0.00  0.00    +0.000 C 
ATOM     16  C   UNL     1       2.401  -0.069  -0.082  0.00  0.00    +0.000 C 
ENDBRANCH   1  16
TORSDOF 3
