REMARK  Name = *****
REMARK  3 active torsions:
REMARK  status: ('A' for Active; 'I' for Inactive)
REMARK    1  A    between atoms: C_5  and  S_7
REMARK    2  A    between atoms: S_7  and  C_8
REMARK    3  A    between atoms: C_8  and  C_9
REMARK                            x       y       z     vdW  Elec       q    Type
REMARK                         _______ _______ _______ _____ _____    ______ ____
ROOT
ATOM      1  C   UNL     1      -3.820  -2.488  -0.042  0.00  0.00    +0.000 C 
ENDROOT
BRANCH   1   2
ATOM      2  C   UNL     1      -4.625  -3.766  -0.030  0.00  0.00    +0.000 A 
ATOM      3  C   UNL     1      -4.995  -4.386  -1.236  0.00  0.00    +0.000 A 
ATOM      4  C   UNL     1      -5.724  -5.577  -1.221  0.00  0.00    +0.000 A 
ATOM      5  C   UNL     1      -6.081  -6.156  -0.006  0.00  0.00    +0.000 A 
ATOM      6  C   UNL     1      -5.714  -5.560   1.197  0.00  0.00    +0.000 A 
ATOM      7  C   UNL     1      -4.985  -4.369   1.186  0.00  0.00    +0.000 A 
ATOM      8  F   UNL     1      -6.782  -7.299   0.030  0.00  0.00    +0.000 F 
ATOM      9 CL   UNL     1      -6.172  -6.314  -2.711  0.00  0.00    +0.000 Cl
ENDBRANCH   1   2
BRANCH   1  10
ATOM     10  S   UNL     1      -2.033  -2.842  -0.039  0.00  0.00    +0.000 S 
BRANCH  10  15
ATOM     11  C   UNL     1      -1.284   1.215   0.008  0.00  0.00    +0.000 A 
ATOM     12  C   UNL     1       0.107   1.231   0.023  0.00  0.00    +0.000 A 
ATOM     13  C   UNL     1       0.799   0.028   0.017  0.00  0.00    +0.000 A 
ATOM     14  C   UNL     1       0.125  -1.189  -0.002  0.00  0.00    +0.000 A 
ATOM     15  C   UNL     1      -1.275  -1.222  -0.017  0.00  0.00    +0.000 A 
ATOM     16  C   UNL     1      -1.972  -0.006  -0.013  0.00  0.00    +0.000 A 
ATOM     17  F   UNL     1       2.139   0.040   0.032  0.00  0.00    +0.000 F 
ENDBRANCH  10  15
ENDBRANCH   1  10
TORSDOF 3
