REMARK  Name = *****
REMARK  4 active torsions:
REMARK  status: ('A' for Active; 'I' for Inactive)
REMARK    1  A    between atoms: C_4  and  C_7
REMARK    2  A    between atoms: C_7  and  O_8
REMARK    3  A    between atoms: O_8  and  C_9
REMARK    4  A    between atoms: C_9  and  C_11
REMARK                            x       y       z     vdW  Elec       q    Type
REMARK                         _______ _______ _______ _____ _____    ______ ____
ROOT
ATOM      1  C   UNL     1      -4.970  -0.770  -0.816  0.00  0.00    +0.000 C 
ATOM      2  O   UNL     1      -5.223   0.051  -1.681  0.00  0.00    +0.000 OA
ENDROOT
BRANCH   1   3
ATOM      3  C   UNL     1      -5.638  -2.066  -0.689  0.00  0.00    +0.000 A 
ATOM      4  C   UNL     1      -4.905  -3.240  -0.542  0.00  0.00    +0.000 A 
ATOM      5  C   UNL     1      -5.551  -4.472  -0.439  0.00  0.00    +0.000 A 
ATOM      6  C   UNL     1      -6.944  -4.533  -0.489  0.00  0.00    +0.000 A 
ATOM      7  C   UNL     1      -7.683  -3.359  -0.645  0.00  0.00    +0.000 A 
ATOM      8  C   UNL     1      -7.026  -2.132  -0.747  0.00  0.00    +0.000 A 
ATOM      9  F   UNL     1      -7.765  -1.022  -0.876  0.00  0.00    +0.000 F 
ATOM     10  F   UNL     1      -3.564  -3.219  -0.520  0.00  0.00    +0.000 F 
ENDBRANCH   1   3
BRANCH   1  11
ATOM     11  O   UNL     1      -4.082  -0.635   0.194  0.00  0.00    +0.000 OA
BRANCH  11  12
ATOM     12  C   UNL     1      -3.364   0.603   0.169  0.00  0.00    +0.000 C 
BRANCH  12  16
ATOM     13  C   UNL     1      -0.522   0.715   3.415  0.00  0.00    +0.000 A 
ATOM     14  C   UNL     1      -0.622  -0.423   2.617  0.00  0.00    +0.000 A 
ATOM     15  C   UNL     1      -1.546  -0.463   1.571  0.00  0.00    +0.000 A 
ATOM     16  C   UNL     1      -2.386   0.631   1.318  0.00  0.00    +0.000 A 
ATOM     17  C   UNL     1      -2.268   1.774   2.122  0.00  0.00    +0.000 A 
ATOM     18  C   UNL     1      -1.343   1.813   3.167  0.00  0.00    +0.000 A 
ENDBRANCH  12  16
ENDBRANCH  11  12
ENDBRANCH   1  11
TORSDOF 4
