REMARK  Name = *****
REMARK  3 active torsions:
REMARK  status: ('A' for Active; 'I' for Inactive)
REMARK    1  A    between atoms: C_6  and  C_7
REMARK    2  A    between atoms: C_7  and  C_8
REMARK    3  A    between atoms: C_8  and  C_10
REMARK                            x       y       z     vdW  Elec       q    Type
REMARK                         _______ _______ _______ _____ _____    ______ ____
ROOT
ATOM      1  C   UNL     1      -4.059   1.507   0.028  0.00  0.00    +0.000 C 
ATOM      2  O   UNL     1      -4.268   2.129   1.071  0.00  0.00    +0.000 OA
ENDROOT
BRANCH   1   3
ATOM      3  C   UNL     1      -4.437   2.132  -1.278  0.00  0.00    +0.000 A 
ATOM      4  C   UNL     1      -4.056   1.600  -2.515  0.00  0.00    +0.000 A 
ATOM      5  C   UNL     1      -4.454   2.223  -3.704  0.00  0.00    +0.000 A 
ATOM      6  C   UNL     1      -5.229   3.381  -3.660  0.00  0.00    +0.000 A 
ATOM      7  C   UNL     1      -5.607   3.926  -2.435  0.00  0.00    +0.000 A 
ATOM      8  C   UNL     1      -5.209   3.303  -1.249  0.00  0.00    +0.000 A 
ATOM      9  I   UNL     1      -5.822   4.297  -5.428  0.00  0.00    +0.000 I 
ENDBRANCH   1   3
BRANCH   1  10
ATOM     10  C   UNL     1      -3.435   0.123   0.059  0.00  0.00    +0.000 C 
BRANCH  10  16
ATOM     11  C   UNL     1      -1.223  -0.562  -0.966  0.00  0.00    +0.000 A 
ATOM     12  C   UNL     1       0.173  -0.559  -0.979  0.00  0.00    +0.000 A 
ATOM     13  C   UNL     1       0.868   0.135   0.004  0.00  0.00    +0.000 A 
ATOM     14  C   UNL     1       0.194   0.825   1.002  0.00  0.00    +0.000 A 
ATOM     15  C   UNL     1      -1.202   0.826   1.016  0.00  0.00    +0.000 A 
ATOM     16  C   UNL     1      -1.926   0.140   0.026  0.00  0.00    +0.000 A 
ATOM     17  F   UNL     1       2.207   0.131  -0.008  0.00  0.00    +0.000 F 
ENDBRANCH  10  16
ENDBRANCH   1  10
TORSDOF 3
