REMARK  Name = *****
REMARK  4 active torsions:
REMARK  status: ('A' for Active; 'I' for Inactive)
REMARK    1  A    between atoms: C_1  and  C_2
REMARK    2  A    between atoms: C_4  and  S_8
REMARK    3  A    between atoms: S_8  and  N_9
REMARK    4  A    between atoms: N_9  and  C_10
REMARK                            x       y       z     vdW  Elec       q    Type
REMARK                         _______ _______ _______ _____ _____    ______ ____
ROOT
ATOM      1  N   UNL     1      -1.297   2.708   3.095  0.00  0.00    +0.000 N 
ATOM      2  H   UNL     1      -1.215   1.763   3.356  0.00  0.00    +0.000 HD
ENDROOT
BRANCH   1   3
ATOM      3  C   UNL     1      -1.919   3.608   3.992  0.00  0.00    +0.000 A 
ATOM      4  C   UNL     1      -2.495   4.825   3.599  0.00  0.00    +0.000 A 
ATOM      5  C   UNL     1      -3.156   5.645   4.522  0.00  0.00    +0.000 A 
ATOM      6  C   UNL     1      -3.271   5.243   5.848  0.00  0.00    +0.000 A 
ATOM      7  C   UNL     1      -2.741   4.024   6.257  0.00  0.00    +0.000 A 
ATOM      8  C   UNL     1      -2.081   3.209   5.331  0.00  0.00    +0.000 A 
ATOM      9 CL   UNL     1      -4.085   6.248   6.982  0.00  0.00    +0.000 Cl
ENDBRANCH   1   3
BRANCH   1  10
ATOM     10  S   UNL     1      -0.699   3.183   1.613  0.00  0.00    +0.000 S 
BRANCH  10  14
ATOM     11  C   UNL     1       2.306  -0.397  -0.822  0.00  0.00    +0.000 C 
ATOM     12  C   UNL     1       0.958  -0.017  -0.286  0.00  0.00    +0.000 A 
ATOM     13  C   UNL     1       0.762   1.232   0.321  0.00  0.00    +0.000 A 
ATOM     14  C   UNL     1      -0.483   1.580   0.856  0.00  0.00    +0.000 A 
ATOM     15  C   UNL     1      -1.541   0.669   0.781  0.00  0.00    +0.000 A 
ATOM     16  C   UNL     1      -1.352  -0.581   0.192  0.00  0.00    +0.000 A 
ATOM     17  C   UNL     1      -0.106  -0.925  -0.333  0.00  0.00    +0.000 A 
ENDBRANCH  10  14
ENDBRANCH   1  10
TORSDOF 3
