REMARK  Name = *****
REMARK  5 active torsions:
REMARK  status: ('A' for Active; 'I' for Inactive)
REMARK    1  A    between atoms: C_1  and  C_2
REMARK    2  A    between atoms: C_6  and  C_9
REMARK    3  A    between atoms: C_6  and  C_10
REMARK    4  A    between atoms: C_10  and  S_11
REMARK    5  A    between atoms: S_11  and  C_12
REMARK                            x       y       z     vdW  Elec       q    Type
REMARK                         _______ _______ _______ _____ _____    ______ ____
ROOT
ATOM      1  C   UNL     1       1.027   0.325  -0.288  0.00  0.00    +0.000 C 
ATOM      2  C   UNL     1       2.507   0.199  -0.112  0.00  0.00    +0.000 C 
ATOM      3  C   UNL     1       3.344   1.245  -0.085  0.00  0.00    +0.000 C 
ATOM      4  C   UNL     1       4.762   1.115   0.092  0.00  0.00    +0.000 C 
ATOM      5  C   UNL     1       5.343  -0.081   0.232  0.00  0.00    +0.000 C 
ATOM      6  C   UNL     1       4.582  -1.396   0.215  0.00  0.00    +0.000 C 
ATOM      7  C   UNL     1       3.058  -1.185   0.040  0.00  0.00    +0.000 C 
ATOM      8  O   UNL     1       2.278  -2.141   0.013  0.00  0.00    +0.000 OA
ATOM      9  C   UNL     1       4.781  -2.101   1.568  0.00  0.00    +0.000 C 
ENDROOT
BRANCH   6  10
ATOM     10  C   UNL     1       5.019  -2.284  -0.979  0.00  0.00    +0.000 C 
BRANCH  10  11
ATOM     11  S   UNL     1       6.779  -2.817  -0.957  0.00  0.00    +0.000 S 
BRANCH  11  12
ATOM     12  C   UNL     1       6.939  -3.500  -2.598  0.00  0.00    +0.000 A 
ATOM     13  C   UNL     1       6.029  -4.430  -3.112  0.00  0.00    +0.000 A 
ATOM     14  C   UNL     1       6.199  -4.948  -4.399  0.00  0.00    +0.000 A 
ATOM     15  C   UNL     1       7.285  -4.548  -5.176  0.00  0.00    +0.000 A 
ATOM     16  C   UNL     1       8.204  -3.634  -4.665  0.00  0.00    +0.000 A 
ATOM     17  C   UNL     1       8.034  -3.116  -3.379  0.00  0.00    +0.000 A 
ENDBRANCH  11  12
ENDBRANCH  10  11
ENDBRANCH   6  10
TORSDOF 3
