REMARK  Name = *****
REMARK  4 active torsions:
REMARK  status: ('A' for Active; 'I' for Inactive)
REMARK    1  A    between atoms: C_1  and  N_2
REMARK    2  A    between atoms: N_2  and  C_3
REMARK    3  A    between atoms: C_10  and  C_12
REMARK    4  A    between atoms: C_12  and  C_13
REMARK                            x       y       z     vdW  Elec       q    Type
REMARK                         _______ _______ _______ _____ _____    ______ ____
ROOT
ATOM      1  C   UNL     1       1.101  -0.015  -0.124  0.00  0.00    +0.000 C 
ATOM      2  N   UNL     1       2.559  -0.064  -0.103  0.00  0.00    +0.000 N 
ATOM      3  C   UNL     1       3.210  -0.137  -1.338  0.00  0.00    +0.000 C 
ATOM      4  O   UNL     1       2.589  -0.028  -2.400  0.00  0.00    +0.000 OA
ENDROOT
BRANCH   2   5
ATOM      5  C   UNL     1       3.206   0.215   1.137  0.00  0.00    +0.000 A 
ATOM      6  C   UNL     1       4.090   1.304   1.210  0.00  0.00    +0.000 A 
ATOM      7  C   UNL     1       4.715   1.640   2.413  0.00  0.00    +0.000 A 
ATOM      8  C   UNL     1       4.463   0.895   3.562  0.00  0.00    +0.000 A 
ATOM      9  C   UNL     1       3.587  -0.188   3.509  0.00  0.00    +0.000 A 
ATOM     10  C   UNL     1       2.957  -0.529   2.306  0.00  0.00    +0.000 A 
ATOM     11 CL   UNL     1       1.965  -1.948   2.314  0.00  0.00    +0.000 Cl
ENDBRANCH   2   5
BRANCH   3  12
ATOM     12  C   UNL     1       4.717  -0.401  -1.328  0.00  0.00    +0.000 C 
BRANCH  12  13
ATOM     13  C   UNL     1       5.164  -1.367  -2.404  0.00  0.00    +0.000 A 
ATOM     14  C   UNL     1       5.488  -0.906  -3.687  0.00  0.00    +0.000 A 
ATOM     15  C   UNL     1       5.893  -1.800  -4.678  0.00  0.00    +0.000 A 
ATOM     16  C   UNL     1       5.972  -3.163  -4.399  0.00  0.00    +0.000 A 
ATOM     17  C   UNL     1       5.642  -3.634  -3.130  0.00  0.00    +0.000 A 
ATOM     18  C   UNL     1       5.235  -2.741  -2.136  0.00  0.00    +0.000 A 
ENDBRANCH  12  13
ENDBRANCH   3  12
TORSDOF 3
