REMARK  Name = *****
REMARK  2 active torsions:
REMARK  status: ('A' for Active; 'I' for Inactive)
REMARK    1  A    between atoms: C_5  and  C_7
REMARK    2  A    between atoms: C_10  and  C_12
REMARK                            x       y       z     vdW  Elec       q    Type
REMARK                         _______ _______ _______ _____ _____    ______ ____
ROOT
ATOM      1  C   UNL     1      -0.482  -2.531   0.054  0.00  0.00    +0.000 A 
ATOM      2  N   UNL     1      -0.388  -3.475   0.971  0.00  0.00    +0.000 NA
ATOM      3  N   UNL     1      -1.169  -4.527   0.535  0.00  0.00    +0.000 NA
ATOM      4  C   UNL     1      -1.668  -4.164  -0.629  0.00  0.00    +0.000 A 
ATOM      5  O   UNL     1      -1.257  -2.914  -1.008  0.00  0.00    +0.000 OA
ENDROOT
BRANCH   1  10
ATOM      6  C   UNL     1       2.142   0.087   0.631  0.00  0.00    +0.000 A 
ATOM      7  C   UNL     1       1.632   1.189  -0.045  0.00  0.00    +0.000 A 
ATOM      8  C   UNL     1       0.403   1.092  -0.695  0.00  0.00    +0.000 A 
ATOM      9  C   UNL     1      -0.321  -0.110  -0.680  0.00  0.00    +0.000 A 
ATOM     10  C   UNL     1       0.188  -1.238  -0.014  0.00  0.00    +0.000 A 
ATOM     11  C   UNL     1       1.425  -1.112   0.649  0.00  0.00    +0.000 A 
ATOM     12 CL   UNL     1      -1.861  -0.083  -1.471  0.00  0.00    +0.000 Cl
ENDBRANCH   1  10
BRANCH   4  13
ATOM     13  C   UNL     1      -2.555  -4.881  -1.535  0.00  0.00    +0.000 A 
ATOM     14  C   UNL     1      -2.987  -4.319  -2.744  0.00  0.00    +0.000 A 
ATOM     15  C   UNL     1      -3.835  -5.038  -3.582  0.00  0.00    +0.000 A 
ATOM     16  C   UNL     1      -4.269  -6.314  -3.245  0.00  0.00    +0.000 A 
ATOM     17  C   UNL     1      -3.849  -6.886  -2.048  0.00  0.00    +0.000 A 
ATOM     18  C   UNL     1      -2.997  -6.172  -1.199  0.00  0.00    +0.000 A 
ATOM     19  F   UNL     1      -4.239  -4.489  -4.735  0.00  0.00    +0.000 F 
ENDBRANCH   4  13
TORSDOF 2
