REMARK  Name = *****
REMARK  4 active torsions:
REMARK  status: ('A' for Active; 'I' for Inactive)
REMARK    1  A    between atoms: C_1  and  C_2
REMARK    2  A    between atoms: C_5  and  C_8
REMARK    3  A    between atoms: C_8  and  O_9
REMARK    4  A    between atoms: O_9  and  C_10
REMARK                            x       y       z     vdW  Elec       q    Type
REMARK                         _______ _______ _______ _____ _____    ______ ____
ROOT
ATOM      1  C   UNL     1      -5.223   1.464   0.049  0.00  0.00    +0.000 A 
ATOM      2  C   UNL     1      -5.673   2.759   0.336  0.00  0.00    +0.000 A 
ATOM      3  C   UNL     1      -7.032   3.049   0.417  0.00  0.00    +0.000 A 
ATOM      4  C   UNL     1      -7.966   2.047   0.211  0.00  0.00    +0.000 A 
ATOM      5  C   UNL     1      -7.540   0.758  -0.076  0.00  0.00    +0.000 A 
ATOM      6  C   UNL     1      -6.179   0.466  -0.157  0.00  0.00    +0.000 A 
ATOM      7  F   UNL     1      -5.821  -0.794  -0.441  0.00  0.00    +0.000 F 
ATOM      8  F   UNL     1      -8.442  -0.213  -0.277  0.00  0.00    +0.000 F 
ATOM      9  F   UNL     1      -9.275   2.320   0.289  0.00  0.00    +0.000 F 
ATOM     10  F   UNL     1      -7.436   4.296   0.696  0.00  0.00    +0.000 F 
ATOM     11  F   UNL     1      -4.785   3.744   0.542  0.00  0.00    +0.000 F 
ENDROOT
BRANCH   1  12
ATOM     12  O   UNL     1      -3.863   1.321  -0.004  0.00  0.00    +0.000 OA
BRANCH  12  13
ATOM     13  C   UNL     1      -3.333   0.008  -0.205  0.00  0.00    +0.000 C 
BRANCH  13  18
ATOM     14  C   UNL     1       2.497  -0.025   0.050  0.00  0.00    +0.000 C 
ATOM     15  C   UNL     1       1.000   0.012  -0.041  0.00  0.00    +0.000 A 
ATOM     16  C   UNL     1       0.268   0.945   0.700  0.00  0.00    +0.000 A 
ATOM     17  C   UNL     1      -1.128   0.960   0.642  0.00  0.00    +0.000 A 
ATOM     18  C   UNL     1      -1.821   0.042  -0.159  0.00  0.00    +0.000 A 
ATOM     19  C   UNL     1      -1.084  -0.911  -0.876  0.00  0.00    +0.000 A 
ATOM     20  C   UNL     1       0.312  -0.926  -0.817  0.00  0.00    +0.000 A 
ENDBRANCH  13  18
ENDBRANCH  12  13
ENDBRANCH   1  12
TORSDOF 3
