REMARK  Name = *****
REMARK  4 active torsions:
REMARK  status: ('A' for Active; 'I' for Inactive)
REMARK    1  A    between atoms: C_4  and  C_7
REMARK    2  A    between atoms: C_7  and  N_8
REMARK    3  A    between atoms: N_8  and  C_9
REMARK    4  A    between atoms: C_9  and  C_11
REMARK                            x       y       z     vdW  Elec       q    Type
REMARK                         _______ _______ _______ _____ _____    ______ ____
ROOT
ATOM      1  C   UNL     1      -5.228  -0.607  -0.697  0.00  0.00    +0.000 C 
ATOM      2  S   UNL     1      -6.241   0.656  -0.258  0.00  0.00    +0.000 S 
ENDROOT
BRANCH   1   3
ATOM      3  C   UNL     1      -5.762  -1.851  -1.323  0.00  0.00    +0.000 A 
ATOM      4  C   UNL     1      -5.217  -2.290  -2.537  0.00  0.00    +0.000 A 
ATOM      5  C   UNL     1      -5.696  -3.460  -3.134  0.00  0.00    +0.000 A 
ATOM      6  C   UNL     1      -6.722  -4.191  -2.521  0.00  0.00    +0.000 A 
ATOM      7  C   UNL     1      -7.265  -3.748  -1.311  0.00  0.00    +0.000 A 
ATOM      8  C   UNL     1      -6.787  -2.581  -0.710  0.00  0.00    +0.000 A 
ATOM      9 CL   UNL     1      -7.358  -5.645  -3.203  0.00  0.00    +0.000 Cl
ATOM     10 CL   UNL     1      -4.976  -3.950  -4.626  0.00  0.00    +0.000 Cl
ENDBRANCH   1   3
BRANCH   1  11
ATOM     11  N   UNL     1      -3.853  -0.624  -0.537  0.00  0.00    +0.000 N 
ATOM     12  H   UNL     1      -3.405  -1.487  -0.695  0.00  0.00    +0.000 HD
BRANCH  11  13
ATOM     13  C   UNL     1      -2.994   0.491  -0.162  0.00  0.00    +0.000 C 
BRANCH  13  17
ATOM     14  C   UNL     1      -0.979   1.938  -3.689  0.00  0.00    +0.000 A 
ATOM     15  C   UNL     1      -2.202   2.488  -3.309  0.00  0.00    +0.000 A 
ATOM     16  C   UNL     1      -2.848   2.027  -2.161  0.00  0.00    +0.000 A 
ATOM     17  C   UNL     1      -2.274   1.016  -1.378  0.00  0.00    +0.000 A 
ATOM     18  C   UNL     1      -1.047   0.464  -1.775  0.00  0.00    +0.000 A 
ATOM     19  C   UNL     1      -0.402   0.927  -2.924  0.00  0.00    +0.000 A 
ENDBRANCH  13  17
ENDBRANCH  11  13
ENDBRANCH   1  11
TORSDOF 4
