REMARK  Name = *****
REMARK  5 active torsions:
REMARK  status: ('A' for Active; 'I' for Inactive)
REMARK    1  A    between atoms: C_1  and  O_2
REMARK    2  A    between atoms: O_2  and  C_3
REMARK    3  A    between atoms: C_3  and  C_5
REMARK    4  A    between atoms: C_10  and  C_11
REMARK    5  A    between atoms: C_12  and  C_13
REMARK                            x       y       z     vdW  Elec       q    Type
REMARK                         _______ _______ _______ _____ _____    ______ ____
ROOT
ATOM      1  C   UNL     1       4.476   0.906   0.979  0.00  0.00    +0.000 A 
ATOM      2  C   UNL     1       5.210   0.901  -0.219  0.00  0.00    +0.000 A 
ATOM      3  C   UNL     1       6.599   0.764  -0.195  0.00  0.00    +0.000 A 
ATOM      4  C   UNL     1       7.262   0.635   1.023  0.00  0.00    +0.000 A 
ATOM      5  C   UNL     1       6.538   0.639   2.218  0.00  0.00    +0.000 A 
ATOM      6  C   UNL     1       5.143   0.775   2.207  0.00  0.00    +0.000 A 
ENDROOT
BRANCH   1   7
ATOM      7  C   UNL     1       3.005   1.085   0.920  0.00  0.00    +0.000 C 
ATOM      8  O   UNL     1       2.360   1.814   1.653  0.00  0.00    +0.000 OA
BRANCH   7  10
ATOM      9  C   UNL     1       1.089   0.369  -0.203  0.00  0.00    +0.000 C 
ATOM     10  O   UNL     1       2.509   0.301  -0.072  0.00  0.00    +0.000 OA
ENDBRANCH   7  10
ENDBRANCH   1   7
BRANCH   6  11
ATOM     11  C   UNL     1       4.451   0.738   3.461  0.00  0.00    +0.000 C 
ATOM     12  C   UNL     1       3.866   0.708   4.510  0.00  0.00    +0.000 C 
BRANCH  12  13
ATOM     13  C   UNL     1       3.154   0.681   5.749  0.00  0.00    +0.000 A 
ATOM     14  C   UNL     1       2.889  -0.538   6.379  0.00  0.00    +0.000 A 
ATOM     15  C   UNL     1       2.189  -0.563   7.589  0.00  0.00    +0.000 A 
ATOM     16  C   UNL     1       1.758   0.633   8.163  0.00  0.00    +0.000 A 
ATOM     17  C   UNL     1       2.019   1.852   7.539  0.00  0.00    +0.000 A 
ATOM     18  C   UNL     1       2.718   1.875   6.329  0.00  0.00    +0.000 A 
ATOM     19 CL   UNL     1       0.896   0.602   9.652  0.00  0.00    +0.000 Cl
ENDBRANCH  12  13
ENDBRANCH   6  11
TORSDOF 4
