REMARK  Name = *****
REMARK  3 active torsions:
REMARK  status: ('A' for Active; 'I' for Inactive)
REMARK    1  A    between atoms: C_4  and  C_7
REMARK    2  A    between atoms: C_8  and  C_9
REMARK    3  A    between atoms: N_15  and  O_16
REMARK                            x       y       z     vdW  Elec       q    Type
REMARK                         _______ _______ _______ _____ _____    ______ ____
ROOT
ATOM      1  C   UNL     1      -5.164  -0.337  -0.648  0.00  0.00    +0.000 C 
ATOM      2  C   UNL     1      -5.653   0.697  -1.450  0.00  0.00    +0.000 C 
ATOM      3  C   UNL     1      -7.030   0.859  -1.651  0.00  0.00    +0.000 C 
ATOM      4  C   UNL     1      -7.969  -0.011  -1.069  0.00  0.00    +0.000 C 
ATOM      5  C   UNL     1      -7.460  -1.056  -0.278  0.00  0.00    +0.000 C 
ATOM      6  C   UNL     1      -6.083  -1.220  -0.075  0.00  0.00    +0.000 C 
ATOM      7  N   UNL     1      -9.304   0.105  -1.234  0.00  0.00    +0.000 NA
ENDROOT
BRANCH   1   9
ATOM      8  C   UNL     1      -2.816   0.415  -0.333  0.00  0.00    +0.000 C 
ATOM      9  C   UNL     1      -3.727  -0.566  -0.438  0.00  0.00    +0.000 C 
BRANCH   8  13
ATOM     10  C   UNL     1       1.377  -0.153   0.306  0.00  0.00    +0.000 A 
ATOM     11  C   UNL     1       0.678  -1.052  -0.496  0.00  0.00    +0.000 A 
ATOM     12  C   UNL     1      -0.693  -0.883  -0.708  0.00  0.00    +0.000 A 
ATOM     13  C   UNL     1      -1.382   0.181  -0.109  0.00  0.00    +0.000 A 
ATOM     14  C   UNL     1      -0.663   1.088   0.682  0.00  0.00    +0.000 A 
ATOM     15  C   UNL     1       0.708   0.918   0.893  0.00  0.00    +0.000 A 
ENDBRANCH   8  13
ENDBRANCH   1   9
BRANCH   7  16
ATOM     16  O   UNL     1      -9.614   1.185  -2.043  0.00  0.00    +0.000 OA
ATOM     17  O   UNL     1     -10.947   1.296  -2.205  0.00  0.00    +0.000 OA
ENDBRANCH   7  16
TORSDOF 3
