REMARK  Name = *****
REMARK  3 active torsions:
REMARK  status: ('A' for Active; 'I' for Inactive)
REMARK    1  A    between atoms: C_3  and  N_8
REMARK    2  A    between atoms: N_8  and  C_9
REMARK    3  A    between atoms: C_9  and  C_10
REMARK                            x       y       z     vdW  Elec       q    Type
REMARK                         _______ _______ _______ _____ _____    ______ ____
ROOT
ATOM      1  N   UNL     1       2.355   2.482   0.318  0.00  0.00    +0.000 N 
ATOM      2  H   UNL     1       3.316   2.448   0.527  0.00  0.00    +0.000 HD
ENDROOT
BRANCH   1   5
ATOM      3  C   UNL     1       1.636  -1.147   0.222  0.00  0.00    +0.000 A 
ATOM      4  C   UNL     1       2.307   0.080   0.208  0.00  0.00    +0.000 A 
ATOM      5  C   UNL     1       1.612   1.299   0.263  0.00  0.00    +0.000 A 
ATOM      6  C   UNL     1       0.221   1.248   0.402  0.00  0.00    +0.000 A 
ATOM      7  C   UNL     1      -0.452   0.022   0.414  0.00  0.00    +0.000 A 
ATOM      8  C   UNL     1       0.249  -1.176   0.317  0.00  0.00    +0.000 A 
ATOM      9 CL   UNL     1      -2.168  -0.006   0.559  0.00  0.00    +0.000 Cl
ENDBRANCH   1   5
BRANCH   1  10
ATOM     10  C   UNL     1       1.711   3.764   0.067  0.00  0.00    +0.000 C 
BRANCH  10  11
ATOM     11  C   UNL     1       2.757   4.856   0.070  0.00  0.00    +0.000 A 
ATOM     12  C   UNL     1       3.049   5.576  -1.098  0.00  0.00    +0.000 A 
ATOM     13  C   UNL     1       4.017   6.583  -1.086  0.00  0.00    +0.000 A 
ATOM     14  C   UNL     1       4.700   6.875   0.094  0.00  0.00    +0.000 A 
ATOM     15  C   UNL     1       4.425   6.167   1.261  0.00  0.00    +0.000 A 
ATOM     16  C   UNL     1       3.456   5.161   1.249  0.00  0.00    +0.000 A 
ATOM     17 CL   UNL     1       5.893   8.114   0.106  0.00  0.00    +0.000 Cl
ENDBRANCH  10  11
ENDBRANCH   1  10
TORSDOF 3
