REMARK  Name = *****
REMARK  3 active torsions:
REMARK  status: ('A' for Active; 'I' for Inactive)
REMARK    1  A    between atoms: C_4  and  O_7
REMARK    2  A    between atoms: O_7  and  C_8
REMARK    3  A    between atoms: C_8  and  C_9
REMARK                            x       y       z     vdW  Elec       q    Type
REMARK                         _______ _______ _______ _____ _____    ______ ____
ROOT
ATOM      1  O   UNL     1       6.216   0.066  -0.524  0.00  0.00    +0.000 OA
ENDROOT
BRANCH   1   5
ATOM      2  C   UNL     1       2.220  -0.127   0.633  0.00  0.00    +0.000 A 
ATOM      3  C   UNL     1       2.921  -1.322   0.479  0.00  0.00    +0.000 A 
ATOM      4  C   UNL     1       4.265  -1.307   0.091  0.00  0.00    +0.000 A 
ATOM      5  C   UNL     1       4.913  -0.094  -0.143  0.00  0.00    +0.000 A 
ATOM      6  C   UNL     1       4.203   1.100   0.013  0.00  0.00    +0.000 A 
ATOM      7  C   UNL     1       2.862   1.086   0.399  0.00  0.00    +0.000 A 
ENDBRANCH   1   5
BRANCH   1   8
ATOM      8  C   UNL     1       6.995  -1.118  -0.689  0.00  0.00    +0.000 C 
BRANCH   8   9
ATOM      9  C   UNL     1       8.387  -0.725  -1.124  0.00  0.00    +0.000 A 
ATOM     10  C   UNL     1       9.506  -1.074  -0.355  0.00  0.00    +0.000 A 
ATOM     11  C   UNL     1      10.790  -0.720  -0.772  0.00  0.00    +0.000 A 
ATOM     12  C   UNL     1      10.969  -0.015  -1.961  0.00  0.00    +0.000 A 
ATOM     13  C   UNL     1       9.865   0.337  -2.735  0.00  0.00    +0.000 A 
ATOM     14  C   UNL     1       8.581  -0.017  -2.320  0.00  0.00    +0.000 A 
ENDBRANCH   8   9
ENDBRANCH   1   8
TORSDOF 3
