REMARK  Name = *****
REMARK  6 active torsions:
REMARK  status: ('A' for Active; 'I' for Inactive)
REMARK    1  A    between atoms: C_1  and  C_2
REMARK    2  A    between atoms: C_3  and  N_16
REMARK    3  A    between atoms: C_4  and  C_15
REMARK    4  A    between atoms: N_6  and  C_7
REMARK    5  A    between atoms: C_7  and  C_8
REMARK    6  A    between atoms: C_8  and  C_9
REMARK                            x       y       z     vdW  Elec       q    Type
REMARK                         _______ _______ _______ _____ _____    ______ ____
ROOT
ATOM      1  C   UNL     1       4.926   0.935   1.664  0.00  0.00    +0.000 C 
ATOM      2  C   UNL     1       4.094   0.252   0.640  0.00  0.00    +0.000 A 
ATOM      3  C   UNL     1       3.901  -1.085   0.352  0.00  0.00    +0.000 A 
ATOM      4  C   UNL     1       2.975  -1.127  -0.715  0.00  0.00    +0.000 A 
ATOM      5  N   UNL     1       2.617   0.106  -1.096  0.00  0.00    +0.000 NA
ATOM      6  N   UNL     1       3.321   0.920  -0.282  0.00  0.00    +0.000 N 
ATOM      7  C   UNL     1       2.411  -2.315  -1.401  0.00  0.00    +0.000 C 
ENDROOT
BRANCH   3   8
ATOM      8  N   UNL     1       4.464  -2.219   0.948  0.00  0.00    +0.000 NA
ATOM      9  O   UNL     1       5.301  -2.011   1.831  0.00  0.00    +0.000 OA
ENDBRANCH   3   8
BRANCH   6  10
ATOM     10  C   UNL     1       3.188   2.356  -0.467  0.00  0.00    +0.000 C 
BRANCH  10  11
ATOM     11  C   UNL     1       1.980   2.908   0.285  0.00  0.00    +0.000 C 
BRANCH  11  12
ATOM     12  C   UNL     1       1.897   4.409   0.170  0.00  0.00    +0.000 A 
ATOM     13  C   UNL     1       1.363   5.003  -0.982  0.00  0.00    +0.000 A 
ATOM     14  C   UNL     1       1.307   6.393  -1.099  0.00  0.00    +0.000 A 
ATOM     15  C   UNL     1       1.785   7.200  -0.068  0.00  0.00    +0.000 A 
ATOM     16  C   UNL     1       2.319   6.619   1.080  0.00  0.00    +0.000 A 
ATOM     17  C   UNL     1       2.378   5.230   1.199  0.00  0.00    +0.000 A 
ENDBRANCH  11  12
ENDBRANCH  10  11
ENDBRANCH   6  10
TORSDOF 4
