REMARK  Name = *****
REMARK  4 active torsions:
REMARK  status: ('A' for Active; 'I' for Inactive)
REMARK    1  A    between atoms: C_1  and  C_2
REMARK    2  A    between atoms: C_2  and  N_3
REMARK    3  A    between atoms: C_6  and  C_9
REMARK    4  A    between atoms: C_10  and  C_11
REMARK                            x       y       z     vdW  Elec       q    Type
REMARK                         _______ _______ _______ _____ _____    ______ ____
ROOT
ATOM      1  C   UNL     1       4.268  -4.499   2.067  0.00  0.00    +0.000 C 
ATOM      2  C   UNL     1       3.686  -5.642   1.669  0.00  0.00    +0.000 C 
ENDROOT
BRANCH   2   3
ATOM      3  C   UNL     1       4.231  -6.961   2.040  0.00  0.00    +0.000 A 
ATOM      4  C   UNL     1       5.510  -7.304   1.572  0.00  0.00    +0.000 A 
ATOM      5  C   UNL     1       6.064  -8.544   1.872  0.00  0.00    +0.000 A 
ATOM      6  C   UNL     1       5.344  -9.457   2.637  0.00  0.00    +0.000 A 
ATOM      7  C   UNL     1       4.062  -9.147   3.114  0.00  0.00    +0.000 A 
ATOM      8  C   UNL     1       3.351 -10.084   3.882  0.00  0.00    +0.000 A 
ATOM      9  C   UNL     1       2.076  -9.796   4.368  0.00  0.00    +0.000 A 
ATOM     10  C   UNL     1       1.496  -8.565   4.095  0.00  0.00    +0.000 A 
ATOM     11  C   UNL     1       2.190  -7.622   3.333  0.00  0.00    +0.000 A 
ATOM     12  C   UNL     1       3.483  -7.886   2.820  0.00  0.00    +0.000 A 
ENDBRANCH   2   3
BRANCH   1  16
ATOM     13  N   UNL     1       2.885  -0.585   1.194  0.00  0.00    +0.000 N 
ATOM     14  C   UNL     1       3.489  -0.849   2.375  0.00  0.00    +0.000 C 
ATOM     15  C   UNL     1       3.941  -2.130   2.670  0.00  0.00    +0.000 C 
ATOM     16  C   UNL     1       3.759  -3.160   1.748  0.00  0.00    +0.000 C 
ATOM     17  C   UNL     1       3.148  -2.860   0.531  0.00  0.00    +0.000 C 
ATOM     18  C   UNL     1       2.712  -1.564   0.277  0.00  0.00    +0.000 C 
BRANCH  13  20
ATOM     19  C   UNL     1       3.507   1.569   0.217  0.00  0.00    +0.000 C 
ATOM     20  C   UNL     1       2.405   0.787   0.903  0.00  0.00    +0.000 C 
ENDBRANCH  13  20
ENDBRANCH   1  16
TORSDOF 3
