REMARK  Name = *****
REMARK  5 active torsions:
REMARK  status: ('A' for Active; 'I' for Inactive)
REMARK    1  A    between atoms: C_1  and  C_2
REMARK    2  A    between atoms: C_5  and  N_8
REMARK    3  A    between atoms: N_8  and  C_9
REMARK    4  A    between atoms: C_10  and  C_12
REMARK    5  A    between atoms: C_16  and  C_18
REMARK                            x       y       z     vdW  Elec       q    Type
REMARK                         _______ _______ _______ _____ _____    ______ ____
ROOT
ATOM      1  N   UNL     1      -3.285   0.153  -0.428  0.00  0.00    +0.000 N 
ATOM      2  C   UNL     1      -3.959  -1.081  -0.842  0.00  0.00    +0.000 C 
ATOM      3  C   UNL     1      -3.998   1.368  -0.404  0.00  0.00    +0.000 C 
ATOM      4  O   UNL     1      -3.526   2.490  -0.576  0.00  0.00    +0.000 OA
ENDROOT
BRANCH   1   9
ATOM      5  C   UNL     1       2.419  -0.127   0.576  0.00  0.00    +0.000 C 
ATOM      6  C   UNL     1       0.950  -0.045   0.290  0.00  0.00    +0.000 A 
ATOM      7  C   UNL     1       0.238   1.125   0.546  0.00  0.00    +0.000 A 
ATOM      8  C   UNL     1      -1.142   1.191   0.306  0.00  0.00    +0.000 A 
ATOM      9  C   UNL     1      -1.857   0.096  -0.199  0.00  0.00    +0.000 A 
ATOM     10  C   UNL     1      -1.128  -1.087  -0.416  0.00  0.00    +0.000 A 
ATOM     11  C   UNL     1       0.252  -1.158  -0.178  0.00  0.00    +0.000 A 
ENDBRANCH   1   9
BRANCH   3  12
ATOM     12  C   UNL     1      -5.459   1.316  -0.143  0.00  0.00    +0.000 A 
ATOM     13  C   UNL     1      -5.958   0.628   0.968  0.00  0.00    +0.000 A 
ATOM     14  C   UNL     1      -7.331   0.616   1.212  0.00  0.00    +0.000 A 
ATOM     15  C   UNL     1      -8.199   1.296   0.355  0.00  0.00    +0.000 A 
ATOM     16  C   UNL     1      -7.707   1.997  -0.755  0.00  0.00    +0.000 A 
ATOM     17  C   UNL     1      -6.326   2.020  -0.987  0.00  0.00    +0.000 A 
ATOM     18  C   UNL     1      -8.637   2.774  -1.639  0.00  0.00    +0.000 C 
ENDBRANCH   3  12
TORSDOF 2
