REMARK  Name = *****
REMARK  4 active torsions:
REMARK  status: ('A' for Active; 'I' for Inactive)
REMARK    1  A    between atoms: C_4  and  C_7
REMARK    2  A    between atoms: C_7  and  C_8
REMARK    3  A    between atoms: C_8  and  C_9
REMARK    4  A    between atoms: C_9  and  C_11
REMARK                            x       y       z     vdW  Elec       q    Type
REMARK                         _______ _______ _______ _____ _____    ______ ____
ROOT
ATOM      1  C   UNL     1      -2.909   1.260  -1.501  0.00  0.00    +0.000 C 
ENDROOT
BRANCH   1   2
ATOM      2  C   UNL     1      -3.050   0.653  -0.109  0.00  0.00    +0.000 C 
ATOM      3  F   UNL     1      -4.115   1.271   0.495  0.00  0.00    +0.000 F 
BRANCH   2   7
ATOM      4  C   UNL     1      -3.626  -3.618  -0.404  0.00  0.00    +0.000 A 
ATOM      5  C   UNL     1      -2.343  -3.080  -0.494  0.00  0.00    +0.000 A 
ATOM      6  C   UNL     1      -2.156  -1.701  -0.392  0.00  0.00    +0.000 A 
ATOM      7  C   UNL     1      -3.252  -0.846  -0.199  0.00  0.00    +0.000 A 
ATOM      8  C   UNL     1      -4.536  -1.400  -0.109  0.00  0.00    +0.000 A 
ATOM      9  C   UNL     1      -4.722  -2.779  -0.211  0.00  0.00    +0.000 A 
ENDBRANCH   2   7
ENDBRANCH   1   2
BRANCH   1  10
ATOM     10  C   UNL     1      -2.376   2.672  -1.407  0.00  0.00    +0.000 C 
ATOM     11  O   UNL     1      -1.590   3.018  -0.528  0.00  0.00    +0.000 OA
BRANCH  10  12
ATOM     12  C   UNL     1      -2.769   3.664  -2.451  0.00  0.00    +0.000 A 
ATOM     13  C   UNL     1      -2.617   5.029  -2.161  0.00  0.00    +0.000 A 
ATOM     14  C   UNL     1      -2.965   5.994  -3.109  0.00  0.00    +0.000 A 
ATOM     15  C   UNL     1      -3.456   5.592  -4.345  0.00  0.00    +0.000 A 
ATOM     16  C   UNL     1      -3.604   4.243  -4.652  0.00  0.00    +0.000 A 
ATOM     17  C   UNL     1      -3.258   3.274  -3.706  0.00  0.00    +0.000 A 
ATOM     18  F   UNL     1      -3.788   6.515  -5.256  0.00  0.00    +0.000 F 
ENDBRANCH  10  12
ENDBRANCH   1  10
TORSDOF 4
