REMARK  Name = *****
REMARK  4 active torsions:
REMARK  status: ('A' for Active; 'I' for Inactive)
REMARK    1  A    between atoms: C_4  and  C_7
REMARK    2  A    between atoms: C_7  and  O_8
REMARK    3  A    between atoms: O_8  and  S_9
REMARK    4  A    between atoms: S_9  and  C_11
REMARK                            x       y       z     vdW  Elec       q    Type
REMARK                         _______ _______ _______ _____ _____    ______ ____
ROOT
ATOM      1  S   UNL     1      -5.458  -0.228   0.058  0.00  0.00    +0.000 S 
ATOM      2  O   UNL     1      -5.813   0.803  -0.972  0.00  0.00    +0.000 OA
ENDROOT
BRANCH   1   3
ATOM      3  C   UNL     1      -5.925  -1.828  -0.657  0.00  0.00    +0.000 A 
ATOM      4  C   UNL     1      -5.454  -3.021  -0.089  0.00  0.00    +0.000 A 
ATOM      5  C   UNL     1      -5.830  -4.254  -0.628  0.00  0.00    +0.000 A 
ATOM      6  C   UNL     1      -6.682  -4.291  -1.726  0.00  0.00    +0.000 A 
ATOM      7  C   UNL     1      -7.165  -3.119  -2.297  0.00  0.00    +0.000 A 
ATOM      8  C   UNL     1      -6.789  -1.886  -1.761  0.00  0.00    +0.000 A 
ATOM      9  F   UNL     1      -7.043  -5.473  -2.241  0.00  0.00    +0.000 F 
ENDBRANCH   1   3
BRANCH   1  10
ATOM     10  O   UNL     1      -3.880  -0.532  -0.059  0.00  0.00    +0.000 OA
BRANCH  10  11
ATOM     11  C   UNL     1      -3.067   0.590  -0.385  0.00  0.00    +0.000 C 
BRANCH  11  15
ATOM     12  C   UNL     1       1.080  -0.536   0.019  0.00  0.00    +0.000 A 
ATOM     13  C   UNL     1       0.237  -1.263  -0.819  0.00  0.00    +0.000 A 
ATOM     14  C   UNL     1      -1.104  -0.899  -0.947  0.00  0.00    +0.000 A 
ATOM     15  C   UNL     1      -1.619   0.193  -0.232  0.00  0.00    +0.000 A 
ATOM     16  C   UNL     1      -0.760   0.919   0.605  0.00  0.00    +0.000 A 
ATOM     17  C   UNL     1       0.582   0.555   0.730  0.00  0.00    +0.000 A 
ENDBRANCH  11  15
ENDBRANCH  10  11
ENDBRANCH   1  10
TORSDOF 4
