REMARK  Name = *****
REMARK  5 active torsions:
REMARK  status: ('A' for Active; 'I' for Inactive)
REMARK    1  A    between atoms: C_1  and  C_2
REMARK    2  A    between atoms: C_7  and  C_8
REMARK    3  A    between atoms: C_9  and  C_10
REMARK    4  A    between atoms: C_9  and  C_12
REMARK    5  A    between atoms: C_17  and  C_18
REMARK                            x       y       z     vdW  Elec       q    Type
REMARK                         _______ _______ _______ _____ _____    ______ ____
ROOT
ATOM      1  C   UNL     1       1.221  -2.322   0.242  0.00  0.00    +0.000 C 
ATOM      2  C   UNL     1       2.480  -2.505  -0.203  0.00  0.00    +0.000 C 
ENDROOT
BRANCH   1   9
ATOM      3  C   UNL     1      -1.107  -1.977  -1.560  0.00  0.00    +0.000 C 
ATOM      4  C   UNL     1      -0.636  -0.884  -0.639  0.00  0.00    +0.000 A 
ATOM      5  C   UNL     1      -1.317   0.345  -0.631  0.00  0.00    +0.000 A 
ATOM      6  C   UNL     1      -0.904   1.385   0.202  0.00  0.00    +0.000 A 
ATOM      7  C   UNL     1       0.194   1.212   1.038  0.00  0.00    +0.000 A 
ATOM      8  C   UNL     1       0.881  -0.002   1.042  0.00  0.00    +0.000 A 
ATOM      9  C   UNL     1       0.479  -1.053   0.204  0.00  0.00    +0.000 A 
ENDBRANCH   1   9
BRANCH   2  10
ATOM     10  C   UNL     1       3.063  -3.857  -0.094  0.00  0.00    +0.000 A 
ATOM     11  C   UNL     1       3.536  -4.281   1.160  0.00  0.00    +0.000 A 
ATOM     12  C   UNL     1       4.096  -5.548   1.320  0.00  0.00    +0.000 A 
ATOM     13  C   UNL     1       4.192  -6.406   0.229  0.00  0.00    +0.000 A 
ATOM     14  C   UNL     1       3.725  -6.000  -1.021  0.00  0.00    +0.000 A 
ATOM     15  C   UNL     1       3.150  -4.731  -1.199  0.00  0.00    +0.000 A 
ATOM     16  C   UNL     1       2.671  -4.335  -2.570  0.00  0.00    +0.000 C 
ENDBRANCH   2  10
BRANCH   2  17
ATOM     17  C   UNL     1       3.265  -1.460  -0.783  0.00  0.00    +0.000 C 
ATOM     18  N   UNL     1       3.916  -0.622  -1.254  0.00  0.00    +0.000 NA
ENDBRANCH   2  17
TORSDOF 3
