REMARK  Name = *****
REMARK  5 active torsions:
REMARK  status: ('A' for Active; 'I' for Inactive)
REMARK    1  A    between atoms: C_1  and  C_2
REMARK    2  A    between atoms: C_3  and  C_19
REMARK    3  A    between atoms: C_5  and  O_8
REMARK    4  A    between atoms: O_8  and  C_9
REMARK    5  A    between atoms: C_9  and  C_11
REMARK                            x       y       z     vdW  Elec       q    Type
REMARK                         _______ _______ _______ _____ _____    ______ ____
ROOT
ATOM      1  C   UNL     1      -4.163  -0.919   0.583  0.00  0.00    +0.000 C 
ATOM      2  O   UNL     1      -4.078  -0.142   1.522  0.00  0.00    +0.000 OA
ENDROOT
BRANCH   1   3
ATOM      3  C   UNL     1      -5.385  -1.717   0.328  0.00  0.00    +0.000 A 
ATOM      4  C   UNL     1      -5.690  -2.261  -0.923  0.00  0.00    +0.000 A 
ATOM      5  C   UNL     1      -6.854  -3.001  -1.115  0.00  0.00    +0.000 A 
ATOM      6  C   UNL     1      -7.722  -3.191  -0.049  0.00  0.00    +0.000 A 
ATOM      7  C   UNL     1      -7.449  -2.650   1.203  0.00  0.00    +0.000 A 
ATOM      8  C   UNL     1      -6.281  -1.908   1.393  0.00  0.00    +0.000 A 
ATOM      9  F   UNL     1      -8.843  -3.900  -0.229  0.00  0.00    +0.000 F 
ATOM     10  F   UNL     1      -4.891  -2.069  -1.982  0.00  0.00    +0.000 F 
ENDBRANCH   1   3
BRANCH   1  11
ATOM     11  O   UNL     1      -3.178  -1.255  -0.324  0.00  0.00    +0.000 OA
BRANCH  11  16
ATOM     12  C   UNL     1       1.863   1.377   0.019  0.00  0.00    +0.000 C 
ATOM     13  C   UNL     1       0.538   0.669  -0.061  0.00  0.00    +0.000 A 
ATOM     14  C   UNL     1       0.448  -0.736   0.046  0.00  0.00    +0.000 A 
ATOM     15  C   UNL     1      -0.811  -1.351  -0.034  0.00  0.00    +0.000 A 
ATOM     16  C   UNL     1      -1.959  -0.577  -0.193  0.00  0.00    +0.000 A 
ATOM     17  C   UNL     1      -1.880   0.805  -0.316  0.00  0.00    +0.000 A 
ATOM     18  C   UNL     1      -0.634   1.425  -0.240  0.00  0.00    +0.000 A 
ATOM     19  C   UNL     1       1.674  -1.589   0.224  0.00  0.00    +0.000 C 
ENDBRANCH  11  16
ENDBRANCH   1  11
TORSDOF 3
