REMARK  Name = *****
REMARK  5 active torsions:
REMARK  status: ('A' for Active; 'I' for Inactive)
REMARK    1  A    between atoms: C_1  and  C_2
REMARK    2  A    between atoms: C_3  and  C_8
REMARK    3  A    between atoms: C_4  and  C_7
REMARK    4  A    between atoms: C_8  and  S_9
REMARK    5  A    between atoms: S_9  and  C_10
REMARK                            x       y       z     vdW  Elec       q    Type
REMARK                         _______ _______ _______ _____ _____    ______ ____
ROOT
ATOM      1  C   UNL     1       0.084   2.563   0.010  0.00  0.00    +0.000 C 
ENDROOT
BRANCH   1   4
ATOM      2  C   UNL     1      -0.186   0.500   2.623  0.00  0.00    +0.000 C 
ATOM      3  C   UNL     1       0.011   0.266   1.180  0.00  0.00    +0.000 A 
ATOM      4  C   UNL     1       0.137   1.081   0.073  0.00  0.00    +0.000 A 
ATOM      5  C   UNL     1       0.317   0.157  -0.997  0.00  0.00    +0.000 A 
ATOM      6  N   UNL     1       0.279  -1.109  -0.564  0.00  0.00    +0.000 NA
ATOM      7  O   UNL     1       0.091  -1.035   0.800  0.00  0.00    +0.000 OA
ATOM      8  C   UNL     1       0.532   0.425  -2.438  0.00  0.00    +0.000 C 
ENDBRANCH   1   4
BRANCH   1   9
ATOM      9  S   UNL     1       1.764   3.262  -0.038  0.00  0.00    +0.000 S 
BRANCH   9  10
ATOM     10  C   UNL     1       1.362   5.051  -0.031  0.00  0.00    +0.000 C 
ATOM     11  C   UNL     1       0.772   5.495  -1.375  0.00  0.00    +0.000 C 
ATOM     12  C   UNL     1       0.536   7.005  -1.409  0.00  0.00    +0.000 C 
ATOM     13  C   UNL     1       1.806   7.783  -1.080  0.00  0.00    +0.000 C 
ATOM     14  C   UNL     1       2.400   7.342   0.254  0.00  0.00    +0.000 C 
ATOM     15  C   UNL     1       2.643   5.834   0.290  0.00  0.00    +0.000 C 
ENDBRANCH   9  10
ENDBRANCH   1   9
TORSDOF 3
