REMARK  Name = *****
REMARK  2 active torsions:
REMARK  status: ('A' for Active; 'I' for Inactive)
REMARK    1  A    between atoms: C_3  and  C_8
REMARK    2  A    between atoms: C_9  and  C_10
REMARK                            x       y       z     vdW  Elec       q    Type
REMARK                         _______ _______ _______ _____ _____    ______ ____
ROOT
ATOM      1  C   UNL     1      -1.868  -2.529  -0.075  0.00  0.00    +0.000 C 
ATOM      2  C   UNL     1      -3.185  -2.714   0.120  0.00  0.00    +0.000 C 
ENDROOT
BRANCH   1   5
ATOM      3  C   UNL     1      -1.157   1.266  -0.327  0.00  0.00    +0.000 C 
ATOM      4  C   UNL     1      -1.953   0.033   0.099  0.00  0.00    +0.000 C 
ATOM      5  C   UNL     1      -1.161  -1.251  -0.023  0.00  0.00    +0.000 C 
ATOM      6  C   UNL     1       0.182  -1.247  -0.097  0.00  0.00    +0.000 C 
ATOM      7  C   UNL     1       0.962   0.009   0.024  0.00  0.00    +0.000 C 
ATOM      8  O   UNL     1       2.189  -0.036  -0.040  0.00  0.00    +0.000 OA
ATOM      9  C   UNL     1       0.219   1.291   0.314  0.00  0.00    +0.000 C 
ENDBRANCH   1   5
BRANCH   2  10
ATOM     10  C   UNL     1      -3.846  -4.027   0.056  0.00  0.00    +0.000 A 
ATOM     11  C   UNL     1      -3.257  -5.189   0.579  0.00  0.00    +0.000 A 
ATOM     12  C   UNL     1      -3.932  -6.411   0.527  0.00  0.00    +0.000 A 
ATOM     13  C   UNL     1      -5.201  -6.470  -0.036  0.00  0.00    +0.000 A 
ATOM     14  C   UNL     1      -5.810  -5.329  -0.543  0.00  0.00    +0.000 A 
ATOM     15  C   UNL     1      -5.135  -4.107  -0.492  0.00  0.00    +0.000 A 
ATOM     16  F   UNL     1      -5.849  -7.641  -0.083  0.00  0.00    +0.000 F 
ENDBRANCH   2  10
TORSDOF 2
