REMARK  Name = *****
REMARK  4 active torsions:
REMARK  status: ('A' for Active; 'I' for Inactive)
REMARK    1  A    between atoms: C_1  and  C_2
REMARK    2  A    between atoms: C_4  and  C_8
REMARK    3  A    between atoms: C_8  and  C_9
REMARK    4  A    between atoms: C_9  and  C_11
REMARK                            x       y       z     vdW  Elec       q    Type
REMARK                         _______ _______ _______ _____ _____    ______ ____
ROOT
ATOM      1  C   UNL     1      -1.574   1.579  -1.589  0.00  0.00    +0.000 C 
ENDROOT
BRANCH   1   5
ATOM      2  C   UNL     1       2.656   0.263   0.182  0.00  0.00    +0.000 C 
ATOM      3  C   UNL     1       1.163   0.170   0.053  0.00  0.00    +0.000 C 
ATOM      4  C   UNL     1       0.391   1.265  -0.067  0.00  0.00    +0.000 C 
ATOM      5  C   UNL     1      -1.118   1.237  -0.161  0.00  0.00    +0.000 C 
ATOM      6  C   UNL     1      -1.680  -0.126   0.286  0.00  0.00    +0.000 C 
ATOM      7  C   UNL     1      -0.892  -1.291  -0.306  0.00  0.00    +0.000 C 
ATOM      8  C   UNL     1       0.585  -1.223   0.088  0.00  0.00    +0.000 C 
ENDBRANCH   1   5
BRANCH   1   9
ATOM      9  C   UNL     1      -1.295   3.027  -1.966  0.00  0.00    +0.000 C 
ATOM     10  O   UNL     1      -1.414   3.939  -1.148  0.00  0.00    +0.000 OA
BRANCH   9  11
ATOM     11  C   UNL     1      -0.903   3.290  -3.419  0.00  0.00    +0.000 C 
ATOM     12  C   UNL     1       0.585   2.984  -3.618  0.00  0.00    +0.000 C 
ATOM     13  C   UNL     1       1.034   3.279  -5.048  0.00  0.00    +0.000 C 
ATOM     14  C   UNL     1       0.697   4.707  -5.465  0.00  0.00    +0.000 C 
ATOM     15  C   UNL     1      -0.784   5.016  -5.265  0.00  0.00    +0.000 C 
ATOM     16  C   UNL     1      -1.226   4.731  -3.832  0.00  0.00    +0.000 C 
ENDBRANCH   9  11
ENDBRANCH   1   9
TORSDOF 3
