REMARK  Name = *****
REMARK  3 active torsions:
REMARK  status: ('A' for Active; 'I' for Inactive)
REMARK    1  A    between atoms: C_4  and  C_7
REMARK    2  A    between atoms: C_8  and  C_9
REMARK    3  A    between atoms: C_10  and  C_17
REMARK                            x       y       z     vdW  Elec       q    Type
REMARK                         _______ _______ _______ _____ _____    ______ ____
ROOT
ATOM      1  C   UNL     1      -5.128  -0.107  -0.668  0.00  0.00    +0.000 A 
ATOM      2  C   UNL     1      -5.947   0.277   0.412  0.00  0.00    +0.000 A 
ATOM      3  C   UNL     1      -7.316   0.533   0.204  0.00  0.00    +0.000 A 
ATOM      4  C   UNL     1      -7.876   0.401  -1.067  0.00  0.00    +0.000 A 
ATOM      5  C   UNL     1      -7.072   0.006  -2.128  0.00  0.00    +0.000 A 
ATOM      6  C   UNL     1      -5.718  -0.250  -1.933  0.00  0.00    +0.000 A 
ATOM      7  F   UNL     1      -4.973  -0.637  -2.981  0.00  0.00    +0.000 F 
ATOM      8  F   UNL     1      -7.614  -0.129  -3.346  0.00  0.00    +0.000 F 
ENDROOT
BRANCH   1  10
ATOM      9  C   UNL     1      -2.794   0.478  -0.082  0.00  0.00    +0.000 C 
ATOM     10  C   UNL     1      -3.692  -0.406  -0.545  0.00  0.00    +0.000 C 
BRANCH   9  14
ATOM     11  C   UNL     1       1.399  -0.264   0.302  0.00  0.00    +0.000 A 
ATOM     12  C   UNL     1       0.720  -0.732  -0.821  0.00  0.00    +0.000 A 
ATOM     13  C   UNL     1      -0.651  -0.503  -0.957  0.00  0.00    +0.000 A 
ATOM     14  C   UNL     1      -1.358   0.188   0.036  0.00  0.00    +0.000 A 
ATOM     15  C   UNL     1      -0.663   0.666   1.153  0.00  0.00    +0.000 A 
ATOM     16  C   UNL     1       0.709   0.437   1.288  0.00  0.00    +0.000 A 
ENDBRANCH   9  14
ENDBRANCH   1  10
BRANCH   2  17
ATOM     17  C   UNL     1      -5.436   0.402   1.750  0.00  0.00    +0.000 C 
ATOM     18  N   UNL     1      -5.052   0.521   2.838  0.00  0.00    +0.000 NA
ENDBRANCH   2  17
TORSDOF 3
