REMARK  Name = *****
REMARK  5 active torsions:
REMARK  status: ('A' for Active; 'I' for Inactive)
REMARK    1  A    between atoms: C_1  and  C_2
REMARK    2  A    between atoms: C_5  and  C_8
REMARK    3  A    between atoms: C_8  and  C_9
REMARK    4  A    between atoms: C_9  and  O_10
REMARK    5  A    between atoms: O_10  and  C_11
REMARK                            x       y       z     vdW  Elec       q    Type
REMARK                         _______ _______ _______ _____ _____    ______ ____
ROOT
ATOM      1  C   UNL     1      -3.292   0.100   0.011  0.00  0.00    +0.000 C 
ENDROOT
BRANCH   1   6
ATOM      2  C   UNL     1       2.528  -0.000  -0.089  0.00  0.00    +0.000 C 
ATOM      3  C   UNL     1       1.029   0.012  -0.052  0.00  0.00    +0.000 A 
ATOM      4  C   UNL     1       0.339   0.077   1.163  0.00  0.00    +0.000 A 
ATOM      5  C   UNL     1      -1.058   0.094   1.185  0.00  0.00    +0.000 A 
ATOM      6  C   UNL     1      -1.787   0.045  -0.009  0.00  0.00    +0.000 A 
ATOM      7  C   UNL     1      -1.096  -0.015  -1.225  0.00  0.00    +0.000 A 
ATOM      8  C   UNL     1       0.300  -0.033  -1.245  0.00  0.00    +0.000 A 
ENDBRANCH   1   6
BRANCH   1   9
ATOM      9  C   UNL     1      -3.811   1.536  -0.054  0.00  0.00    +0.000 C 
BRANCH   9  10
ATOM     10  O   UNL     1      -5.239   1.494  -0.047  0.00  0.00    +0.000 OA
BRANCH  10  11
ATOM     11  C   UNL     1      -5.895   2.692  -0.128  0.00  0.00    +0.000 A 
ATOM     12  C   UNL     1      -5.299   3.953  -0.177  0.00  0.00    +0.000 A 
ATOM     13  C   UNL     1      -6.092   5.102  -0.260  0.00  0.00    +0.000 A 
ATOM     14  C   UNL     1      -7.482   4.995  -0.294  0.00  0.00    +0.000 A 
ATOM     15  C   UNL     1      -8.081   3.739  -0.244  0.00  0.00    +0.000 A 
ATOM     16  C   UNL     1      -7.288   2.593  -0.161  0.00  0.00    +0.000 A 
ENDBRANCH  10  11
ENDBRANCH   9  10
ENDBRANCH   1   9
TORSDOF 4
