REMARK  Name = *****
REMARK  4 active torsions:
REMARK  status: ('A' for Active; 'I' for Inactive)
REMARK    1  A    between atoms: C_1  and  O_2
REMARK    2  A    between atoms: O_2  and  C_3
REMARK    3  A    between atoms: C_4  and  C_10
REMARK    4  A    between atoms: C_11  and  C_12
REMARK                            x       y       z     vdW  Elec       q    Type
REMARK                         _______ _______ _______ _____ _____    ______ ____
ROOT
ATOM      1  C   UNL     1       3.281   1.128   0.550  0.00  0.00    +0.000 A 
ATOM      2  C   UNL     1       2.682   1.934   1.539  0.00  0.00    +0.000 A 
ATOM      3  C   UNL     1       3.184   3.212   1.807  0.00  0.00    +0.000 A 
ATOM      4  C   UNL     1       4.276   3.682   1.091  0.00  0.00    +0.000 A 
ATOM      5  C   UNL     1       4.878   2.903   0.111  0.00  0.00    +0.000 A 
ATOM      6  C   UNL     1       4.382   1.625  -0.161  0.00  0.00    +0.000 A 
ATOM      7  F   UNL     1       4.756   4.906   1.347  0.00  0.00    +0.000 F 
ENDROOT
BRANCH   1   9
ATOM      8  C   UNL     1       3.307  -0.945  -0.640  0.00  0.00    +0.000 C 
ATOM      9  O   UNL     1       2.727  -0.111   0.354  0.00  0.00    +0.000 OA
ENDBRANCH   1   9
BRANCH   2  10
ATOM     10  C   UNL     1       1.552   1.474   2.293  0.00  0.00    +0.000 C 
ATOM     11  C   UNL     1       0.606   1.088   2.925  0.00  0.00    +0.000 C 
BRANCH  11  12
ATOM     12  C   UNL     1      -0.518   0.618   3.674  0.00  0.00    +0.000 A 
ATOM     13  C   UNL     1      -0.674  -0.749   3.915  0.00  0.00    +0.000 A 
ATOM     14  C   UNL     1      -1.771  -1.208   4.647  0.00  0.00    +0.000 A 
ATOM     15  C   UNL     1      -2.712  -0.302   5.136  0.00  0.00    +0.000 A 
ATOM     16  C   UNL     1      -2.558   1.063   4.895  0.00  0.00    +0.000 A 
ATOM     17  C   UNL     1      -1.461   1.524   4.164  0.00  0.00    +0.000 A 
ENDBRANCH  11  12
ENDBRANCH   2  10
TORSDOF 3
