REMARK  Name = *****
REMARK  5 active torsions:
REMARK  status: ('A' for Active; 'I' for Inactive)
REMARK    1  A    between atoms: C_1  and  C_2
REMARK    2  A    between atoms: C_4  and  C_19
REMARK    3  A    between atoms: C_5  and  C_9
REMARK    4  A    between atoms: C_6  and  C_8
REMARK    5  A    between atoms: C_9  and  N_10
REMARK                            x       y       z     vdW  Elec       q    Type
REMARK                         _______ _______ _______ _____ _____    ______ ____
ROOT
ATOM      1  C   UNL     1      -2.002  -1.944   0.309  0.00  0.00    +0.000 C 
ENDROOT
BRANCH   1   6
ATOM      2  C   UNL     1       2.118   2.166  -0.355  0.00  0.00    +0.000 C 
ATOM      3  C   UNL     1       1.065   1.106  -0.225  0.00  0.00    +0.000 A 
ATOM      4  C   UNL     1       1.420  -0.218   0.033  0.00  0.00    +0.000 A 
ATOM      5  C   UNL     1       0.447  -1.221   0.193  0.00  0.00    +0.000 A 
ATOM      6  C   UNL     1      -0.929  -0.885   0.119  0.00  0.00    +0.000 A 
ATOM      7  C   UNL     1      -1.289   0.466  -0.127  0.00  0.00    +0.000 A 
ATOM      8  C   UNL     1      -0.288   1.438  -0.293  0.00  0.00    +0.000 A 
ATOM      9  C   UNL     1      -2.726   0.914  -0.221  0.00  0.00    +0.000 C 
ATOM     10  C   UNL     1       0.929  -2.618   0.482  0.00  0.00    +0.000 C 
ENDBRANCH   1   6
BRANCH   1  11
ATOM     11  N   UNL     1      -2.241  -2.271   1.705  0.00  0.00    +0.000 N 
ATOM     12  C   UNL     1      -2.120  -3.493   2.322  0.00  0.00    +0.000 A 
ATOM     13  C   UNL     1      -1.686  -4.759   1.911  0.00  0.00    +0.000 A 
ATOM     14  C   UNL     1      -1.698  -5.776   2.874  0.00  0.00    +0.000 A 
ATOM     15  C   UNL     1      -2.128  -5.535   4.181  0.00  0.00    +0.000 A 
ATOM     16  C   UNL     1      -2.568  -4.263   4.567  0.00  0.00    +0.000 A 
ATOM     17  C   UNL     1      -2.563  -3.233   3.615  0.00  0.00    +0.000 A 
ATOM     18  N   UNL     1      -2.953  -1.927   3.718  0.00  0.00    +0.000 NA
ATOM     19  N   UNL     1      -2.780  -1.352   2.535  0.00  0.00    +0.000 NA
ENDBRANCH   1  11
TORSDOF 2
