REMARK  Name = *****
REMARK  1 active torsions:
REMARK  status: ('A' for Active; 'I' for Inactive)
REMARK    1  A    between atoms: C_11  and  C_12
REMARK                            x       y       z     vdW  Elec       q    Type
REMARK                         _______ _______ _______ _____ _____    ______ ____
ROOT
ATOM      1  C   UNL     1       2.134  -0.802  -0.505  0.00  0.00    +0.000 C 
ATOM      2  C   UNL     1       1.156  -1.662   0.306  0.00  0.00    +0.000 C 
ATOM      3  C   UNL     1      -0.231  -1.060   0.348  0.00  0.00    +0.000 A 
ATOM      4  C   UNL     1      -1.366  -1.880   0.343  0.00  0.00    +0.000 A 
ATOM      5  C   UNL     1      -2.639  -1.312   0.381  0.00  0.00    +0.000 A 
ATOM      6  C   UNL     1      -2.782   0.072   0.434  0.00  0.00    +0.000 A 
ATOM      7  C   UNL     1      -1.652   0.892   0.457  0.00  0.00    +0.000 A 
ATOM      8  C   UNL     1      -0.361   0.346   0.419  0.00  0.00    +0.000 A 
ATOM      9  C   UNL     1       0.867   1.220   0.473  0.00  0.00    +0.000 C 
ATOM     10  C   UNL     1       2.158   0.617  -0.013  0.00  0.00    +0.000 C 
ATOM     11  C   UNL     1       1.567   1.822  -0.730  0.00  0.00    +0.000 C 
ENDROOT
BRANCH  11  12
ATOM     12  C   UNL     1       0.985   1.785  -2.141  0.00  0.00    +0.000 A 
ATOM     13  C   UNL     1       0.182   0.829  -2.718  0.00  0.00    +0.000 A 
ATOM     14  S   UNL     1      -0.241   1.218  -4.333  0.00  0.00    +0.000 S 
ATOM     15  C   UNL     1       0.643   2.679  -4.269  0.00  0.00    +0.000 A 
ATOM     16  C   UNL     1       1.245   2.863  -3.044  0.00  0.00    +0.000 A 
ENDBRANCH  11  12
TORSDOF 1
