REMARK  Name = *****
REMARK  4 active torsions:
REMARK  status: ('A' for Active; 'I' for Inactive)
REMARK    1  A    between atoms: C_2  and  C_3
REMARK    2  A    between atoms: C_2  and  O_10
REMARK    3  A    between atoms: C_3  and  C_4
REMARK    4  A    between atoms: O_10  and  C_11
REMARK                            x       y       z     vdW  Elec       q    Type
REMARK                         _______ _______ _______ _____ _____    ______ ____
ROOT
ATOM      1  C   UNL     1       1.152   0.432   0.282  0.00  0.00    +0.000 C 
ATOM      2  C   UNL     1       2.383   0.081  -0.113  0.00  0.00    +0.000 C 
ENDROOT
BRANCH   2   3
ATOM      3  C   UNL     1       2.783  -1.366  -0.326  0.00  0.00    +0.000 C 
BRANCH   3   4
ATOM      4  C   UNL     1       4.062  -1.787   0.367  0.00  0.00    +0.000 A 
ATOM      5  C   UNL     1       4.234  -1.593   1.745  0.00  0.00    +0.000 A 
ATOM      6  C   UNL     1       5.408  -2.002   2.380  0.00  0.00    +0.000 A 
ATOM      7  C   UNL     1       6.420  -2.619   1.646  0.00  0.00    +0.000 A 
ATOM      8  C   UNL     1       6.257  -2.829   0.279  0.00  0.00    +0.000 A 
ATOM      9  C   UNL     1       5.083  -2.420  -0.357  0.00  0.00    +0.000 A 
ENDBRANCH   3   4
ENDBRANCH   2   3
BRANCH   2  10
ATOM     10  O   UNL     1       3.347   1.072  -0.204  0.00  0.00    +0.000 OA
BRANCH  10  11
ATOM     11  C   UNL     1       4.067   1.143  -1.442  0.00  0.00    +0.000 C 
ATOM     12  C   UNL     1       5.499   1.588  -1.108  0.00  0.00    +0.000 C 
ATOM     13  C   UNL     1       6.239   2.063  -2.354  0.00  0.00    +0.000 C 
ATOM     14  C   UNL     1       5.516   3.241  -3.013  0.00  0.00    +0.000 C 
ATOM     15  C   UNL     1       4.026   3.068  -3.057  0.00  0.00    +0.000 C 
ATOM     16  C   UNL     1       3.377   2.121  -2.360  0.00  0.00    +0.000 C 
ENDBRANCH  10  11
ENDBRANCH   2  10
TORSDOF 4
