REMARK  Name = *****
REMARK  4 active torsions:
REMARK  status: ('A' for Active; 'I' for Inactive)
REMARK    1  A    between atoms: C_1  and  C_2
REMARK    2  A    between atoms: C_4  and  C_8
REMARK    3  A    between atoms: C_8  and  O_9
REMARK    4  A    between atoms: O_9  and  C_10
REMARK                            x       y       z     vdW  Elec       q    Type
REMARK                         _______ _______ _______ _____ _____    ______ ____
ROOT
ATOM      1  C   UNL     1      -1.856   2.523   0.110  0.00  0.00    +0.000 C 
ENDROOT
BRANCH   1   5
ATOM      2  C   UNL     1       2.199  -0.261   1.263  0.00  0.00    +0.000 C 
ATOM      3  C   UNL     1       0.890  -0.110   0.546  0.00  0.00    +0.000 A 
ATOM      4  C   UNL     1       0.167   1.087   0.634  0.00  0.00    +0.000 A 
ATOM      5  C   UNL     1      -1.070   1.236  -0.012  0.00  0.00    +0.000 A 
ATOM      6  C   UNL     1      -1.594   0.150  -0.727  0.00  0.00    +0.000 A 
ATOM      7  C   UNL     1      -0.889  -1.051  -0.805  0.00  0.00    +0.000 A 
ATOM      8  C   UNL     1       0.345  -1.182  -0.168  0.00  0.00    +0.000 A 
ENDBRANCH   1   5
BRANCH   1   9
ATOM      9  O   UNL     1      -0.986   3.628  -0.139  0.00  0.00    +0.000 OA
BRANCH   9  10
ATOM     10  C   UNL     1      -1.520   4.883  -0.030  0.00  0.00    +0.000 A 
ATOM     11  C   UNL     1      -0.603   5.915  -0.257  0.00  0.00    +0.000 A 
ATOM     12  C   UNL     1      -0.999   7.253  -0.181  0.00  0.00    +0.000 A 
ATOM     13  C   UNL     1      -2.321   7.573   0.122  0.00  0.00    +0.000 A 
ATOM     14  C   UNL     1      -3.243   6.553   0.348  0.00  0.00    +0.000 A 
ATOM     15  C   UNL     1      -2.842   5.219   0.271  0.00  0.00    +0.000 A 
ATOM     16  F   UNL     1      -3.772   4.279   0.496  0.00  0.00    +0.000 F 
ENDBRANCH   9  10
ENDBRANCH   1   9
TORSDOF 3
