REMARK  Name = *****
REMARK  3 active torsions:
REMARK  status: ('A' for Active; 'I' for Inactive)
REMARK    1  A    between atoms: C_1  and  C_2
REMARK    2  A    between atoms: C_5  and  C_8
REMARK    3  A    between atoms: C_9  and  C_11
REMARK                            x       y       z     vdW  Elec       q    Type
REMARK                         _______ _______ _______ _____ _____    ______ ____
ROOT
ATOM      1  C   UNL     1      -3.723   0.066  -0.859  0.00  0.00    +0.000 C 
ATOM      2  C   UNL     1      -4.696   1.209  -0.612  0.00  0.00    +0.000 C 
ATOM      3  O   UNL     1      -4.221   0.886  -1.928  0.00  0.00    +0.000 OA
ENDROOT
BRANCH   1   8
ATOM      4  C   UNL     1       1.885   0.619   0.688  0.00  0.00    +0.000 C 
ATOM      5  C   UNL     1       0.443   0.508   0.292  0.00  0.00    +0.000 A 
ATOM      6  C   UNL     1      -0.550   0.341   1.261  0.00  0.00    +0.000 A 
ATOM      7  C   UNL     1      -1.890   0.205   0.885  0.00  0.00    +0.000 A 
ATOM      8  C   UNL     1      -2.279   0.224  -0.464  0.00  0.00    +0.000 A 
ATOM      9  C   UNL     1      -1.266   0.371  -1.424  0.00  0.00    +0.000 A 
ATOM     10  C   UNL     1       0.076   0.508  -1.056  0.00  0.00    +0.000 A 
ENDBRANCH   1   8
BRANCH   2  11
ATOM     11  C   UNL     1      -6.137   0.905  -0.291  0.00  0.00    +0.000 A 
ATOM     12  C   UNL     1      -6.504   0.362   0.952  0.00  0.00    +0.000 A 
ATOM     13  C   UNL     1      -7.840   0.086   1.260  0.00  0.00    +0.000 A 
ATOM     14  C   UNL     1      -8.834   0.356   0.324  0.00  0.00    +0.000 A 
ATOM     15  C   UNL     1      -8.502   0.899  -0.913  0.00  0.00    +0.000 A 
ATOM     16  C   UNL     1      -7.164   1.171  -1.213  0.00  0.00    +0.000 A 
ATOM     17 CL   UNL     1     -10.478   0.019   0.700  0.00  0.00    +0.000 Cl
ENDBRANCH   2  11
TORSDOF 2
