REMARK  Name = *****
REMARK  2 active torsions:
REMARK  status: ('A' for Active; 'I' for Inactive)
REMARK    1  A    between atoms: C_6  and  C_7
REMARK    2  A    between atoms: C_7  and  C_8
REMARK                            x       y       z     vdW  Elec       q    Type
REMARK                         _______ _______ _______ _____ _____    ______ ____
ROOT
ATOM      1  C   UNL     1      -1.554   0.808   0.205  0.00  0.00    +0.000 C 
ATOM      2  C   UNL     1      -0.359   1.594  -0.336  0.00  0.00    +0.000 C 
ATOM      3  C   UNL     1       0.933   1.318   0.431  0.00  0.00    +0.000 C 
ATOM      4  C   UNL     1       1.731   0.109  -0.068  0.00  0.00    +0.000 C 
ATOM      5  C   UNL     1       0.927  -1.121  -0.416  0.00  0.00    +0.000 C 
ATOM      6  C   UNL     1       1.217  -1.927  -1.460  0.00  0.00    +0.000 C 
ATOM      7  C   UNL     1      -0.276  -1.419   0.448  0.00  0.00    +0.000 C 
ATOM      8  C   UNL     1      -1.527  -0.697  -0.056  0.00  0.00    +0.000 C 
ENDROOT
BRANCH   6   9
ATOM      9  C   UNL     1       2.362  -1.794  -2.428  0.00  0.00    +0.000 C 
BRANCH   9  10
ATOM     10  C   UNL     1       2.086  -0.905  -3.623  0.00  0.00    +0.000 A 
ATOM     11  C   UNL     1       3.135  -0.159  -4.181  0.00  0.00    +0.000 A 
ATOM     12  C   UNL     1       2.922   0.647  -5.302  0.00  0.00    +0.000 A 
ATOM     13  C   UNL     1       1.659   0.710  -5.886  0.00  0.00    +0.000 A 
ATOM     14  C   UNL     1       0.611  -0.037  -5.354  0.00  0.00    +0.000 A 
ATOM     15  C   UNL     1       0.825  -0.846  -4.235  0.00  0.00    +0.000 A 
ENDBRANCH   9  10
ENDBRANCH   6   9
TORSDOF 2
