REMARK  Name = *****
REMARK  4 active torsions:
REMARK  status: ('A' for Active; 'I' for Inactive)
REMARK    1  A    between atoms: C_2  and  C_3
REMARK    2  A    between atoms: C_4  and  C_5
REMARK    3  A    between atoms: C_6  and  C_10
REMARK    4  A    between atoms: C_11  and  C_12
REMARK                            x       y       z     vdW  Elec       q    Type
REMARK                         _______ _______ _______ _____ _____    ______ ____
ROOT
ATOM      1  C   UNL     1       3.955  -2.826  -0.264  0.00  0.00    +0.000 C 
ATOM      2  C   UNL     1       2.666  -2.930  -0.640  0.00  0.00    +0.000 C 
ATOM      3  C   UNL     1       1.948  -4.018   0.098  0.00  0.00    +0.000 C 
ATOM      4  C   UNL     1       3.091  -4.822   0.702  0.00  0.00    +0.000 C 
ATOM      5  C   UNL     1       4.277  -3.863   0.776  0.00  0.00    +0.000 C 
ENDROOT
BRANCH   1   7
ATOM      6  C   UNL     1       6.165  -1.592  -0.384  0.00  0.00    +0.000 C 
ATOM      7  C   UNL     1       4.911  -1.865  -0.773  0.00  0.00    +0.000 C 
BRANCH   6   9
ATOM      8  C   UNL     1       7.494  -2.697   1.586  0.00  0.00    +0.000 C 
ATOM      9  C   UNL     1       6.870  -2.204   0.686  0.00  0.00    +0.000 C 
ENDBRANCH   6   9
ENDBRANCH   1   7
BRANCH   2  10
ATOM     10  C   UNL     1       2.012  -2.115  -1.601  0.00  0.00    +0.000 C 
ATOM     11  C   UNL     1       1.453  -1.431  -2.415  0.00  0.00    +0.000 C 
BRANCH  11  12
ATOM     12  C   UNL     1       0.792  -0.616  -3.386  0.00  0.00    +0.000 A 
ATOM     13  C   UNL     1       1.517  -0.063  -4.445  0.00  0.00    +0.000 A 
ATOM     14  C   UNL     1       0.872   0.733  -5.393  0.00  0.00    +0.000 A 
ATOM     15  C   UNL     1      -0.498   0.976  -5.285  0.00  0.00    +0.000 A 
ATOM     16  C   UNL     1      -1.223   0.425  -4.228  0.00  0.00    +0.000 A 
ATOM     17  C   UNL     1      -0.579  -0.371  -3.279  0.00  0.00    +0.000 A 
ENDBRANCH  11  12
ENDBRANCH   2  10
TORSDOF 4
