REMARK  Name = *****
REMARK  5 active torsions:
REMARK  status: ('A' for Active; 'I' for Inactive)
REMARK    1  A    between atoms: C_1  and  C_2
REMARK    2  A    between atoms: C_5  and  C_8
REMARK    3  A    between atoms: C_8  and  C_9
REMARK    4  A    between atoms: C_8  and  S_10
REMARK    5  A    between atoms: S_10  and  C_11
REMARK                            x       y       z     vdW  Elec       q    Type
REMARK                         _______ _______ _______ _____ _____    ______ ____
ROOT
ATOM      1  C   UNL     1      -3.190   0.161  -0.074  0.00  0.00    +0.000 C 
ATOM      2  C   UNL     1      -3.751  -0.621   1.116  0.00  0.00    +0.000 C 
ENDROOT
BRANCH   1   7
ATOM      3  C   UNL     1       2.632   0.670   0.054  0.00  0.00    +0.000 C 
ATOM      4  C   UNL     1       1.140   0.512   0.042  0.00  0.00    +0.000 A 
ATOM      5  C   UNL     1       0.493  -0.021  -1.076  0.00  0.00    +0.000 A 
ATOM      6  C   UNL     1      -0.900  -0.136  -1.102  0.00  0.00    +0.000 A 
ATOM      7  C   UNL     1      -1.677   0.288  -0.013  0.00  0.00    +0.000 A 
ATOM      8  C   UNL     1      -1.021   0.840   1.098  0.00  0.00    +0.000 A 
ATOM      9  C   UNL     1       0.371   0.955   1.123  0.00  0.00    +0.000 A 
ENDBRANCH   1   7
BRANCH   1  10
ATOM     10  S   UNL     1      -4.019   1.802  -0.151  0.00  0.00    +0.000 S 
BRANCH  10  11
ATOM     11  C   UNL     1      -3.592   2.271  -1.817  0.00  0.00    +0.000 A 
ATOM     12  C   UNL     1      -4.382   1.852  -2.891  0.00  0.00    +0.000 A 
ATOM     13  C   UNL     1      -4.045   2.220  -4.196  0.00  0.00    +0.000 A 
ATOM     14  C   UNL     1      -2.921   3.010  -4.430  0.00  0.00    +0.000 A 
ATOM     15  C   UNL     1      -2.135   3.438  -3.360  0.00  0.00    +0.000 A 
ATOM     16  C   UNL     1      -2.472   3.072  -2.056  0.00  0.00    +0.000 A 
ENDBRANCH  10  11
ENDBRANCH   1  10
TORSDOF 3
