REMARK  Name = *****
REMARK  3 active torsions:
REMARK  status: ('A' for Active; 'I' for Inactive)
REMARK    1  A    between atoms: C_4  and  S_16
REMARK    2  A    between atoms: C_5  and  N_7
REMARK    3  A    between atoms: C_8  and  C_9
REMARK                            x       y       z     vdW  Elec       q    Type
REMARK                         _______ _______ _______ _____ _____    ______ ____
ROOT
ATOM      1  N   UNL     1       0.329  -2.435   0.074  0.00  0.00    +0.000 NA
ATOM      2  C   UNL     1       1.573  -2.506   0.432  0.00  0.00    +0.000 C 
ENDROOT
BRANCH   2   3
ATOM      3  C   UNL     1       2.318  -3.779   0.408  0.00  0.00    +0.000 A 
ATOM      4  C   UNL     1       1.699  -4.963  -0.005  0.00  0.00    +0.000 A 
ATOM      5  C   UNL     1       2.424  -6.157  -0.022  0.00  0.00    +0.000 A 
ATOM      6  C   UNL     1       3.762  -6.160   0.373  0.00  0.00    +0.000 A 
ATOM      7  C   UNL     1       4.382  -4.980   0.785  0.00  0.00    +0.000 A 
ATOM      8  C   UNL     1       3.659  -3.784   0.803  0.00  0.00    +0.000 A 
ATOM      9 CL   UNL     1       4.655  -7.630   0.353  0.00  0.00    +0.000 Cl
ENDBRANCH   2   3
BRANCH   1  14
ATOM     10  C   UNL     1      -1.392   0.541   1.464  0.00  0.00    +0.000 A 
ATOM     11  C   UNL     1      -1.452   1.377   0.351  0.00  0.00    +0.000 A 
ATOM     12  C   UNL     1      -0.929   0.951  -0.871  0.00  0.00    +0.000 A 
ATOM     13  C   UNL     1      -0.338  -0.314  -0.985  0.00  0.00    +0.000 A 
ATOM     14  C   UNL     1      -0.255  -1.153   0.143  0.00  0.00    +0.000 A 
ATOM     15  C   UNL     1      -0.800  -0.719   1.358  0.00  0.00    +0.000 A 
BRANCH  13  16
ATOM     16  S   UNL     1       0.302  -0.819  -2.577  0.00  0.00    +0.000 S 
ATOM     17  H   UNL     1       0.094   0.172  -3.485  0.00  0.00    +0.000 HD
ENDBRANCH  13  16
ENDBRANCH   1  14
TORSDOF 3
