REMARK  Name = *****
REMARK  5 active torsions:
REMARK  status: ('A' for Active; 'I' for Inactive)
REMARK    1  A    between atoms: C_4  and  C_7
REMARK    2  A    between atoms: C_7  and  O_8
REMARK    3  A    between atoms: O_8  and  C_9
REMARK    4  A    between atoms: C_9  and  C_11
REMARK    5  A    between atoms: C_14  and  C_17
REMARK                            x       y       z     vdW  Elec       q    Type
REMARK                         _______ _______ _______ _____ _____    ______ ____
ROOT
ATOM      1  C   UNL     1      -4.809  -0.667  -0.408  0.00  0.00    +0.000 C 
ATOM      2  O   UNL     1      -5.365   0.419  -0.366  0.00  0.00    +0.000 OA
ENDROOT
BRANCH   1   3
ATOM      3  C   UNL     1      -5.542  -1.963  -0.400  0.00  0.00    +0.000 A 
ATOM      4  C   UNL     1      -4.890  -3.198  -0.513  0.00  0.00    +0.000 A 
ATOM      5  C   UNL     1      -5.627  -4.387  -0.506  0.00  0.00    +0.000 A 
ATOM      6  C   UNL     1      -7.024  -4.361  -0.391  0.00  0.00    +0.000 A 
ATOM      7  C   UNL     1      -7.671  -3.124  -0.265  0.00  0.00    +0.000 A 
ATOM      8  C   UNL     1      -6.937  -1.934  -0.274  0.00  0.00    +0.000 A 
BRANCH   6   9
ATOM      9  C   UNL     1      -7.812  -5.642  -0.369  0.00  0.00    +0.000 C 
ATOM     10 CL   UNL     1      -7.908  -6.284   1.282  0.00  0.00    +0.000 Cl
ENDBRANCH   6   9
ENDBRANCH   1   3
BRANCH   1  11
ATOM     11  O   UNL     1      -3.473  -0.882  -0.477  0.00  0.00    +0.000 OA
BRANCH  11  12
ATOM     12  C   UNL     1      -2.656   0.294  -0.445  0.00  0.00    +0.000 C 
BRANCH  12  16
ATOM     13  C   UNL     1      -1.434   1.112   3.607  0.00  0.00    +0.000 A 
ATOM     14  C   UNL     1      -0.995  -0.045   2.967  0.00  0.00    +0.000 A 
ATOM     15  C   UNL     1      -1.389  -0.310   1.655  0.00  0.00    +0.000 A 
ATOM     16  C   UNL     1      -2.226   0.582   0.970  0.00  0.00    +0.000 A 
ATOM     17  C   UNL     1      -2.670   1.738   1.627  0.00  0.00    +0.000 A 
ATOM     18  C   UNL     1      -2.272   2.002   2.939  0.00  0.00    +0.000 A 
ENDBRANCH  12  16
ENDBRANCH  11  12
ENDBRANCH   1  11
TORSDOF 5
