REMARK  Name = *****
REMARK  3 active torsions:
REMARK  status: ('A' for Active; 'I' for Inactive)
REMARK    1  A    between atoms: C_6  and  C_7
REMARK    2  A    between atoms: C_7  and  S_8
REMARK    3  A    between atoms: S_8  and  C_10
REMARK                            x       y       z     vdW  Elec       q    Type
REMARK                         _______ _______ _______ _____ _____    ______ ____
ROOT
ATOM      1  S   UNL     1       4.051   1.974  -0.166  0.00  0.00    +0.000 S 
ATOM      2  O   UNL     1       5.095   0.910  -0.356  0.00  0.00    +0.000 OA
ENDROOT
BRANCH   1   3
ATOM      3  C   UNL     1       4.747   3.469  -0.910  0.00  0.00    +0.000 A 
ATOM      4  C   UNL     1       6.106   3.545  -1.236  0.00  0.00    +0.000 A 
ATOM      5  C   UNL     1       6.628   4.708  -1.809  0.00  0.00    +0.000 A 
ATOM      6  C   UNL     1       5.790   5.791  -2.062  0.00  0.00    +0.000 A 
ATOM      7  C   UNL     1       4.433   5.721  -1.750  0.00  0.00    +0.000 A 
ATOM      8  C   UNL     1       3.910   4.559  -1.176  0.00  0.00    +0.000 A 
ATOM      9 CL   UNL     1       6.431   7.223  -2.766  0.00  0.00    +0.000 Cl
ENDBRANCH   1   3
BRANCH   1  10
ATOM     10  C   UNL     1       4.148   2.534   1.571  0.00  0.00    +0.000 C 
BRANCH  10  16
ATOM     11  C   UNL     1       2.224   1.892   3.083  0.00  0.00    +0.000 A 
ATOM     12  C   UNL     1       1.593   0.997   3.952  0.00  0.00    +0.000 A 
ATOM     13  C   UNL     1       2.198  -0.222   4.252  0.00  0.00    +0.000 A 
ATOM     14  C   UNL     1       3.427  -0.555   3.690  0.00  0.00    +0.000 A 
ATOM     15  C   UNL     1       4.059   0.340   2.824  0.00  0.00    +0.000 A 
ATOM     16  C   UNL     1       3.465   1.573   2.512  0.00  0.00    +0.000 A 
ATOM     17 CL   UNL     1       1.418  -1.321   5.321  0.00  0.00    +0.000 Cl
ENDBRANCH  10  16
ENDBRANCH   1  10
TORSDOF 3
