REMARK  Name = *****
REMARK  4 active torsions:
REMARK  status: ('A' for Active; 'I' for Inactive)
REMARK    1  A    between atoms: C_1  and  C_2
REMARK    2  A    between atoms: C_2  and  N_3
REMARK    3  A    between atoms: C_9  and  C_10
REMARK    4  A    between atoms: C_11  and  C_12
REMARK                            x       y       z     vdW  Elec       q    Type
REMARK                         _______ _______ _______ _____ _____    ______ ____
ROOT
ATOM      1  N   UNL     1       2.848  -0.472   1.185  0.00  0.00    +0.000 NA
ATOM      2  C   UNL     1       4.102  -0.772   1.266  0.00  0.00    +0.000 C 
ATOM      3  C   UNL     1       5.144  -0.446   0.241  0.00  0.00    +0.000 C 
ATOM      4  C   UNL     1       6.440  -0.616   0.526  0.00  0.00    +0.000 C 
ATOM      5  C   UNL     1       6.908  -1.091   1.801  0.00  0.00    +0.000 C 
ATOM      6  C   UNL     1       6.052  -1.526   2.734  0.00  0.00    +0.000 C 
ATOM      7  C   UNL     1       4.560  -1.545   2.535  0.00  0.00    +0.000 C 
ENDROOT
BRANCH   1   9
ATOM      8  C   UNL     1       0.857   0.502   0.234  0.00  0.00    +0.000 C 
ATOM      9  C   UNL     1       2.341   0.251   0.026  0.00  0.00    +0.000 C 
ENDBRANCH   1   9
BRANCH   7  10
ATOM     10  C   UNL     1       4.065  -2.969   2.443  0.00  0.00    +0.000 C 
ATOM     11  C   UNL     1       3.146  -3.496   3.270  0.00  0.00    +0.000 C 
BRANCH  11  12
ATOM     12  C   UNL     1       2.647  -4.874   3.176  0.00  0.00    +0.000 A 
ATOM     13  C   UNL     1       3.485  -5.954   2.872  0.00  0.00    +0.000 A 
ATOM     14  C   UNL     1       2.978  -7.255   2.824  0.00  0.00    +0.000 A 
ATOM     15  C   UNL     1       1.631  -7.491   3.090  0.00  0.00    +0.000 A 
ATOM     16  C   UNL     1       0.791  -6.426   3.408  0.00  0.00    +0.000 A 
ATOM     17  C   UNL     1       1.298  -5.125   3.457  0.00  0.00    +0.000 A 
ENDBRANCH  11  12
ENDBRANCH   7  10
TORSDOF 3
