REMARK  Name = *****
REMARK  2 active torsions:
REMARK  status: ('A' for Active; 'I' for Inactive)
REMARK    1  A    between atoms: C_5  and  C_7
REMARK    2  A    between atoms: C_7  and  N_8
REMARK                            x       y       z     vdW  Elec       q    Type
REMARK                         _______ _______ _______ _____ _____    ______ ____
ROOT
ATOM      1  N   UNL     1      -2.486  -3.284  -0.578  0.00  0.00    +0.000 N 
ATOM      2  C   UNL     1      -3.807  -2.917  -0.524  0.00  0.00    +0.000 A 
ATOM      3  C   UNL     1      -4.348  -3.837   0.369  0.00  0.00    +0.000 A 
ATOM      4  C   UNL     1      -5.712  -3.773   0.691  0.00  0.00    +0.000 A 
ATOM      5  C   UNL     1      -6.495  -2.776   0.094  0.00  0.00    +0.000 A 
ATOM      6  C   UNL     1      -5.927  -1.868  -0.801  0.00  0.00    +0.000 A 
ATOM      7  C   UNL     1      -4.568  -1.913  -1.134  0.00  0.00    +0.000 A 
ATOM      8 CL   UNL     1      -6.923  -0.658  -1.519  0.00  0.00    +0.000 Cl
ATOM      9  N   UNL     1      -3.374  -4.698   0.792  0.00  0.00    +0.000 NA
ATOM     10  N   UNL     1      -2.238  -4.362   0.196  0.00  0.00    +0.000 NA
ENDROOT
BRANCH   1  11
ATOM     11  C   UNL     1      -1.414  -2.703  -1.371  0.00  0.00    +0.000 C 
BRANCH  11  16
ATOM     12  C   UNL     1       0.493  -0.646   1.209  0.00  0.00    +0.000 A 
ATOM     13  C   UNL     1       0.438   0.636   0.674  0.00  0.00    +0.000 A 
ATOM     14  C   UNL     1      -0.218   0.852  -0.537  0.00  0.00    +0.000 A 
ATOM     15  C   UNL     1      -0.823  -0.213  -1.215  0.00  0.00    +0.000 A 
ATOM     16  C   UNL     1      -0.786  -1.512  -0.684  0.00  0.00    +0.000 A 
ATOM     17  C   UNL     1      -0.109  -1.710   0.536  0.00  0.00    +0.000 A 
ATOM     18 CL   UNL     1      -1.589   0.149  -2.720  0.00  0.00    +0.000 Cl
ENDBRANCH  11  16
ENDBRANCH   1  11
TORSDOF 2
