REMARK  Name = *****
REMARK  4 active torsions:
REMARK  status: ('A' for Active; 'I' for Inactive)
REMARK    1  A    between atoms: C_1  and  C_2
REMARK    2  A    between atoms: C_7  and  C_8
REMARK    3  A    between atoms: C_9  and  S_10
REMARK    4  A    between atoms: S_10  and  C_11
REMARK                            x       y       z     vdW  Elec       q    Type
REMARK                         _______ _______ _______ _____ _____    ______ ____
ROOT
ATOM      1  C   UNL     1       1.316  -1.626   0.464  0.00  0.00    +0.000 C 
ATOM      2  C   UNL     1       2.652  -1.510   0.407  0.00  0.00    +0.000 C 
ENDROOT
BRANCH   1   9
ATOM      3  C   UNL     1      -0.112  -1.963  -2.115  0.00  0.00    +0.000 C 
ATOM      4  C   UNL     1      -0.366  -0.792  -1.205  0.00  0.00    +0.000 A 
ATOM      5  C   UNL     1      -1.306   0.181  -1.582  0.00  0.00    +0.000 A 
ATOM      6  C   UNL     1      -1.555   1.286  -0.767  0.00  0.00    +0.000 A 
ATOM      7  C   UNL     1      -0.869   1.435   0.434  0.00  0.00    +0.000 A 
ATOM      8  C   UNL     1       0.069   0.478   0.821  0.00  0.00    +0.000 A 
ATOM      9  C   UNL     1       0.329  -0.637   0.010  0.00  0.00    +0.000 A 
ENDBRANCH   1   9
BRANCH   2  10
ATOM     10  S   UNL     1       3.494  -0.142  -0.245  0.00  0.00    +0.000 S 
BRANCH  10  11
ATOM     11  C   UNL     1       5.170  -0.661   0.070  0.00  0.00    +0.000 A 
ATOM     12  C   UNL     1       5.890  -1.347  -0.913  0.00  0.00    +0.000 A 
ATOM     13  C   UNL     1       7.204  -1.751  -0.668  0.00  0.00    +0.000 A 
ATOM     14  C   UNL     1       7.804  -1.467   0.558  0.00  0.00    +0.000 A 
ATOM     15  C   UNL     1       7.094  -0.777   1.539  0.00  0.00    +0.000 A 
ATOM     16  C   UNL     1       5.780  -0.372   1.295  0.00  0.00    +0.000 A 
ENDBRANCH  10  11
ENDBRANCH   2  10
TORSDOF 3
