REMARK  Name = *****
REMARK  3 active torsions:
REMARK  status: ('A' for Active; 'I' for Inactive)
REMARK    1  A    between atoms: C_4  and  C_7
REMARK    2  A    between atoms: C_8  and  O_9
REMARK    3  A    between atoms: O_9  and  C_10
REMARK                            x       y       z     vdW  Elec       q    Type
REMARK                         _______ _______ _______ _____ _____    ______ ____
ROOT
ATOM      1  C   UNL     1      -2.691   0.190  -0.261  0.00  0.00    +0.000 C 
ATOM      2  C   UNL     1      -3.511  -0.865  -0.369  0.00  0.00    +0.000 C 
ENDROOT
BRANCH   1   6
ATOM      3  C   UNL     1       1.567   0.206   0.165  0.00  0.00    +0.000 A 
ATOM      4  C   UNL     1       0.966  -0.730  -0.673  0.00  0.00    +0.000 A 
ATOM      5  C   UNL     1      -0.424  -0.753  -0.815  0.00  0.00    +0.000 A 
ATOM      6  C   UNL     1      -1.229   0.151  -0.111  0.00  0.00    +0.000 A 
ATOM      7  C   UNL     1      -0.611   1.099   0.716  0.00  0.00    +0.000 A 
ATOM      8  C   UNL     1       0.779   1.123   0.858  0.00  0.00    +0.000 A 
ENDBRANCH   1   6
BRANCH   2   9
ATOM      9  O   UNL     1      -3.097  -2.175  -0.322  0.00  0.00    +0.000 OA
BRANCH   9  10
ATOM     10  C   UNL     1      -4.030  -3.134  -0.629  0.00  0.00    +0.000 A 
ATOM     11  C   UNL     1      -4.675  -3.163  -1.867  0.00  0.00    +0.000 A 
ATOM     12  C   UNL     1      -5.587  -4.182  -2.147  0.00  0.00    +0.000 A 
ATOM     13  C   UNL     1      -5.838  -5.173  -1.197  0.00  0.00    +0.000 A 
ATOM     14  C   UNL     1      -5.174  -5.153   0.030  0.00  0.00    +0.000 A 
ATOM     15  C   UNL     1      -4.262  -4.136   0.312  0.00  0.00    +0.000 A 
ENDBRANCH   9  10
ENDBRANCH   2   9
TORSDOF 3
