REMARK  Name = *****
REMARK  3 active torsions:
REMARK  status: ('A' for Active; 'I' for Inactive)
REMARK    1  A    between atoms: C_4  and  C_7
REMARK    2  A    between atoms: C_7  and  S_9
REMARK    3  A    between atoms: S_9  and  C_10
REMARK                            x       y       z     vdW  Elec       q    Type
REMARK                         _______ _______ _______ _____ _____    ______ ____
ROOT
ATOM      1  C   UNL     1      -3.052   0.517  -0.440  0.00  0.00    +0.000 C 
ATOM      2  O   UNL     1      -3.411   1.680  -0.290  0.00  0.00    +0.000 OA
ENDROOT
BRANCH   1   6
ATOM      3  C   UNL     1       1.072  -0.483   0.273  0.00  0.00    +0.000 A 
ATOM      4  C   UNL     1       0.182  -1.497  -0.074  0.00  0.00    +0.000 A 
ATOM      5  C   UNL     1      -1.164  -1.203  -0.313  0.00  0.00    +0.000 A 
ATOM      6  C   UNL     1      -1.632   0.115  -0.206  0.00  0.00    +0.000 A 
ATOM      7  C   UNL     1      -0.723   1.127   0.146  0.00  0.00    +0.000 A 
ATOM      8  C   UNL     1       0.621   0.830   0.383  0.00  0.00    +0.000 A 
ENDBRANCH   1   6
BRANCH   1   9
ATOM      9  S   UNL     1      -4.207  -0.706  -0.963  0.00  0.00    +0.000 S 
BRANCH   9  10
ATOM     10  C   UNL     1      -5.071  -1.009   0.567  0.00  0.00    +0.000 A 
ATOM     11  C   UNL     1      -5.098  -2.305   1.091  0.00  0.00    +0.000 A 
ATOM     12  C   UNL     1      -5.781  -2.561   2.280  0.00  0.00    +0.000 A 
ATOM     13  C   UNL     1      -6.445  -1.537   2.952  0.00  0.00    +0.000 A 
ATOM     14  C   UNL     1      -6.431  -0.245   2.428  0.00  0.00    +0.000 A 
ATOM     15  C   UNL     1      -5.750   0.016   1.237  0.00  0.00    +0.000 A 
ATOM     16 CL   UNL     1      -5.803  -4.157   2.923  0.00  0.00    +0.000 Cl
ENDBRANCH   9  10
ENDBRANCH   1   9
TORSDOF 3
