REMARK  Name = *****
REMARK  5 active torsions:
REMARK  status: ('A' for Active; 'I' for Inactive)
REMARK    1  A    between atoms: C_1  and  C_2
REMARK    2  A    between atoms: C_7  and  N_8
REMARK    3  A    between atoms: N_8  and  C_9
REMARK    4  A    between atoms: C_10  and  C_12
REMARK    5  A    between atoms: C_12  and  C_13
REMARK                            x       y       z     vdW  Elec       q    Type
REMARK                         _______ _______ _______ _____ _____    ______ ____
ROOT
ATOM      1  N   UNL     1       1.005  -2.196   0.441  0.00  0.00    +0.000 N 
ATOM      2  C   UNL     1       0.096  -3.181   1.026  0.00  0.00    +0.000 C 
ATOM      3  C   UNL     1       2.393  -2.420   0.301  0.00  0.00    +0.000 C 
ATOM      4  O   UNL     1       3.166  -1.549  -0.113  0.00  0.00    +0.000 OA
ENDROOT
BRANCH   1  11
ATOM      5  C   UNL     1      -1.464  -1.892  -1.264  0.00  0.00    +0.000 C 
ATOM      6  C   UNL     1      -0.751  -0.751  -0.590  0.00  0.00    +0.000 A 
ATOM      7  C   UNL     1      -1.296   0.538  -0.753  0.00  0.00    +0.000 A 
ATOM      8  C   UNL     1      -0.655   1.661  -0.234  0.00  0.00    +0.000 A 
ATOM      9  C   UNL     1       0.541   1.515   0.455  0.00  0.00    +0.000 A 
ATOM     10  C   UNL     1       1.084   0.243   0.644  0.00  0.00    +0.000 A 
ATOM     11  C   UNL     1       0.445  -0.906   0.147  0.00  0.00    +0.000 A 
ENDBRANCH   1  11
BRANCH   3  12
ATOM     12  C   UNL     1       2.918  -3.825   0.664  0.00  0.00    +0.000 C 
ATOM     13 CL   UNL     1       3.450  -3.786   2.377  0.00  0.00    +0.000 Cl
BRANCH  12  14
ATOM     14  C   UNL     1       4.040  -4.335  -0.228  0.00  0.00    +0.000 A 
ATOM     15  C   UNL     1       5.291  -3.697  -0.290  0.00  0.00    +0.000 A 
ATOM     16  C   UNL     1       6.304  -4.186  -1.116  0.00  0.00    +0.000 A 
ATOM     17  C   UNL     1       6.086  -5.320  -1.893  0.00  0.00    +0.000 A 
ATOM     18  C   UNL     1       4.853  -5.966  -1.846  0.00  0.00    +0.000 A 
ATOM     19  C   UNL     1       3.837  -5.478  -1.021  0.00  0.00    +0.000 A 
ENDBRANCH  12  14
ENDBRANCH   3  12
TORSDOF 3
