REMARK  Name = *****
REMARK  3 active torsions:
REMARK  status: ('A' for Active; 'I' for Inactive)
REMARK    1  A    between atoms: C_1  and  C_2
REMARK    2  A    between atoms: C_5  and  S_8
REMARK    3  A    between atoms: S_8  and  C_10
REMARK                            x       y       z     vdW  Elec       q    Type
REMARK                         _______ _______ _______ _____ _____    ______ ____
ROOT
ATOM      1  S   UNL     1      -3.390  -0.156  -0.179  0.00  0.00    +0.000 S 
ATOM      2  O   UNL     1      -3.573  -0.582   1.249  0.00  0.00    +0.000 OA
ENDROOT
BRANCH   1   7
ATOM      3  C   UNL     1      -7.546  -3.308  -3.395  0.00  0.00    +0.000 C 
ATOM      4  C   UNL     1      -6.551  -2.514  -2.601  0.00  0.00    +0.000 A 
ATOM      5  C   UNL     1      -5.703  -1.599  -3.236  0.00  0.00    +0.000 A 
ATOM      6  C   UNL     1      -4.754  -0.884  -2.500  0.00  0.00    +0.000 A 
ATOM      7  C   UNL     1      -4.637  -1.079  -1.119  0.00  0.00    +0.000 A 
ATOM      8  C   UNL     1      -5.468  -2.009  -0.488  0.00  0.00    +0.000 A 
ATOM      9  C   UNL     1      -6.416  -2.724  -1.224  0.00  0.00    +0.000 A 
ENDBRANCH   1   7
BRANCH   1  10
ATOM     10  C   UNL     1      -4.127   1.470  -0.262  0.00  0.00    +0.000 C 
ATOM     11  C   UNL     1      -3.657   2.434  -1.077  0.00  0.00    +0.000 C 
ATOM     12  C   UNL     1      -2.475   2.328  -2.016  0.00  0.00    +0.000 C 
ATOM     13  C   UNL     1      -1.453   3.431  -1.731  0.00  0.00    +0.000 C 
ATOM     14  C   UNL     1      -2.092   4.819  -1.755  0.00  0.00    +0.000 C 
ATOM     15  C   UNL     1      -3.291   4.900  -0.810  0.00  0.00    +0.000 C 
ATOM     16  C   UNL     1      -4.312   3.799  -1.096  0.00  0.00    +0.000 C 
ENDBRANCH   1  10
TORSDOF 2
