REMARK  Name = *****
REMARK  6 active torsions:
REMARK  status: ('A' for Active; 'I' for Inactive)
REMARK    1  A    between atoms: C_1  and  C_2
REMARK    2  A    between atoms: C_5  and  S_8
REMARK    3  A    between atoms: S_8  and  C_9
REMARK    4  A    between atoms: C_9  and  N_10
REMARK    5  A    between atoms: N_10  and  C_11
REMARK    6  A    between atoms: N_10  and  C_12
REMARK                            x       y       z     vdW  Elec       q    Type
REMARK                         _______ _______ _______ _____ _____    ______ ____
ROOT
ATOM      1  C   UNL     1      -4.174   1.396  -0.200  0.00  0.00    +0.000 C 
ENDROOT
BRANCH   1   2
ATOM      2  N   UNL     1      -5.619   1.498  -0.001  0.00  0.00    +0.000 N 
ATOM      3  C   UNL     1      -6.113   1.207   1.341  0.00  0.00    +0.000 C 
BRANCH   2   4
ATOM      4  C   UNL     1      -6.515   1.666  -1.053  0.00  0.00    +0.000 A 
ATOM      5  C   UNL     1      -6.117   1.629  -2.401  0.00  0.00    +0.000 A 
ATOM      6  C   UNL     1      -7.024   1.806  -3.456  0.00  0.00    +0.000 A 
ATOM      7  C   UNL     1      -8.367   2.032  -3.192  0.00  0.00    +0.000 A 
ATOM      8  C   UNL     1      -8.799   2.079  -1.874  0.00  0.00    +0.000 A 
ATOM      9  C   UNL     1      -7.885   1.899  -0.828  0.00  0.00    +0.000 A 
ENDBRANCH   2   4
ENDBRANCH   1   2
BRANCH   1  10
ATOM     10  S   UNL     1      -3.666  -0.327  -0.525  0.00  0.00    +0.000 S 
BRANCH  10  15
ATOM     11  C   UNL     1       2.403   0.108  -0.107  0.00  0.00    +0.000 C 
ATOM     12  C   UNL     1       0.907   0.030  -0.194  0.00  0.00    +0.000 A 
ATOM     13  C   UNL     1       0.204   0.871  -1.063  0.00  0.00    +0.000 A 
ATOM     14  C   UNL     1      -1.187   0.776  -1.174  0.00  0.00    +0.000 A 
ATOM     15  C   UNL     1      -1.894  -0.160  -0.414  0.00  0.00    +0.000 A 
ATOM     16  C   UNL     1      -1.189  -1.023   0.429  0.00  0.00    +0.000 A 
ATOM     17  C   UNL     1       0.202  -0.930   0.539  0.00  0.00    +0.000 A 
ENDBRANCH  10  15
ENDBRANCH   1  10
TORSDOF 4
