REMARK  Name = *****
REMARK  5 active torsions:
REMARK  status: ('A' for Active; 'I' for Inactive)
REMARK    1  A    between atoms: C_1  and  C_2
REMARK    2  A    between atoms: C_5  and  S_8
REMARK    3  A    between atoms: S_8  and  O_10
REMARK    4  A    between atoms: O_10  and  C_11
REMARK    5  A    between atoms: C_11  and  C_18
REMARK                            x       y       z     vdW  Elec       q    Type
REMARK                         _______ _______ _______ _____ _____    ______ ____
ROOT
ATOM      1  S   UNL     1      -3.466   0.756   1.469  0.00  0.00    +0.000 S 
ATOM      2  O   UNL     1      -3.381   1.724   2.613  0.00  0.00    +0.000 OA
ENDROOT
BRANCH   1   7
ATOM      3  C   UNL     1       1.995   0.870  -1.295  0.00  0.00    +0.000 C 
ATOM      4  C   UNL     1       0.670   0.830  -0.594  0.00  0.00    +0.000 A 
ATOM      5  C   UNL     1      -0.291  -0.124  -0.951  0.00  0.00    +0.000 A 
ATOM      6  C   UNL     1      -1.540  -0.141  -0.323  0.00  0.00    +0.000 A 
ATOM      7  C   UNL     1      -1.846   0.803   0.664  0.00  0.00    +0.000 A 
ATOM      8  C   UNL     1      -0.892   1.764   1.013  0.00  0.00    +0.000 A 
ATOM      9  C   UNL     1       0.354   1.782   0.383  0.00  0.00    +0.000 A 
ENDBRANCH   1   7
BRANCH   1  10
ATOM     10  O   UNL     1      -4.171   1.533   0.244  0.00  0.00    +0.000 OA
BRANCH  10  11
ATOM     11  C   UNL     1      -5.606   1.498   0.142  0.00  0.00    +0.000 C 
ATOM     12  C   UNL     1      -6.136   0.067  -0.149  0.00  0.00    +0.000 C 
ATOM     13  C   UNL     1      -6.637   0.159  -1.605  0.00  0.00    +0.000 C 
ATOM     14  C   UNL     1      -7.934   0.987  -1.639  0.00  0.00    +0.000 C 
ATOM     15  C   UNL     1      -7.431   2.422  -1.434  0.00  0.00    +0.000 C 
ATOM     16  C   UNL     1      -5.923   2.227  -1.204  0.00  0.00    +0.000 C 
ATOM     17  C   UNL     1      -5.628   1.120  -2.228  0.00  0.00    +0.000 C 
ATOM     18  C   UNL     1      -6.269   2.161   1.353  0.00  0.00    +0.000 C 
ENDBRANCH  10  11
ENDBRANCH   1  10
TORSDOF 3
