REMARK  Name = *****
REMARK  5 active torsions:
REMARK  status: ('A' for Active; 'I' for Inactive)
REMARK    1  A    between atoms: C_1  and  C_2
REMARK    2  A    between atoms: C_7  and  S_8
REMARK    3  A    between atoms: S_8  and  C_10
REMARK    4  A    between atoms: C_10  and  C_11
REMARK    5  A    between atoms: C_11  and  C_12
REMARK                            x       y       z     vdW  Elec       q    Type
REMARK                         _______ _______ _______ _____ _____    ______ ____
ROOT
ATOM      1  S   UNL     1       1.298  -2.500  -1.173  0.00  0.00    +0.000 S 
ATOM      2  O   UNL     1       1.745  -2.593  -2.603  0.00  0.00    +0.000 OA
ENDROOT
BRANCH   1   9
ATOM      3  C   UNL     1      -0.486  -1.289   1.152  0.00  0.00    +0.000 C 
ATOM      4  C   UNL     1       0.181  -0.317   0.217  0.00  0.00    +0.000 A 
ATOM      5  C   UNL     1      -0.009   1.061   0.424  0.00  0.00    +0.000 A 
ATOM      6  C   UNL     1       0.575   2.000  -0.427  0.00  0.00    +0.000 A 
ATOM      7  C   UNL     1       1.355   1.579  -1.498  0.00  0.00    +0.000 A 
ATOM      8  C   UNL     1       1.559   0.217  -1.714  0.00  0.00    +0.000 A 
ATOM      9  C   UNL     1       0.986  -0.737  -0.860  0.00  0.00    +0.000 A 
ENDBRANCH   1   9
BRANCH   1  10
ATOM     10  C   UNL     1       2.792  -2.640  -0.134  0.00  0.00    +0.000 C 
BRANCH  10  11
ATOM     11  C   UNL     1       3.382  -4.040  -0.255  0.00  0.00    +0.000 C 
BRANCH  11  12
ATOM     12  C   UNL     1       4.578  -4.211   0.649  0.00  0.00    +0.000 A 
ATOM     13  C   UNL     1       5.838  -3.745   0.253  0.00  0.00    +0.000 A 
ATOM     14  C   UNL     1       6.941  -3.882   1.097  0.00  0.00    +0.000 A 
ATOM     15  C   UNL     1       6.793  -4.485   2.345  0.00  0.00    +0.000 A 
ATOM     16  C   UNL     1       5.544  -4.950   2.750  0.00  0.00    +0.000 A 
ATOM     17  C   UNL     1       4.439  -4.812   1.908  0.00  0.00    +0.000 A 
ENDBRANCH  11  12
ENDBRANCH  10  11
ENDBRANCH   1  10
TORSDOF 4
