REMARK  Name = *****
REMARK  4 active torsions:
REMARK  status: ('A' for Active; 'I' for Inactive)
REMARK    1  A    between atoms: C_4  and  C_7
REMARK    2  A    between atoms: C_7  and  S_9
REMARK    3  A    between atoms: S_9  and  C_10
REMARK    4  A    between atoms: C_10  and  C_12
REMARK                            x       y       z     vdW  Elec       q    Type
REMARK                         _______ _______ _______ _____ _____    ______ ____
ROOT
ATOM      1  S   UNL     1      -4.061  -1.618  -1.446  0.00  0.00    +0.000 S 
ENDROOT
BRANCH   1   2
ATOM      2  C   UNL     1      -3.369  -0.154  -0.775  0.00  0.00    +0.000 C 
ATOM      3  O   UNL     1      -3.564   0.122   0.403  0.00  0.00    +0.000 OA
BRANCH   2   7
ATOM      4  C   UNL     1      -0.821   2.383  -3.132  0.00  0.00    +0.000 A 
ATOM      5  C   UNL     1      -1.587   1.411  -3.773  0.00  0.00    +0.000 A 
ATOM      6  C   UNL     1      -2.425   0.573  -3.032  0.00  0.00    +0.000 A 
ATOM      7  C   UNL     1      -2.500   0.700  -1.637  0.00  0.00    +0.000 A 
ATOM      8  C   UNL     1      -1.730   1.690  -1.005  0.00  0.00    +0.000 A 
ATOM      9  C   UNL     1      -0.894   2.525  -1.749  0.00  0.00    +0.000 A 
ENDBRANCH   2   7
ENDBRANCH   1   2
BRANCH   1  10
ATOM     10  C   UNL     1      -5.662  -0.919  -1.597  0.00  0.00    +0.000 C 
ATOM     11  O   UNL     1      -5.892  -0.127  -2.503  0.00  0.00    +0.000 OA
BRANCH  10  12
ATOM     12  C   UNL     1      -6.736  -1.347  -0.653  0.00  0.00    +0.000 A 
ATOM     13  C   UNL     1      -6.497  -2.097   0.508  0.00  0.00    +0.000 A 
ATOM     14  C   UNL     1      -7.557  -2.462   1.343  0.00  0.00    +0.000 A 
ATOM     15  C   UNL     1      -8.861  -2.080   1.031  0.00  0.00    +0.000 A 
ATOM     16  C   UNL     1      -9.109  -1.327  -0.114  0.00  0.00    +0.000 A 
ATOM     17  C   UNL     1      -8.053  -0.961  -0.950  0.00  0.00    +0.000 A 
ENDBRANCH  10  12
ENDBRANCH   1  10
TORSDOF 4
