REMARK  Name = *****
REMARK  3 active torsions:
REMARK  status: ('A' for Active; 'I' for Inactive)
REMARK    1  A    between atoms: C_2  and  C_3
REMARK    2  A    between atoms: C_3  and  C_11
REMARK    3  A    between atoms: C_4  and  C_5
REMARK                            x       y       z     vdW  Elec       q    Type
REMARK                         _______ _______ _______ _____ _____    ______ ____
ROOT
ATOM      1  C   UNL     1       3.027  -0.723  -1.005  0.00  0.00    +0.000 C 
ATOM      2  C   UNL     1       2.279  -1.451  -1.866  0.00  0.00    +0.000 C 
ENDROOT
BRANCH   2   3
ATOM      3  C   UNL     1       0.822  -1.413  -2.051  0.00  0.00    +0.000 A 
ATOM      4  C   UNL     1       0.168  -0.244  -2.456  0.00  0.00    +0.000 A 
ATOM      5  C   UNL     1      -1.214  -0.240  -2.653  0.00  0.00    +0.000 A 
ATOM      6  C   UNL     1      -1.951  -1.407  -2.454  0.00  0.00    +0.000 A 
ATOM      7  C   UNL     1      -1.306  -2.579  -2.064  0.00  0.00    +0.000 A 
ATOM      8  C   UNL     1       0.077  -2.584  -1.867  0.00  0.00    +0.000 A 
ENDBRANCH   2   3
BRANCH   1   9
ATOM      9  C   UNL     1       4.472  -0.843  -1.015  0.00  0.00    +0.000 A 
ATOM     10  C   UNL     1       5.238  -0.879   0.135  0.00  0.00    +0.000 A 
ATOM     11  S   UNL     1       6.911  -1.025  -0.195  0.00  0.00    +0.000 S 
ATOM     12  C   UNL     1       6.633  -1.037  -1.881  0.00  0.00    +0.000 A 
ATOM     13  C   UNL     1       5.293  -0.934  -2.185  0.00  0.00    +0.000 A 
ENDBRANCH   1   9
BRANCH   1  15
ATOM     14  C   UNL     1       1.512  -0.064   0.854  0.00  0.00    +0.000 C 
ATOM     15  C   UNL     1       2.441   0.232  -0.064  0.00  0.00    +0.000 C 
ENDBRANCH   1  15
TORSDOF 3
