REMARK  Name = *****
REMARK  4 active torsions:
REMARK  status: ('A' for Active; 'I' for Inactive)
REMARK    1  A    between atoms: C_1  and  O_2
REMARK    2  A    between atoms: O_2  and  C_3
REMARK    3  A    between atoms: C_8  and  C_9
REMARK    4  A    between atoms: C_10  and  C_11
REMARK                            x       y       z     vdW  Elec       q    Type
REMARK                         _______ _______ _______ _____ _____    ______ ____
ROOT
ATOM      1  C   UNL     1       4.474   1.244   1.383  0.00  0.00    +0.000 C 
ATOM      2  C   UNL     1       3.682   2.252   0.981  0.00  0.00    +0.000 C 
ATOM      3  F   UNL     1       2.396   1.995   0.641  0.00  0.00    +0.000 F 
ENDROOT
BRANCH   1   9
ATOM      4  C   UNL     1       4.985  -1.192   1.093  0.00  0.00    +0.000 A 
ATOM      5  C   UNL     1       4.606  -2.536   1.213  0.00  0.00    +0.000 A 
ATOM      6  C   UNL     1       3.344  -2.875   1.707  0.00  0.00    +0.000 A 
ATOM      7  C   UNL     1       2.453  -1.879   2.091  0.00  0.00    +0.000 A 
ATOM      8  C   UNL     1       2.820  -0.538   1.977  0.00  0.00    +0.000 A 
ATOM      9  C   UNL     1       4.077  -0.176   1.465  0.00  0.00    +0.000 A 
BRANCH   4  11
ATOM     10  C   UNL     1       7.124  -1.774   0.197  0.00  0.00    +0.000 C 
ATOM     11  O   UNL     1       6.208  -0.775   0.625  0.00  0.00    +0.000 OA
ENDBRANCH   4  11
ENDBRANCH   1   9
BRANCH   2  12
ATOM     12  C   UNL     1       4.102   3.663   0.903  0.00  0.00    +0.000 A 
ATOM     13  C   UNL     1       5.428   4.051   0.657  0.00  0.00    +0.000 A 
ATOM     14  C   UNL     1       5.774   5.404   0.576  0.00  0.00    +0.000 A 
ATOM     15  C   UNL     1       4.798   6.385   0.733  0.00  0.00    +0.000 A 
ATOM     16  C   UNL     1       3.475   6.017   0.964  0.00  0.00    +0.000 A 
ATOM     17  C   UNL     1       3.130   4.665   1.043  0.00  0.00    +0.000 A 
ENDBRANCH   2  12
TORSDOF 3
