REMARK  Name = *****
REMARK  5 active torsions:
REMARK  status: ('A' for Active; 'I' for Inactive)
REMARK    1  A    between atoms: C_1  and  C_2
REMARK    2  A    between atoms: C_3  and  S_9
REMARK    3  A    between atoms: C_4  and  C_8
REMARK    4  A    between atoms: S_9  and  C_10
REMARK    5  A    between atoms: C_10  and  C_12
REMARK                            x       y       z     vdW  Elec       q    Type
REMARK                         _______ _______ _______ _____ _____    ______ ____
ROOT
ATOM      1  S   UNL     1       0.065   2.896   0.458  0.00  0.00    +0.000 S 
ENDROOT
BRANCH   1   4
ATOM      2  C   UNL     1       2.620   0.914   0.222  0.00  0.00    +0.000 C 
ATOM      3  C   UNL     1       1.237   0.364  -0.014  0.00  0.00    +0.000 A 
ATOM      4  C   UNL     1       0.053   1.132   0.087  0.00  0.00    +0.000 A 
ATOM      5  C   UNL     1      -1.204   0.485  -0.055  0.00  0.00    +0.000 A 
ATOM      6  C   UNL     1      -1.251  -0.880  -0.386  0.00  0.00    +0.000 A 
ATOM      7  C   UNL     1      -0.083  -1.612  -0.553  0.00  0.00    +0.000 A 
ATOM      8  C   UNL     1       1.149  -0.997  -0.363  0.00  0.00    +0.000 A 
ATOM      9  C   UNL     1      -2.519   1.195   0.164  0.00  0.00    +0.000 C 
ENDBRANCH   1   4
BRANCH   1  10
ATOM     10  C   UNL     1       1.143   3.571  -0.756  0.00  0.00    +0.000 C 
ATOM     11  O   UNL     1       2.283   3.901  -0.443  0.00  0.00    +0.000 OA
BRANCH  10  12
ATOM     12  C   UNL     1       0.635   3.866  -2.128  0.00  0.00    +0.000 A 
ATOM     13  C   UNL     1      -0.491   3.260  -2.697  0.00  0.00    +0.000 A 
ATOM     14  C   UNL     1      -0.902   3.597  -3.991  0.00  0.00    +0.000 A 
ATOM     15  C   UNL     1      -0.191   4.540  -4.730  0.00  0.00    +0.000 A 
ATOM     16  C   UNL     1       0.935   5.146  -4.180  0.00  0.00    +0.000 A 
ATOM     17  C   UNL     1       1.348   4.807  -2.890  0.00  0.00    +0.000 A 
ENDBRANCH  10  12
ENDBRANCH   1  10
TORSDOF 3
