REMARK  Name = *****
REMARK  4 active torsions:
REMARK  status: ('A' for Active; 'I' for Inactive)
REMARK    1  A    between atoms: C_1  and  O_2
REMARK    2  A    between atoms: O_2  and  C_3
REMARK    3  A    between atoms: C_6  and  C_9
REMARK    4  A    between atoms: C_10  and  C_11
REMARK                            x       y       z     vdW  Elec       q    Type
REMARK                         _______ _______ _______ _____ _____    ______ ____
ROOT
ATOM      1  C   UNL     1       4.656   3.758   3.782  0.00  0.00    +0.000 C 
ATOM      2  C   UNL     1       5.111   4.586   4.524  0.00  0.00    +0.000 C 
ENDROOT
BRANCH   2   3
ATOM      3  C   UNL     1       5.649   5.575   5.405  0.00  0.00    +0.000 A 
ATOM      4  C   UNL     1       5.211   6.897   5.323  0.00  0.00    +0.000 A 
ATOM      5  C   UNL     1       5.745   7.846   6.187  0.00  0.00    +0.000 A 
ATOM      6  C   UNL     1       6.706   7.501   7.131  0.00  0.00    +0.000 A 
ATOM      7  C   UNL     1       7.145   6.181   7.215  0.00  0.00    +0.000 A 
ATOM      8  C   UNL     1       6.616   5.217   6.351  0.00  0.00    +0.000 A 
ATOM      9  F   UNL     1       5.325   9.116   6.110  0.00  0.00    +0.000 F 
ENDBRANCH   2   3
BRANCH   1  13
ATOM     10  C   UNL     1       3.036   0.849   1.164  0.00  0.00    +0.000 A 
ATOM     11  C   UNL     1       2.430   1.101   2.396  0.00  0.00    +0.000 A 
ATOM     12  C   UNL     1       2.968   2.062   3.261  0.00  0.00    +0.000 A 
ATOM     13  C   UNL     1       4.112   2.774   2.898  0.00  0.00    +0.000 A 
ATOM     14  C   UNL     1       4.721   2.524   1.669  0.00  0.00    +0.000 A 
ATOM     15  C   UNL     1       4.183   1.564   0.808  0.00  0.00    +0.000 A 
BRANCH  10  17
ATOM     16  C   UNL     1       1.438  -0.795   0.535  0.00  0.00    +0.000 C 
ATOM     17  O   UNL     1       2.615  -0.057   0.231  0.00  0.00    +0.000 OA
ENDBRANCH  10  17
ENDBRANCH   1  13
TORSDOF 3
