REMARK  Name = *****
REMARK  3 active torsions:
REMARK  status: ('A' for Active; 'I' for Inactive)
REMARK    1  A    between atoms: C_7  and  C_8
REMARK    2  A    between atoms: C_9  and  C_10
REMARK    3  A    between atoms: C_13  and  C_16
REMARK                            x       y       z     vdW  Elec       q    Type
REMARK                         _______ _______ _______ _____ _____    ______ ____
ROOT
ATOM      1  C   UNL     1       2.530   1.314   0.154  0.00  0.00    +0.000 C 
ATOM      2  C   UNL     1       3.351   2.169  -0.478  0.00  0.00    +0.000 C 
ENDROOT
BRANCH   1   9
ATOM      3  C   UNL     1      -1.236  -0.745  -0.600  0.00  0.00    +0.000 C 
ATOM      4  C   UNL     1      -1.228   0.789  -0.523  0.00  0.00    +0.000 C 
ATOM      5  C   UNL     1       0.005   1.085   0.352  0.00  0.00    +0.000 C 
ATOM      6  C   UNL     1      -0.062  -0.069   1.357  0.00  0.00    +0.000 C 
ATOM      7  C   UNL     1      -0.031  -1.141   0.270  0.00  0.00    +0.000 C 
ATOM      8  C   UNL     1       1.269  -0.792  -0.480  0.00  0.00    +0.000 C 
ATOM      9  C   UNL     1       1.277   0.755  -0.471  0.00  0.00    +0.000 C 
ENDBRANCH   1   9
BRANCH   2  10
ATOM     10  C   UNL     1       4.579   2.722   0.109  0.00  0.00    +0.000 A 
ATOM     11  C   UNL     1       5.682   2.952  -0.724  0.00  0.00    +0.000 A 
ATOM     12  C   UNL     1       6.861   3.504  -0.212  0.00  0.00    +0.000 A 
ATOM     13  C   UNL     1       6.946   3.843   1.141  0.00  0.00    +0.000 A 
ATOM     14  C   UNL     1       5.845   3.633   1.976  0.00  0.00    +0.000 A 
ATOM     15  C   UNL     1       4.668   3.080   1.461  0.00  0.00    +0.000 A 
BRANCH  13  16
ATOM     16  C   UNL     1       8.152   4.410   1.668  0.00  0.00    +0.000 C 
ATOM     17  N   UNL     1       9.130   4.869   2.095  0.00  0.00    +0.000 NA
ENDBRANCH  13  16
ENDBRANCH   2  10
TORSDOF 3
