REMARK  Name = *****
REMARK  3 active torsions:
REMARK  status: ('A' for Active; 'I' for Inactive)
REMARK    1  A    between atoms: C_1  and  C_2
REMARK    2  A    between atoms: C_5  and  C_7
REMARK    3  A    between atoms: C_8  and  C_9
REMARK                            x       y       z     vdW  Elec       q    Type
REMARK                         _______ _______ _______ _____ _____    ______ ____
ROOT
ATOM      1  C   UNL     1      -2.411   1.652   0.075  0.00  0.00    +0.000 C 
ATOM      2  C   UNL     1      -3.716   1.342   0.021  0.00  0.00    +0.000 C 
ENDROOT
BRANCH   2   3
ATOM      3  C   UNL     1      -4.798   2.335   0.042  0.00  0.00    +0.000 A 
ATOM      4  C   UNL     1      -4.706   3.557  -0.640  0.00  0.00    +0.000 A 
ATOM      5  C   UNL     1      -5.771   4.464  -0.619  0.00  0.00    +0.000 A 
ATOM      6  C   UNL     1      -6.937   4.148   0.074  0.00  0.00    +0.000 A 
ATOM      7  C   UNL     1      -7.050   2.932   0.742  0.00  0.00    +0.000 A 
ATOM      8  C   UNL     1      -5.985   2.026   0.720  0.00  0.00    +0.000 A 
ATOM      9 CL   UNL     1      -8.246   5.263   0.098  0.00  0.00    +0.000 Cl
ENDBRANCH   2   3
BRANCH   1  14
ATOM     10  C   UNL     1      -0.605  -2.866  -0.049  0.00  0.00    +0.000 C 
ATOM     11  C   UNL     1      -0.509  -1.395   0.010  0.00  0.00    +0.000 A 
ATOM     12  C   UNL     1       0.543  -0.515   0.076  0.00  0.00    +0.000 A 
ATOM     13  C   UNL     1      -0.033   0.777   0.110  0.00  0.00    +0.000 A 
ATOM     14  C   UNL     1      -1.416   0.635   0.063  0.00  0.00    +0.000 A 
ATOM     15  O   UNL     1      -1.685  -0.716   0.002  0.00  0.00    +0.000 OA
ENDBRANCH   1  14
TORSDOF 2
