REMARK  Name = *****
REMARK  2 active torsions:
REMARK  status: ('A' for Active; 'I' for Inactive)
REMARK    1  A    between atoms: C_4  and  C_7
REMARK    2  A    between atoms: C_8  and  C_9
REMARK                            x       y       z     vdW  Elec       q    Type
REMARK                         _______ _______ _______ _____ _____    ______ ____
ROOT
ATOM      1  C   UNL     1      -2.795   0.475  -0.225  0.00  0.00    +0.000 C 
ATOM      2  C   UNL     1      -3.735  -0.484  -0.264  0.00  0.00    +0.000 C 
ENDROOT
BRANCH   2   3
ATOM      3  C   UNL     1      -5.177  -0.232  -0.414  0.00  0.00    +0.000 A 
ATOM      4  C   UNL     1      -5.973  -1.170  -1.091  0.00  0.00    +0.000 A 
ATOM      5  C   UNL     1      -7.345  -0.994  -1.237  0.00  0.00    +0.000 A 
ATOM      6  C   UNL     1      -7.938   0.132  -0.687  0.00  0.00    +0.000 A 
ATOM      7  C   UNL     1      -7.185   1.072   0.007  0.00  0.00    +0.000 A 
ATOM      8  C   UNL     1      -5.806   0.889   0.149  0.00  0.00    +0.000 A 
ATOM      9  F   UNL     1      -9.259   0.313  -0.818  0.00  0.00    +0.000 F 
ATOM     10  F   UNL     1      -5.413  -2.269  -1.622  0.00  0.00    +0.000 F 
ENDBRANCH   2   3
BRANCH   1  14
ATOM     11  C   UNL     1       1.412  -0.194   0.179  0.00  0.00    +0.000 A 
ATOM     12  C   UNL     1       0.645  -1.085  -0.568  0.00  0.00    +0.000 A 
ATOM     13  C   UNL     1      -0.731  -0.883  -0.703  0.00  0.00    +0.000 A 
ATOM     14  C   UNL     1      -1.356   0.206  -0.082  0.00  0.00    +0.000 A 
ATOM     15  C   UNL     1      -0.570   1.105   0.652  0.00  0.00    +0.000 A 
ATOM     16  C   UNL     1       0.806   0.903   0.787  0.00  0.00    +0.000 A 
ENDBRANCH   1  14
TORSDOF 2
