REMARK  Name = *****
REMARK  5 active torsions:
REMARK  status: ('A' for Active; 'I' for Inactive)
REMARK    1  A    between atoms: C_1  and  N_2
REMARK    2  A    between atoms: N_2  and  S_3
REMARK    3  A    between atoms: N_2  and  S_10
REMARK    4  A    between atoms: S_3  and  C_4
REMARK    5  A    between atoms: S_10  and  C_11
REMARK                            x       y       z     vdW  Elec       q    Type
REMARK                         _______ _______ _______ _____ _____    ______ ____
ROOT
ATOM      1  C   UNL     1       0.395   0.646  -0.300  0.00  0.00    +0.000 C 
ATOM      2  N   UNL     1       1.848   0.748  -0.395  0.00  0.00    +0.000 NA
ENDROOT
BRANCH   2   3
ATOM      3  S   UNL     1       2.564   1.520  -1.679  0.00  0.00    +0.000 S 
BRANCH   3   4
ATOM      4  C   UNL     1       2.479   0.255  -2.939  0.00  0.00    +0.000 A 
ATOM      5  C   UNL     1       1.923   0.565  -4.184  0.00  0.00    +0.000 A 
ATOM      6  C   UNL     1       1.855  -0.404  -5.188  0.00  0.00    +0.000 A 
ATOM      7  C   UNL     1       2.348  -1.686  -4.955  0.00  0.00    +0.000 A 
ATOM      8  C   UNL     1       2.912  -2.001  -3.720  0.00  0.00    +0.000 A 
ATOM      9  C   UNL     1       2.980  -1.033  -2.715  0.00  0.00    +0.000 A 
ENDBRANCH   3   4
ENDBRANCH   2   3
BRANCH   2  10
ATOM     10  S   UNL     1       2.813   0.831   0.954  0.00  0.00    +0.000 S 
BRANCH  10  11
ATOM     11  C   UNL     1       2.113   2.211   1.848  0.00  0.00    +0.000 A 
ATOM     12  C   UNL     1       1.271   1.976   2.940  0.00  0.00    +0.000 A 
ATOM     13  C   UNL     1       0.725   3.046   3.652  0.00  0.00    +0.000 A 
ATOM     14  C   UNL     1       1.024   4.356   3.280  0.00  0.00    +0.000 A 
ATOM     15  C   UNL     1       1.871   4.597   2.200  0.00  0.00    +0.000 A 
ATOM     16  C   UNL     1       2.417   3.528   1.487  0.00  0.00    +0.000 A 
ENDBRANCH  10  11
ENDBRANCH   2  10
TORSDOF 4
