REMARK  Name = *****
REMARK  5 active torsions:
REMARK  status: ('A' for Active; 'I' for Inactive)
REMARK    1  A    between atoms: C_1  and  O_2
REMARK    2  A    between atoms: O_2  and  C_3
REMARK    3  A    between atoms: C_6  and  C_9
REMARK    4  A    between atoms: C_9  and  C_10
REMARK    5  A    between atoms: C_10  and  C_11
REMARK                            x       y       z     vdW  Elec       q    Type
REMARK                         _______ _______ _______ _____ _____    ______ ____
ROOT
ATOM      1  C   UNL     1       3.013  -0.312   1.312  0.00  0.00    +0.000 A 
ATOM      2  C   UNL     1       2.620   0.238   2.532  0.00  0.00    +0.000 A 
ATOM      3  C   UNL     1       3.375   0.002   3.686  0.00  0.00    +0.000 A 
ATOM      4  C   UNL     1       4.532  -0.786   3.636  0.00  0.00    +0.000 A 
ATOM      5  C   UNL     1       4.922  -1.333   2.409  0.00  0.00    +0.000 A 
ATOM      6  C   UNL     1       4.168  -1.094   1.258  0.00  0.00    +0.000 A 
ENDROOT
BRANCH   1   8
ATOM      7  C   UNL     1       1.162   0.591   0.127  0.00  0.00    +0.000 C 
ATOM      8  O   UNL     1       2.367  -0.162   0.115  0.00  0.00    +0.000 OA
ENDBRANCH   1   8
BRANCH   4   9
ATOM      9  C   UNL     1       5.333  -1.058   4.886  0.00  0.00    +0.000 C 
BRANCH   9  10
ATOM     10  C   UNL     1       4.677  -2.071   5.833  0.00  0.00    +0.000 C 
BRANCH  10  11
ATOM     11  C   UNL     1       4.602  -3.469   5.265  0.00  0.00    +0.000 C 
ATOM     12  C   UNL     1       5.903  -4.218   5.064  0.00  0.00    +0.000 C 
ATOM     13  C   UNL     1       5.797  -5.418   6.012  0.00  0.00    +0.000 C 
ATOM     14  C   UNL     1       4.308  -5.768   6.044  0.00  0.00    +0.000 C 
ATOM     15  C   UNL     1       3.620  -4.447   5.857  0.00  0.00    +0.000 C 
ATOM     16  C   UNL     1       3.374  -3.890   4.485  0.00  0.00    +0.000 C 
ENDBRANCH  10  11
ENDBRANCH   9  10
ENDBRANCH   4   9
TORSDOF 4
