REMARK  Name = *****
REMARK  3 active torsions:
REMARK  status: ('A' for Active; 'I' for Inactive)
REMARK    1  A    between atoms: C_4  and  C_7
REMARK    2  A    between atoms: C_7  and  C_8
REMARK    3  A    between atoms: C_8  and  C_9
REMARK                            x       y       z     vdW  Elec       q    Type
REMARK                         _______ _______ _______ _____ _____    ______ ____
ROOT
ATOM      1  C   UNL     1      -3.544  -0.994  -0.278  0.00  0.00    +0.000 C 
ATOM      2  I   UNL     1      -5.639  -0.597  -0.814  0.00  0.00    +0.000 I 
ENDROOT
BRANCH   1   3
ATOM      3  C   UNL     1      -3.518  -1.670   1.083  0.00  0.00    +0.000 A 
ATOM      4  C   UNL     1      -3.868  -0.993   2.264  0.00  0.00    +0.000 A 
ATOM      5  C   UNL     1      -3.821  -1.642   3.500  0.00  0.00    +0.000 A 
ATOM      6  C   UNL     1      -3.424  -2.974   3.575  0.00  0.00    +0.000 A 
ATOM      7  C   UNL     1      -3.075  -3.660   2.415  0.00  0.00    +0.000 A 
ATOM      8  C   UNL     1      -3.121  -3.014   1.178  0.00  0.00    +0.000 A 
ENDBRANCH   1   3
BRANCH   1   9
ATOM      9  C   UNL     1      -2.737   0.317  -0.372  0.00  0.00    +0.000 C 
BRANCH   9  13
ATOM     10  C   UNL     1       1.520  -0.395  -0.277  0.00  0.00    +0.000 A 
ATOM     11  C   UNL     1       0.826  -0.468  -1.483  0.00  0.00    +0.000 A 
ATOM     12  C   UNL     1      -0.549  -0.232  -1.515  0.00  0.00    +0.000 A 
ATOM     13  C   UNL     1      -1.243   0.083  -0.338  0.00  0.00    +0.000 A 
ATOM     14  C   UNL     1      -0.536   0.150   0.870  0.00  0.00    +0.000 A 
ATOM     15  C   UNL     1       0.839  -0.088   0.899  0.00  0.00    +0.000 A 
ENDBRANCH   9  13
ENDBRANCH   1   9
TORSDOF 3
