REMARK  Name = *****
REMARK  5 active torsions:
REMARK  status: ('A' for Active; 'I' for Inactive)
REMARK    1  A    between atoms: C_4  and  S_6
REMARK    2  A    between atoms: S_6  and  C_7
REMARK    3  A    between atoms: C_7  and  C_8
REMARK    4  A    between atoms: C_7  and  S_10
REMARK    5  A    between atoms: S_10  and  C_11
REMARK                            x       y       z     vdW  Elec       q    Type
REMARK                         _______ _______ _______ _____ _____    ______ ____
ROOT
ATOM      1  C   UNL     1       1.124  -3.935   0.373  0.00  0.00    +0.000 C 
ENDROOT
BRANCH   1   2
ATOM      2  C   UNL     1       1.913  -3.836   1.661  0.00  0.00    +0.000 C 
ATOM      3  O   UNL     1       3.070  -3.421   1.722  0.00  0.00    +0.000 OA
ENDBRANCH   1   2
BRANCH   1   4
ATOM      4  S   UNL     1      -0.450  -3.035   0.581  0.00  0.00    +0.000 S 
BRANCH   4   8
ATOM      5  C   UNL     1       1.018   0.630  -0.208  0.00  0.00    +0.000 A 
ATOM      6  C   UNL     1       0.796   0.922   1.119  0.00  0.00    +0.000 A 
ATOM      7  S   UNL     1       0.114  -0.403   1.960  0.00  0.00    +0.000 S 
ATOM      8  C   UNL     1       0.132  -1.380   0.559  0.00  0.00    +0.000 A 
ATOM      9  C   UNL     1       0.627  -0.702  -0.534  0.00  0.00    +0.000 A 
ENDBRANCH   4   8
ENDBRANCH   1   4
BRANCH   1  10
ATOM     10  S   UNL     1       0.826  -5.706   0.050  0.00  0.00    +0.000 S 
BRANCH  10  11
ATOM     11  C   UNL     1       0.233  -5.654  -1.602  0.00  0.00    +0.000 A 
ATOM     12  C   UNL     1      -1.029  -6.034  -2.007  0.00  0.00    +0.000 A 
ATOM     13  C   UNL     1      -1.213  -5.889  -3.414  0.00  0.00    +0.000 A 
ATOM     14  C   UNL     1      -0.078  -5.417  -4.034  0.00  0.00    +0.000 A 
ATOM     15  S   UNL     1       1.197  -5.155  -2.924  0.00  0.00    +0.000 S 
ENDBRANCH  10  11
ENDBRANCH   1  10
TORSDOF 5
