REMARK  Name = *****
REMARK  5 active torsions:
REMARK  status: ('A' for Active; 'I' for Inactive)
REMARK    1  A    between atoms: C_1  and  C_2
REMARK    2  A    between atoms: C_5  and  C_8
REMARK    3  A    between atoms: C_8  and  S_9
REMARK    4  A    between atoms: C_8  and  S_11
REMARK    5  A    between atoms: S_11  and  C_12
REMARK                            x       y       z     vdW  Elec       q    Type
REMARK                         _______ _______ _______ _____ _____    ______ ____
ROOT
ATOM      1  C   UNL     1      -3.324  -0.187   0.120  0.00  0.00    +0.000 C 
ENDROOT
BRANCH   1   6
ATOM      2  C   UNL     1       2.347   0.888  -0.298  0.00  0.00    +0.000 C 
ATOM      3  C   UNL     1       0.874   0.630  -0.180  0.00  0.00    +0.000 A 
ATOM      4  C   UNL     1       0.019   0.904  -1.254  0.00  0.00    +0.000 A 
ATOM      5  C   UNL     1      -1.348   0.630  -1.159  0.00  0.00    +0.000 A 
ATOM      6  C   UNL     1      -1.873   0.067   0.012  0.00  0.00    +0.000 A 
ATOM      7  C   UNL     1      -1.018  -0.223   1.082  0.00  0.00    +0.000 A 
ATOM      8  C   UNL     1       0.348   0.052   0.981  0.00  0.00    +0.000 A 
ENDBRANCH   1   6
BRANCH   1   9
ATOM      9  S   UNL     1      -3.931  -1.644   0.569  0.00  0.00    +0.000 S 
ATOM     10  O   UNL     1      -2.916  -2.691   0.876  0.00  0.00    +0.000 OA
ENDBRANCH   1   9
BRANCH   1  11
ATOM     11  S   UNL     1      -4.440   1.115  -0.264  0.00  0.00    +0.000 S 
BRANCH  11  12
ATOM     12  C   UNL     1      -3.960   2.319   0.960  0.00  0.00    +0.000 A 
ATOM     13  C   UNL     1      -4.226   2.103   2.317  0.00  0.00    +0.000 A 
ATOM     14  C   UNL     1      -3.837   3.048   3.268  0.00  0.00    +0.000 A 
ATOM     15  C   UNL     1      -3.186   4.214   2.867  0.00  0.00    +0.000 A 
ATOM     16  C   UNL     1      -2.928   4.439   1.516  0.00  0.00    +0.000 A 
ATOM     17  C   UNL     1      -3.317   3.495   0.563  0.00  0.00    +0.000 A 
ENDBRANCH  11  12
ENDBRANCH   1  11
TORSDOF 4
