REMARK  Name = *****
REMARK  4 active torsions:
REMARK  status: ('A' for Active; 'I' for Inactive)
REMARK    1  A    between atoms: C_4  and  C_7
REMARK    2  A    between atoms: C_7  and  O_8
REMARK    3  A    between atoms: O_8  and  C_9
REMARK    4  A    between atoms: C_12  and  C_15
REMARK                            x       y       z     vdW  Elec       q    Type
REMARK                         _______ _______ _______ _____ _____    ______ ____
ROOT
ATOM      1  C   UNL     1      -4.951  -0.513  -0.537  0.00  0.00    +0.000 A 
ATOM      2  C   UNL     1      -5.653  -1.549  -1.158  0.00  0.00    +0.000 A 
ATOM      3  C   UNL     1      -7.034  -1.484  -1.336  0.00  0.00    +0.000 A 
ATOM      4  C   UNL     1      -7.750  -0.375  -0.872  0.00  0.00    +0.000 A 
ATOM      5  C   UNL     1      -7.049   0.661  -0.235  0.00  0.00    +0.000 A 
ATOM      6  C   UNL     1      -5.661   0.591  -0.063  0.00  0.00    +0.000 A 
ATOM      7  F   UNL     1      -4.998  -2.627  -1.615  0.00  0.00    +0.000 F 
ENDROOT
BRANCH   4   8
ATOM      8  C   UNL     1      -9.236  -0.284  -1.076  0.00  0.00    +0.000 C 
ATOM      9 CL   UNL     1      -9.606   0.712  -2.498  0.00  0.00    +0.000 Cl
ENDBRANCH   4   8
BRANCH   1  10
ATOM     10  O   UNL     1      -3.599  -0.687  -0.418  0.00  0.00    +0.000 OA
BRANCH  10  11
ATOM     11  C   UNL     1      -2.816   0.502  -0.304  0.00  0.00    +0.000 C 
BRANCH  11  15
ATOM     12  C   UNL     1       1.362  -0.225  -1.143  0.00  0.00    +0.000 A 
ATOM     13  C   UNL     1       0.394  -1.078  -1.669  0.00  0.00    +0.000 A 
ATOM     14  C   UNL     1      -0.957  -0.858  -1.394  0.00  0.00    +0.000 A 
ATOM     15  C   UNL     1      -1.356   0.211  -0.577  0.00  0.00    +0.000 A 
ATOM     16  C   UNL     1      -0.371   1.069  -0.065  0.00  0.00    +0.000 A 
ATOM     17  C   UNL     1       0.980   0.849  -0.343  0.00  0.00    +0.000 A 
ENDBRANCH  11  15
ENDBRANCH  10  11
ENDBRANCH   1  10
TORSDOF 4
