REMARK  Name = *****
REMARK  2 active torsions:
REMARK  status: ('A' for Active; 'I' for Inactive)
REMARK    1  A    between atoms: C_9  and  C_10
REMARK    2  A    between atoms: C_10  and  C_12
REMARK                            x       y       z     vdW  Elec       q    Type
REMARK                         _______ _______ _______ _____ _____    ______ ____
ROOT
ATOM      1  C   UNL     1      -1.286   0.507   0.634  0.00  0.00    +0.000 C 
ATOM      2  C   UNL     1      -0.454   1.200  -0.443  0.00  0.00    +0.000 C 
ATOM      3  C   UNL     1       1.043   1.150  -0.150  0.00  0.00    +0.000 C 
ATOM      4  C   UNL     1       1.759  -0.081  -0.698  0.00  0.00    +0.000 C 
ATOM      5  C   UNL     1       1.077  -1.418  -0.459  0.00  0.00    +0.000 C 
ATOM      6  C   UNL     1       0.265  -1.542   0.818  0.00  0.00    +0.000 C 
ATOM      7  C   UNL     1      -1.162  -1.013   0.669  0.00  0.00    +0.000 C 
ATOM      8  C   UNL     1       0.607  -2.186  -1.679  0.00  0.00    +0.000 C 
ATOM      9  C   UNL     1       1.812  -2.683  -0.926  0.00  0.00    +0.000 C 
ENDROOT
BRANCH   9  10
ATOM     10  C   UNL     1       3.166  -2.619  -1.551  0.00  0.00    +0.000 C 
ATOM     11  O   UNL     1       3.280  -2.528  -2.767  0.00  0.00    +0.000 OA
BRANCH  10  12
ATOM     12  C   UNL     1       4.369  -2.690  -0.673  0.00  0.00    +0.000 A 
ATOM     13  C   UNL     1       5.634  -2.717  -1.274  0.00  0.00    +0.000 A 
ATOM     14  C   UNL     1       6.787  -2.784  -0.489  0.00  0.00    +0.000 A 
ATOM     15  C   UNL     1       6.681  -2.824   0.901  0.00  0.00    +0.000 A 
ATOM     16  C   UNL     1       5.426  -2.794   1.506  0.00  0.00    +0.000 A 
ATOM     17  C   UNL     1       4.270  -2.727   0.724  0.00  0.00    +0.000 A 
ENDBRANCH  10  12
ENDBRANCH   9  10
TORSDOF 2
