REMARK  Name = *****
REMARK  4 active torsions:
REMARK  status: ('A' for Active; 'I' for Inactive)
REMARK    1  A    between atoms: C_4  and  C_7
REMARK    2  A    between atoms: C_7  and  C_8
REMARK    3  A    between atoms: C_8  and  O_9
REMARK    4  A    between atoms: O_9  and  C_10
REMARK                            x       y       z     vdW  Elec       q    Type
REMARK                         _______ _______ _______ _____ _____    ______ ____
ROOT
ATOM      1  C   UNL     1      -3.596  -0.923  -0.306  0.00  0.00    +0.000 C 
ENDROOT
BRANCH   1   2
ATOM      2  C   UNL     1      -2.860   0.414  -0.232  0.00  0.00    +0.000 C 
BRANCH   2   6
ATOM      3  C   UNL     1       1.350  -0.169   0.478  0.00  0.00    +0.000 A 
ATOM      4  C   UNL     1       0.865  -0.107  -0.827  0.00  0.00    +0.000 A 
ATOM      5  C   UNL     1      -0.497   0.091  -1.059  0.00  0.00    +0.000 A 
ATOM      6  C   UNL     1      -1.386   0.232   0.015  0.00  0.00    +0.000 A 
ATOM      7  C   UNL     1      -0.889   0.164   1.324  0.00  0.00    +0.000 A 
ATOM      8  C   UNL     1       0.473  -0.034   1.553  0.00  0.00    +0.000 A 
ENDBRANCH   2   6
ENDBRANCH   1   2
BRANCH   1   9
ATOM      9  O   UNL     1      -4.984  -0.656  -0.518  0.00  0.00    +0.000 OA
BRANCH   9  10
ATOM     10  C   UNL     1      -5.823  -1.734  -0.577  0.00  0.00    +0.000 A 
ATOM     11  C   UNL     1      -5.443  -3.075  -0.502  0.00  0.00    +0.000 A 
ATOM     12  C   UNL     1      -6.410  -4.084  -0.576  0.00  0.00    +0.000 A 
ATOM     13  C   UNL     1      -7.755  -3.751  -0.725  0.00  0.00    +0.000 A 
ATOM     14  C   UNL     1      -8.143  -2.416  -0.803  0.00  0.00    +0.000 A 
ATOM     15  C   UNL     1      -7.175  -1.412  -0.730  0.00  0.00    +0.000 A 
ATOM     16 CL   UNL     1      -8.940  -4.994  -0.814  0.00  0.00    +0.000 Cl
ENDBRANCH   9  10
ENDBRANCH   1   9
TORSDOF 4
