REMARK  Name = *****
REMARK  2 active torsions:
REMARK  status: ('A' for Active; 'I' for Inactive)
REMARK    1  A    between atoms: P_3  and  C_11
REMARK    2  A    between atoms: C_11  and  C_12
REMARK                            x       y       z     vdW  Elec       q    Type
REMARK                         _______ _______ _______ _____ _____    ______ ____
ROOT
ATOM      1  C   UNL     1       1.048  -0.988   2.131  0.00  0.00    +0.000 C 
ATOM      2  C   UNL     1       0.705  -2.330   1.490  0.00  0.00    +0.000 C 
ATOM      3  P   UNL     1       2.202  -2.844   0.499  0.00  0.00    +0.000 P 
ATOM      4  C   UNL     1       3.045  -1.174   0.759  0.00  0.00    +0.000 C 
ATOM      5  C   UNL     1       1.910  -0.201   1.128  0.00  0.00    +0.000 C 
ATOM      6  C   UNL     1       2.335   1.115   1.719  0.00  0.00    +0.000 C 
ATOM      7  C   UNL     1       3.496   1.770   1.588  0.00  0.00    +0.000 C 
ATOM      8  C   UNL     1       4.658   1.440   0.804  0.00  0.00    +0.000 C 
ATOM      9  C   UNL     1       4.846   0.431  -0.057  0.00  0.00    +0.000 C 
ATOM     10  C   UNL     1       3.931  -0.710  -0.388  0.00  0.00    +0.000 C 
ENDROOT
BRANCH   3  11
ATOM     11  C   UNL     1       1.474  -2.724  -1.181  0.00  0.00    +0.000 C 
BRANCH  11  12
ATOM     12  C   UNL     1       2.443  -3.419  -2.106  0.00  0.00    +0.000 A 
ATOM     13  C   UNL     1       2.661  -4.807  -2.040  0.00  0.00    +0.000 A 
ATOM     14  C   UNL     1       3.526  -5.443  -2.934  0.00  0.00    +0.000 A 
ATOM     15  C   UNL     1       4.172  -4.706  -3.922  0.00  0.00    +0.000 A 
ATOM     16  C   UNL     1       3.948  -3.335  -4.023  0.00  0.00    +0.000 A 
ATOM     17  C   UNL     1       3.083  -2.699  -3.128  0.00  0.00    +0.000 A 
ENDBRANCH  11  12
ENDBRANCH   3  11
TORSDOF 2
