REMARK  Name = *****
REMARK  3 active torsions:
REMARK  status: ('A' for Active; 'I' for Inactive)
REMARK    1  A    between atoms: C_3  and  C_8
REMARK    2  A    between atoms: C_8  and  S_9
REMARK    3  A    between atoms: S_9  and  C_11
REMARK                            x       y       z     vdW  Elec       q    Type
REMARK                         _______ _______ _______ _____ _____    ______ ____
ROOT
ATOM      1  S   UNL     1       1.020   4.012   0.080  0.00  0.00    +0.000 S 
ATOM      2  O   UNL     1       0.238   4.070   1.362  0.00  0.00    +0.000 OA
ENDROOT
BRANCH   1   3
ATOM      3  C   UNL     1       2.199   5.382   0.171  0.00  0.00    +0.000 A 
ATOM      4  C   UNL     1       2.976   5.704  -0.950  0.00  0.00    +0.000 A 
ATOM      5  C   UNL     1       3.887   6.761  -0.891  0.00  0.00    +0.000 A 
ATOM      6  C   UNL     1       4.011   7.496   0.283  0.00  0.00    +0.000 A 
ATOM      7  C   UNL     1       3.239   7.197   1.399  0.00  0.00    +0.000 A 
ATOM      8  C   UNL     1       2.330   6.139   1.343  0.00  0.00    +0.000 A 
ATOM      9  F   UNL     1       4.884   8.510   0.337  0.00  0.00    +0.000 F 
ENDBRANCH   1   3
BRANCH   1  10
ATOM     10  C   UNL     1       2.239   2.660   0.237  0.00  0.00    +0.000 C 
BRANCH  10  13
ATOM     11  C   UNL     1       0.333  -0.519   1.129  0.00  0.00    +0.000 A 
ATOM     12  C   UNL     1       0.947   0.730   1.231  0.00  0.00    +0.000 A 
ATOM     13  C   UNL     1       1.589   1.305   0.123  0.00  0.00    +0.000 A 
ATOM     14  C   UNL     1       1.591   0.608  -1.095  0.00  0.00    +0.000 A 
ATOM     15  C   UNL     1       0.974  -0.640  -1.190  0.00  0.00    +0.000 A 
ATOM     16  C   UNL     1       0.347  -1.207  -0.083  0.00  0.00    +0.000 A 
ATOM     17 CL   UNL     1       0.986  -1.483  -2.691  0.00  0.00    +0.000 Cl
ENDBRANCH  10  13
ENDBRANCH   1  10
TORSDOF 3
