REMARK  Name = *****
REMARK  3 active torsions:
REMARK  status: ('A' for Active; 'I' for Inactive)
REMARK    1  A    between atoms: C_4  and  C_6
REMARK    2  A    between atoms: C_6  and  C_7
REMARK    3  A    between atoms: C_7  and  C_8
REMARK                            x       y       z     vdW  Elec       q    Type
REMARK                         _______ _______ _______ _____ _____    ______ ____
ROOT
ATOM      1  C   UNL     1      -1.121   1.197   1.847  0.00  0.00    +0.000 C 
ENDROOT
BRANCH   1   5
ATOM      2  C   UNL     1       1.134  -0.213  -0.854  0.00  0.00    +0.000 C 
ATOM      3  C   UNL     1       0.078  -1.313  -0.743  0.00  0.00    +0.000 C 
ATOM      4  C   UNL     1      -0.814  -0.925   0.432  0.00  0.00    +0.000 C 
ATOM      5  C   UNL     1      -0.682   0.594   0.511  0.00  0.00    +0.000 C 
ATOM      6  C   UNL     1       0.806   0.801   0.236  0.00  0.00    +0.000 C 
ENDBRANCH   1   5
BRANCH   1   7
ATOM      7  C   UNL     1      -2.617   1.004   2.115  0.00  0.00    +0.000 C 
BRANCH   7   8
ATOM      8  C   UNL     1      -3.062   1.687   3.369  0.00  0.00    +0.000 C 
ATOM      9  C   UNL     1      -3.913   2.716   3.463  0.00  0.00    +0.000 C 
ATOM     10  C   UNL     1      -4.112   3.148   4.877  0.00  0.00    +0.000 C 
ATOM     11  C   UNL     1      -3.511   1.991   5.672  0.00  0.00    +0.000 C 
ATOM     12  C   UNL     1      -2.565   1.263   4.717  0.00  0.00    +0.000 C 
ENDBRANCH   7   8
ENDBRANCH   1   7
TORSDOF 3
