REMARK  Name = *****
REMARK  4 active torsions:
REMARK  status: ('A' for Active; 'I' for Inactive)
REMARK    1  A    between atoms: C_1  and  C_2
REMARK    2  A    between atoms: C_2  and  C_11
REMARK    3  A    between atoms: C_4  and  C_5
REMARK    4  A    between atoms: C_14  and  C_17
REMARK                            x       y       z     vdW  Elec       q    Type
REMARK                         _______ _______ _______ _____ _____    ______ ____
ROOT
ATOM      1  C   UNL     1       0.844   0.217  -0.086  0.00  0.00    +0.000 C 
ATOM      2  C   UNL     1       2.351   0.109  -0.009  0.00  0.00    +0.000 C 
ATOM      3  C   UNL     1       3.141   0.901  -1.031  0.00  0.00    +0.000 C 
ATOM      4  C   UNL     1       3.138  -0.603  -1.121  0.00  0.00    +0.000 C 
ENDROOT
BRANCH   4   5
ATOM      5  C   UNL     1       2.437  -1.318  -2.253  0.00  0.00    +0.000 A 
ATOM      6  C   UNL     1       2.567  -0.897  -3.587  0.00  0.00    +0.000 A 
ATOM      7  C   UNL     1       1.933  -1.575  -4.632  0.00  0.00    +0.000 A 
ATOM      8  C   UNL     1       1.158  -2.700  -4.363  0.00  0.00    +0.000 A 
ATOM      9  C   UNL     1       1.024  -3.148  -3.053  0.00  0.00    +0.000 A 
ATOM     10  C   UNL     1       1.662  -2.465  -2.013  0.00  0.00    +0.000 A 
ENDBRANCH   4   5
BRANCH   2  11
ATOM     11  C   UNL     1       2.894  -0.001   1.411  0.00  0.00    +0.000 A 
ATOM     12  C   UNL     1       3.073  -1.252   2.028  0.00  0.00    +0.000 A 
ATOM     13  C   UNL     1       3.558  -1.360   3.335  0.00  0.00    +0.000 A 
ATOM     14  C   UNL     1       3.872  -0.210   4.061  0.00  0.00    +0.000 A 
ATOM     15  C   UNL     1       3.695   1.044   3.474  0.00  0.00    +0.000 A 
ATOM     16  C   UNL     1       3.209   1.142   2.166  0.00  0.00    +0.000 A 
BRANCH  14  17
ATOM     17  C   UNL     1       4.369  -0.315   5.402  0.00  0.00    +0.000 C 
ATOM     18  N   UNL     1       4.771  -0.401   6.487  0.00  0.00    +0.000 NA
ENDBRANCH  14  17
ENDBRANCH   2  11
TORSDOF 3
