REMARK  Name = *****
REMARK  3 active torsions:
REMARK  status: ('A' for Active; 'I' for Inactive)
REMARK    1  A    between atoms: C_4  and  C_7
REMARK    2  A    between atoms: C_7  and  O_8
REMARK    3  A    between atoms: O_8  and  C_9
REMARK                            x       y       z     vdW  Elec       q    Type
REMARK                         _______ _______ _______ _____ _____    ______ ____
ROOT
ATOM      1  O   UNL     1      -3.582  -0.710  -0.091  0.00  0.00    +0.000 OA
ENDROOT
BRANCH   1   2
ATOM      2  C   UNL     1      -4.940  -0.676  -0.255  0.00  0.00    +0.000 A 
ATOM      3  C   UNL     1      -5.728   0.437  -0.568  0.00  0.00    +0.000 A 
ATOM      4  C   UNL     1      -7.110   0.322  -0.705  0.00  0.00    +0.000 A 
ATOM      5  C   UNL     1      -7.708  -0.916  -0.527  0.00  0.00    +0.000 A 
ATOM      6  C   UNL     1      -6.950  -2.038  -0.214  0.00  0.00    +0.000 A 
ATOM      7  C   UNL     1      -5.566  -1.916  -0.078  0.00  0.00    +0.000 A 
ATOM      8  F   UNL     1      -9.036  -1.033  -0.658  0.00  0.00    +0.000 F 
ATOM      9  F   UNL     1      -5.188   1.651  -0.746  0.00  0.00    +0.000 F 
ENDBRANCH   1   2
BRANCH   1  10
ATOM     10  C   UNL     1      -2.866   0.511  -0.283  0.00  0.00    +0.000 C 
BRANCH  10  14
ATOM     11  C   UNL     1       1.373  -0.185   0.178  0.00  0.00    +0.000 A 
ATOM     12  C   UNL     1       0.607  -1.047  -0.604  0.00  0.00    +0.000 A 
ATOM     13  C   UNL     1      -0.764  -0.828  -0.747  0.00  0.00    +0.000 A 
ATOM     14  C   UNL     1      -1.387   0.251  -0.101  0.00  0.00    +0.000 A 
ATOM     15  C   UNL     1      -0.603   1.117   0.675  0.00  0.00    +0.000 A 
ATOM     16  C   UNL     1       0.769   0.897   0.816  0.00  0.00    +0.000 A 
ENDBRANCH  10  14
ENDBRANCH   1  10
TORSDOF 3
