REMARK  Name = *****
REMARK  4 active torsions:
REMARK  status: ('A' for Active; 'I' for Inactive)
REMARK    1  A    between atoms: C_1  and  C_2
REMARK    2  A    between atoms: C_4  and  C_16
REMARK    3  A    between atoms: C_5  and  N_9
REMARK    4  A    between atoms: C_6  and  C_8
REMARK                            x       y       z     vdW  Elec       q    Type
REMARK                         _______ _______ _______ _____ _____    ______ ____
ROOT
ATOM      1  C   UNL     1       2.080   1.971   0.302  0.00  0.00    +0.000 C 
ATOM      2  C   UNL     1       1.059   0.886   0.124  0.00  0.00    +0.000 A 
ATOM      3  C   UNL     1       1.444  -0.434  -0.121  0.00  0.00    +0.000 A 
ATOM      4  C   UNL     1       0.488  -1.440  -0.352  0.00  0.00    +0.000 A 
ATOM      5  C   UNL     1      -0.887  -1.124  -0.288  0.00  0.00    +0.000 A 
ATOM      6  C   UNL     1      -1.278   0.205  -0.031  0.00  0.00    +0.000 A 
ATOM      7  C   UNL     1      -0.302   1.198   0.160  0.00  0.00    +0.000 A 
ATOM      8  C   UNL     1      -2.726   0.616  -0.045  0.00  0.00    +0.000 C 
ATOM      9  C   UNL     1       0.975  -2.834  -0.639  0.00  0.00    +0.000 C 
ENDROOT
BRANCH   5  10
ATOM     10  N   UNL     1      -1.885  -2.079  -0.564  0.00  0.00    +0.000 NA
ATOM     11  C   UNL     1      -2.014  -3.069   0.258  0.00  0.00    +0.000 C 
ATOM     12  N   UNL     1      -2.991  -4.044   0.028  0.00  0.00    +0.000 N 
ATOM     13  C   UNL     1      -3.977  -4.024  -0.939  0.00  0.00    +0.000 A 
ATOM     14  C   UNL     1      -4.733  -5.170  -0.831  0.00  0.00    +0.000 A 
ATOM     15  C   UNL     1      -4.190  -5.931   0.228  0.00  0.00    +0.000 A 
ATOM     16  C   UNL     1      -3.131  -5.216   0.746  0.00  0.00    +0.000 A 
ENDBRANCH   5  10
TORSDOF 1
