REMARK  Name = *****
REMARK  4 active torsions:
REMARK  status: ('A' for Active; 'I' for Inactive)
REMARK    1  A    between atoms: C_1  and  C_2
REMARK    2  A    between atoms: C_5  and  C_8
REMARK    3  A    between atoms: C_8  and  C_9
REMARK    4  A    between atoms: C_9  and  C_10
REMARK                            x       y       z     vdW  Elec       q    Type
REMARK                         _______ _______ _______ _____ _____    ______ ____
ROOT
ATOM      1  C   UNL     1      -3.258  -0.036   0.032  0.00  0.00    +0.000 C 
ATOM      2 CL   UNL     1      -3.659  -0.359  -1.685  0.00  0.00    +0.000 Cl
ENDROOT
BRANCH   1   7
ATOM      3  C   UNL     1      -3.499   5.699   1.127  0.00  0.00    +0.000 C 
ATOM      4  C   UNL     1      -3.435   4.234   0.816  0.00  0.00    +0.000 A 
ATOM      5  C   UNL     1      -2.235   3.529   0.953  0.00  0.00    +0.000 A 
ATOM      6  C   UNL     1      -2.184   2.157   0.691  0.00  0.00    +0.000 A 
ATOM      7  C   UNL     1      -3.335   1.456   0.298  0.00  0.00    +0.000 A 
ATOM      8  C   UNL     1      -4.538   2.168   0.176  0.00  0.00    +0.000 A 
ATOM      9  C   UNL     1      -4.588   3.540   0.437  0.00  0.00    +0.000 A 
ENDBRANCH   1   7
BRANCH   1  10
ATOM     10  C   UNL     1      -4.152  -0.845   0.982  0.00  0.00    +0.000 C 
BRANCH  10  11
ATOM     11  C   UNL     1      -4.086  -2.371   0.818  0.00  0.00    +0.000 C 
ATOM     12  C   UNL     1      -2.679  -2.941   1.032  0.00  0.00    +0.000 C 
ATOM     13  C   UNL     1      -2.698  -4.467   1.009  0.00  0.00    +0.000 C 
ATOM     14  C   UNL     1      -3.758  -5.009   1.960  0.00  0.00    +0.000 C 
ATOM     15  C   UNL     1      -5.099  -4.341   1.699  0.00  0.00    +0.000 C 
ATOM     16  O   UNL     1      -4.980  -2.922   1.800  0.00  0.00    +0.000 OA
ENDBRANCH  10  11
ENDBRANCH   1  10
TORSDOF 3
