REMARK  Name = *****
REMARK  4 active torsions:
REMARK  status: ('A' for Active; 'I' for Inactive)
REMARK    1  A    between atoms: N_2  and  C_3
REMARK    2  A    between atoms: C_3  and  C_4
REMARK    3  A    between atoms: C_3  and  C_11
REMARK    4  A    between atoms: C_4  and  C_5
REMARK                            x       y       z     vdW  Elec       q    Type
REMARK                         _______ _______ _______ _____ _____    ______ ____
ROOT
ATOM      1  C   UNL     1       3.695   0.008   0.046  0.00  0.00    +0.000 C 
ENDROOT
BRANCH   1   2
ATOM      2  C   UNL     1       4.171  -1.266  -0.638  0.00  0.00    +0.000 A 
ATOM      3  C   UNL     1       5.384  -1.262  -1.349  0.00  0.00    +0.000 A 
ATOM      4  C   UNL     1       5.865  -2.430  -1.944  0.00  0.00    +0.000 A 
ATOM      5  C   UNL     1       5.143  -3.617  -1.837  0.00  0.00    +0.000 A 
ATOM      6  C   UNL     1       3.943  -3.639  -1.132  0.00  0.00    +0.000 A 
ATOM      7  C   UNL     1       3.462  -2.474  -0.531  0.00  0.00    +0.000 A 
ENDBRANCH   1   2
BRANCH   1   9
ATOM      8  C   UNL     1       1.090   0.230  -0.022  0.00  0.00    +0.000 C 
ATOM      9  N   UNL     1       2.258   0.120   0.013  0.00  0.00    +0.000 NA
ENDBRANCH   1   9
BRANCH   1  10
ATOM     10  C   UNL     1       4.214   0.048   1.495  0.00  0.00    +0.000 C 
BRANCH  10  11
ATOM     11  C   UNL     1       3.902   1.327   2.237  0.00  0.00    +0.000 A 
ATOM     12  C   UNL     1       3.102   1.293   3.388  0.00  0.00    +0.000 A 
ATOM     13  C   UNL     1       2.815   2.465   4.089  0.00  0.00    +0.000 A 
ATOM     14  C   UNL     1       3.324   3.684   3.648  0.00  0.00    +0.000 A 
ATOM     15  C   UNL     1       4.123   3.731   2.508  0.00  0.00    +0.000 A 
ATOM     16  C   UNL     1       4.416   2.559   1.808  0.00  0.00    +0.000 A 
ENDBRANCH  10  11
ENDBRANCH   1  10
TORSDOF 4
