REMARK  Name = *****
REMARK  5 active torsions:
REMARK  status: ('A' for Active; 'I' for Inactive)
REMARK    1  A    between atoms: C_1  and  C_2
REMARK    2  A    between atoms: C_5  and  C_8
REMARK    3  A    between atoms: C_8  and  N_10
REMARK    4  A    between atoms: N_10  and  C_11
REMARK    5  A    between atoms: N_10  and  C_12
REMARK                            x       y       z     vdW  Elec       q    Type
REMARK                         _______ _______ _______ _____ _____    ______ ____
ROOT
ATOM      1  C   UNL     1      -3.324   0.091  -0.210  0.00  0.00    +0.000 C 
ATOM      2  S   UNL     1      -4.122  -1.372  -0.525  0.00  0.00    +0.000 S 
ENDROOT
BRANCH   1   7
ATOM      3  C   UNL     1       2.381   0.111   0.943  0.00  0.00    +0.000 C 
ATOM      4  C   UNL     1       0.909   0.082   0.652  0.00  0.00    +0.000 A 
ATOM      5  C   UNL     1       0.416  -0.633  -0.446  0.00  0.00    +0.000 A 
ATOM      6  C   UNL     1      -0.952  -0.637  -0.733  0.00  0.00    +0.000 A 
ATOM      7  C   UNL     1      -1.844   0.090   0.067  0.00  0.00    +0.000 A 
ATOM      8  C   UNL     1      -1.350   0.811   1.163  0.00  0.00    +0.000 A 
ATOM      9  C   UNL     1       0.018   0.813   1.447  0.00  0.00    +0.000 A 
ENDBRANCH   1   7
BRANCH   1  10
ATOM     10  N   UNL     1      -3.996   1.331  -0.085  0.00  0.00    +0.000 N 
ATOM     11  C   UNL     1      -5.340   1.392   0.504  0.00  0.00    +0.000 C 
BRANCH  10  12
ATOM     12  C   UNL     1      -3.465   2.561  -0.627  0.00  0.00    +0.000 A 
ATOM     13  C   UNL     1      -2.521   2.551  -1.666  0.00  0.00    +0.000 A 
ATOM     14  C   UNL     1      -2.018   3.740  -2.205  0.00  0.00    +0.000 A 
ATOM     15  C   UNL     1      -2.461   4.967  -1.725  0.00  0.00    +0.000 A 
ATOM     16  C   UNL     1      -3.414   5.004  -0.713  0.00  0.00    +0.000 A 
ATOM     17  C   UNL     1      -3.916   3.812  -0.175  0.00  0.00    +0.000 A 
ENDBRANCH  10  12
ENDBRANCH   1  10
TORSDOF 3
