REMARK  Name = *****
REMARK  3 active torsions:
REMARK  status: ('A' for Active; 'I' for Inactive)
REMARK    1  A    between atoms: C_3  and  N_9
REMARK    2  A    between atoms: N_9  and  C_10
REMARK    3  A    between atoms: C_10  and  C_11
REMARK                            x       y       z     vdW  Elec       q    Type
REMARK                         _______ _______ _______ _____ _____    ______ ____
ROOT
ATOM      1  C   UNL     1       0.253  -1.179   0.640  0.00  0.00    +0.000 C 
ATOM      2  C   UNL     1       1.324  -0.138   0.434  0.00  0.00    +0.000 C 
ATOM      3  C   UNL     1       1.147   0.911  -0.383  0.00  0.00    +0.000 C 
ATOM      4  C   UNL     1      -0.072   1.050  -1.154  0.00  0.00    +0.000 C 
ATOM      5  C   UNL     1      -1.151   0.293  -0.899  0.00  0.00    +0.000 C 
ATOM      6  C   UNL     1      -1.161  -0.754   0.181  0.00  0.00    +0.000 C 
ATOM      7  F   UNL     1      -1.814  -1.863  -0.267  0.00  0.00    +0.000 F 
ATOM      8 CL   UNL     1      -2.093  -0.090   1.563  0.00  0.00    +0.000 Cl
ENDROOT
BRANCH   3   9
ATOM      9  N   UNL     1       2.120   1.835  -0.623  0.00  0.00    +0.000 NA
BRANCH   9  10
ATOM     10  C   UNL     1       2.095   2.865   0.164  0.00  0.00    +0.000 C 
BRANCH  10  11
ATOM     11  C   UNL     1       3.076   3.962   0.047  0.00  0.00    +0.000 A 
ATOM     12  C   UNL     1       4.091   3.916  -0.913  0.00  0.00    +0.000 A 
ATOM     13  C   UNL     1       5.007   4.965  -1.003  0.00  0.00    +0.000 A 
ATOM     14  C   UNL     1       4.908   6.055  -0.137  0.00  0.00    +0.000 A 
ATOM     15  C   UNL     1       3.894   6.100   0.820  0.00  0.00    +0.000 A 
ATOM     16  C   UNL     1       2.975   5.053   0.915  0.00  0.00    +0.000 A 
ENDBRANCH  10  11
ENDBRANCH   9  10
ENDBRANCH   3   9
TORSDOF 3
