REMARK  Name = *****
REMARK  3 active torsions:
REMARK  status: ('A' for Active; 'I' for Inactive)
REMARK    1  A    between atoms: C_1  and  C_2
REMARK    2  A    between atoms: C_5  and  C_7
REMARK    3  A    between atoms: N_8  and  C_9
REMARK                            x       y       z     vdW  Elec       q    Type
REMARK                         _______ _______ _______ _____ _____    ______ ____
ROOT
ATOM      1  C   UNL     1      -5.316   0.581  -0.002  0.00  0.00    +0.000 A 
ATOM      2  C   UNL     1      -5.640   1.737  -0.730  0.00  0.00    +0.000 A 
ATOM      3  C   UNL     1      -6.906   2.304  -0.641  0.00  0.00    +0.000 A 
ATOM      4  C   UNL     1      -7.870   1.716   0.166  0.00  0.00    +0.000 A 
ATOM      5  C   UNL     1      -7.582   0.562   0.886  0.00  0.00    +0.000 A 
ATOM      6  C   UNL     1      -6.308  -0.006   0.796  0.00  0.00    +0.000 A 
ATOM      7  F   UNL     1      -9.092   2.257   0.258  0.00  0.00    +0.000 F 
ATOM      8  F   UNL     1      -7.194   3.416  -1.332  0.00  0.00    +0.000 F 
ATOM      9  F   UNL     1      -4.717   2.314  -1.517  0.00  0.00    +0.000 F 
ENDROOT
BRANCH   1  11
ATOM     10  C   UNL     1      -3.003   0.652   0.105  0.00  0.00    +0.000 C 
ATOM     11  N   UNL     1      -4.068  -0.065  -0.076  0.00  0.00    +0.000 NA
BRANCH  10  16
ATOM     12  C   UNL     1       2.220  -0.109   0.165  0.00  0.00    +0.000 C 
ATOM     13  C   UNL     1       0.747  -0.308   0.061  0.00  0.00    +0.000 A 
ATOM     14  C   UNL     1       0.054  -1.468  -0.216  0.00  0.00    +0.000 A 
ATOM     15  C   UNL     1      -1.356  -1.262  -0.233  0.00  0.00    +0.000 A 
ATOM     16  C   UNL     1      -1.695   0.049   0.032  0.00  0.00    +0.000 A 
ATOM     17  S   UNL     1      -0.312   1.016   0.298  0.00  0.00    +0.000 S 
ENDBRANCH  10  16
ENDBRANCH   1  11
TORSDOF 2
