REMARK  Name = *****
REMARK  5 active torsions:
REMARK  status: ('A' for Active; 'I' for Inactive)
REMARK    1  A    between atoms: C_1  and  C_2
REMARK    2  A    between atoms: C_2  and  C_3
REMARK    3  A    between atoms: C_2  and  O_10
REMARK    4  A    between atoms: O_10  and  C_11
REMARK    5  A    between atoms: C_11  and  C_13
REMARK                            x       y       z     vdW  Elec       q    Type
REMARK                         _______ _______ _______ _____ _____    ______ ____
ROOT
ATOM      1  C   UNL     1       1.145  -0.022   0.018  0.00  0.00    +0.000 C 
ATOM      2  C   UNL     1       2.664  -0.175  -0.045  0.00  0.00    +0.000 C 
ENDROOT
BRANCH   2   3
ATOM      3  C   UNL     1       3.061  -1.637  -0.158  0.00  0.00    +0.000 A 
ATOM      4  C   UNL     1       2.803  -2.374  -1.326  0.00  0.00    +0.000 A 
ATOM      5  C   UNL     1       3.167  -3.720  -1.415  0.00  0.00    +0.000 A 
ATOM      6  C   UNL     1       3.793  -4.339  -0.337  0.00  0.00    +0.000 A 
ATOM      7  C   UNL     1       4.057  -3.626   0.830  0.00  0.00    +0.000 A 
ATOM      8  C   UNL     1       3.692  -2.280   0.919  0.00  0.00    +0.000 A 
ATOM      9 CL   UNL     1       4.243  -5.996  -0.446  0.00  0.00    +0.000 Cl
ENDBRANCH   2   3
BRANCH   2  10
ATOM     10  O   UNL     1       3.179   0.504  -1.205  0.00  0.00    +0.000 OA
BRANCH  10  11
ATOM     11  C   UNL     1       3.391   1.834  -1.063  0.00  0.00    +0.000 C 
ATOM     12  O   UNL     1       3.160   2.494  -0.063  0.00  0.00    +0.000 OA
BRANCH  11  13
ATOM     13  C   UNL     1       3.947   2.408  -2.319  0.00  0.00    +0.000 A 
ATOM     14  C   UNL     1       4.140   3.795  -2.383  0.00  0.00    +0.000 A 
ATOM     15  C   UNL     1       4.660   4.382  -3.538  0.00  0.00    +0.000 A 
ATOM     16  C   UNL     1       4.992   3.586  -4.634  0.00  0.00    +0.000 A 
ATOM     17  C   UNL     1       4.806   2.206  -4.578  0.00  0.00    +0.000 A 
ATOM     18  C   UNL     1       4.285   1.615  -3.424  0.00  0.00    +0.000 A 
ENDBRANCH  11  13
ENDBRANCH  10  11
ENDBRANCH   2  10
TORSDOF 4
