REMARK  Name = *****
REMARK  5 active torsions:
REMARK  status: ('A' for Active; 'I' for Inactive)
REMARK    1  A    between atoms: C_1  and  O_2
REMARK    2  A    between atoms: O_2  and  C_3
REMARK    3  A    between atoms: C_7  and  C_9
REMARK    4  A    between atoms: C_10  and  C_11
REMARK    5  A    between atoms: C_14  and  N_17
REMARK                            x       y       z     vdW  Elec       q    Type
REMARK                         _______ _______ _______ _____ _____    ______ ____
ROOT
ATOM      1  C   UNL     1       6.181   0.072  -3.228  0.00  0.00    +0.000 C 
ATOM      2  C   UNL     1       7.046   0.682  -4.056  0.00  0.00    +0.000 C 
ENDROOT
BRANCH   1   7
ATOM      3  C   UNL     1       3.270   0.953  -0.992  0.00  0.00    +0.000 A 
ATOM      4  C   UNL     1       2.525   1.798  -1.813  0.00  0.00    +0.000 A 
ATOM      5  C   UNL     1       2.964   2.077  -3.109  0.00  0.00    +0.000 A 
ATOM      6  C   UNL     1       4.152   1.520  -3.585  0.00  0.00    +0.000 A 
ATOM      7  C   UNL     1       4.925   0.687  -2.768  0.00  0.00    +0.000 A 
ATOM      8  C   UNL     1       4.459   0.396  -1.478  0.00  0.00    +0.000 A 
BRANCH   3  10
ATOM      9  C   UNL     1       1.800   1.201   0.860  0.00  0.00    +0.000 C 
ATOM     10  O   UNL     1       2.950   0.591   0.288  0.00  0.00    +0.000 OA
ENDBRANCH   3  10
ENDBRANCH   1   7
BRANCH   2  11
ATOM     11  C   UNL     1       8.328   0.120  -4.512  0.00  0.00    +0.000 A 
ATOM     12  C   UNL     1       8.559  -1.260  -4.630  0.00  0.00    +0.000 A 
ATOM     13  C   UNL     1       9.785  -1.740  -5.100  0.00  0.00    +0.000 A 
ATOM     14  C   UNL     1      10.776  -0.833  -5.464  0.00  0.00    +0.000 A 
ATOM     15  C   UNL     1      10.570   0.540  -5.371  0.00  0.00    +0.000 A 
ATOM     16  C   UNL     1       9.343   1.011  -4.899  0.00  0.00    +0.000 A 
BRANCH  14  17
ATOM     17  N   UNL     1      11.992  -1.306  -5.936  0.00  0.00    +0.000 NA
ATOM     18  C   UNL     1      13.020  -1.703  -6.336  0.00  0.00    +0.000 C 
ENDBRANCH  14  17
ENDBRANCH   2  11
TORSDOF 4
