REMARK  Name = *****
REMARK  4 active torsions:
REMARK  status: ('A' for Active; 'I' for Inactive)
REMARK    1  A    between atoms: C_4  and  C_7
REMARK    2  A    between atoms: C_7  and  C_9
REMARK    3  A    between atoms: C_9  and  C_10
REMARK    4  A    between atoms: C_10  and  C_11
REMARK                            x       y       z     vdW  Elec       q    Type
REMARK                         _______ _______ _______ _____ _____    ______ ____
ROOT
ATOM      1  C   UNL     1      -3.756  -0.705  -0.405  0.00  0.00    +0.000 C 
ENDROOT
BRANCH   1   2
ATOM      2  C   UNL     1      -2.774   0.450  -0.473  0.00  0.00    +0.000 C 
ATOM      3  O   UNL     1      -3.115   1.578  -0.825  0.00  0.00    +0.000 OA
BRANCH   2   7
ATOM      4  C   UNL     1       1.356  -0.179   0.537  0.00  0.00    +0.000 A 
ATOM      5  C   UNL     1       0.467  -1.252   0.596  0.00  0.00    +0.000 A 
ATOM      6  C   UNL     1      -0.880  -1.067   0.272  0.00  0.00    +0.000 A 
ATOM      7  C   UNL     1      -1.345   0.197  -0.113  0.00  0.00    +0.000 A 
ATOM      8  C   UNL     1      -0.443   1.269  -0.169  0.00  0.00    +0.000 A 
ATOM      9  C   UNL     1       0.902   1.081   0.154  0.00  0.00    +0.000 A 
ENDBRANCH   2   7
ENDBRANCH   1   2
BRANCH   1  10
ATOM     10  C   UNL     1      -5.179  -0.259  -0.746  0.00  0.00    +0.000 C 
BRANCH  10  11
ATOM     11  C   UNL     1      -6.141  -1.419  -0.747  0.00  0.00    +0.000 A 
ATOM     12  C   UNL     1      -6.570  -1.995  -1.950  0.00  0.00    +0.000 A 
ATOM     13  C   UNL     1      -7.453  -3.078  -1.940  0.00  0.00    +0.000 A 
ATOM     14  C   UNL     1      -7.914  -3.598  -0.730  0.00  0.00    +0.000 A 
ATOM     15  C   UNL     1      -7.490  -3.036   0.472  0.00  0.00    +0.000 A 
ATOM     16  C   UNL     1      -6.610  -1.957   0.456  0.00  0.00    +0.000 A 
ATOM     17  F   UNL     1      -6.204  -1.436   1.623  0.00  0.00    +0.000 F 
ENDBRANCH  10  11
ENDBRANCH   1  10
TORSDOF 4
