REMARK  Name = *****
REMARK  7 active torsions:
REMARK  status: ('A' for Active; 'I' for Inactive)
REMARK    1  A    between atoms: C_1  and  C_2
REMARK    2  A    between atoms: C_5  and  C_8
REMARK    3  A    between atoms: C_8  and  C_9
REMARK    4  A    between atoms: C_8  and  S_18
REMARK    5  A    between atoms: C_9  and  C_10
REMARK    6  A    between atoms: C_9  and  S_17
REMARK    7  A    between atoms: C_13  and  C_16
REMARK                            x       y       z     vdW  Elec       q    Type
REMARK                         _______ _______ _______ _____ _____    ______ ____
ROOT
ATOM      1  C   UNL     1      -3.243   0.577  -0.206  0.00  0.00    +0.000 C 
ENDROOT
BRANCH   1   6
ATOM      2  C   UNL     1       2.555   0.036   0.418  0.00  0.00    +0.000 C 
ATOM      3  C   UNL     1       1.066   0.160   0.282  0.00  0.00    +0.000 A 
ATOM      4  C   UNL     1       0.344   0.995   1.138  0.00  0.00    +0.000 A 
ATOM      5  C   UNL     1      -1.039   1.141   0.991  0.00  0.00    +0.000 A 
ATOM      6  C   UNL     1      -1.732   0.463  -0.023  0.00  0.00    +0.000 A 
ATOM      7  C   UNL     1      -0.995  -0.363  -0.888  0.00  0.00    +0.000 A 
ATOM      8  C   UNL     1       0.388  -0.508  -0.741  0.00  0.00    +0.000 A 
ENDBRANCH   1   6
BRANCH   1   9
ATOM      9  S   UNL     1      -3.756   2.318  -0.526  0.00  0.00    +0.000 S 
ATOM     10  H   UNL     1      -3.464   3.083   0.560  0.00  0.00    +0.000 HD
ENDBRANCH   1   9
BRANCH   1  11
ATOM     11  C   UNL     1      -4.062  -0.196   0.879  0.00  0.00    +0.000 C 
BRANCH  11  12
ATOM     12  C   UNL     1      -4.003   0.339   2.305  0.00  0.00    +0.000 A 
ATOM     13  C   UNL     1      -4.718   1.470   2.730  0.00  0.00    +0.000 A 
ATOM     14  C   UNL     1      -4.612   1.937   4.044  0.00  0.00    +0.000 A 
ATOM     15  C   UNL     1      -3.784   1.291   4.965  0.00  0.00    +0.000 A 
ATOM     16  C   UNL     1      -3.085   0.152   4.560  0.00  0.00    +0.000 A 
ATOM     17  C   UNL     1      -3.190  -0.316   3.247  0.00  0.00    +0.000 A 
ATOM     18  C   UNL     1      -3.703   1.773   6.383  0.00  0.00    +0.000 C 
ENDBRANCH  11  12
BRANCH  11  19
ATOM     19  S   UNL     1      -5.807  -0.481   0.339  0.00  0.00    +0.000 S 
ATOM     20  H   UNL     1      -6.456   0.711   0.254  0.00  0.00    +0.000 HD
ENDBRANCH  11  19
ENDBRANCH   1  11
TORSDOF 5
