REMARK  Name = *****
REMARK  4 active torsions:
REMARK  status: ('A' for Active; 'I' for Inactive)
REMARK    1  A    between atoms: C_4  and  C_7
REMARK    2  A    between atoms: C_7  and  C_8
REMARK    3  A    between atoms: C_8  and  C_9
REMARK    4  A    between atoms: C_11  and  C_15
REMARK                            x       y       z     vdW  Elec       q    Type
REMARK                         _______ _______ _______ _____ _____    ______ ____
ROOT
ATOM      1  C   UNL     1      -5.071  -0.598  -0.502  0.00  0.00    +0.000 A 
ATOM      2  C   UNL     1      -5.620  -0.410  -1.779  0.00  0.00    +0.000 A 
ATOM      3  C   UNL     1      -6.991  -0.158  -1.944  0.00  0.00    +0.000 A 
ATOM      4  C   UNL     1      -7.811  -0.094  -0.807  0.00  0.00    +0.000 A 
ATOM      5  C   UNL     1      -7.271  -0.273   0.466  0.00  0.00    +0.000 A 
ATOM      6  C   UNL     1      -5.907  -0.522   0.617  0.00  0.00    +0.000 A 
ENDROOT
BRANCH   3   7
ATOM      7  C   UNL     1      -7.590   0.038  -3.315  0.00  0.00    +0.000 C 
ATOM      8  F   UNL     1      -6.671   0.021  -4.321  0.00  0.00    +0.000 F 
ATOM      9  F   UNL     1      -8.502  -0.925  -3.628  0.00  0.00    +0.000 F 
ATOM     10  F   UNL     1      -8.247   1.225  -3.433  0.00  0.00    +0.000 F 
ENDBRANCH   3   7
BRANCH   1  11
ATOM     11  C   UNL     1      -3.591  -0.846  -0.336  0.00  0.00    +0.000 C 
BRANCH  11  12
ATOM     12  C   UNL     1      -2.811   0.464  -0.194  0.00  0.00    +0.000 C 
BRANCH  12  16
ATOM     13  C   UNL     1       1.409  -0.294   0.265  0.00  0.00    +0.000 A 
ATOM     14  C   UNL     1       0.868  -0.110  -1.006  0.00  0.00    +0.000 A 
ATOM     15  C   UNL     1      -0.497   0.140  -1.155  0.00  0.00    +0.000 A 
ATOM     16  C   UNL     1      -1.332   0.215  -0.032  0.00  0.00    +0.000 A 
ATOM     17  C   UNL     1      -0.779   0.023   1.241  0.00  0.00    +0.000 A 
ATOM     18  C   UNL     1       0.586  -0.227   1.388  0.00  0.00    +0.000 A 
ENDBRANCH  12  16
ENDBRANCH  11  12
ENDBRANCH   1  11
TORSDOF 4
