REMARK  Name = *****
REMARK  3 active torsions:
REMARK  status: ('A' for Active; 'I' for Inactive)
REMARK    1  A    between atoms: C_4  and  C_6
REMARK    2  A    between atoms: C_6  and  S_8
REMARK    3  A    between atoms: S_8  and  C_9
REMARK                            x       y       z     vdW  Elec       q    Type
REMARK                         _______ _______ _______ _____ _____    ______ ____
ROOT
ATOM      1  S   UNL     1       1.248  -3.901   0.064  0.00  0.00    +0.000 S 
ENDROOT
BRANCH   1   2
ATOM      2  C   UNL     1       0.457  -5.490  -0.066  0.00  0.00    +0.000 A 
ATOM      3  C   UNL     1       0.206  -6.054  -1.322  0.00  0.00    +0.000 A 
ATOM      4  C   UNL     1      -0.395  -7.312  -1.423  0.00  0.00    +0.000 A 
ATOM      5  C   UNL     1      -0.739  -8.008  -0.266  0.00  0.00    +0.000 A 
ATOM      6  C   UNL     1      -0.486  -7.460   0.990  0.00  0.00    +0.000 A 
ATOM      7  C   UNL     1       0.116  -6.202   1.089  0.00  0.00    +0.000 A 
ATOM      8 BR   UNL     1      -1.552  -9.709  -0.401  0.00  0.00    +0.000 Br
ENDBRANCH   1   2
BRANCH   1   9
ATOM      9  C   UNL     1      -0.137  -2.799  -0.043  0.00  0.00    +0.000 C 
ATOM     10  O   UNL     1      -1.283  -3.232  -0.084  0.00  0.00    +0.000 OA
BRANCH   9  14
ATOM     11  C   UNL     1       1.361   0.670  -0.084  0.00  0.00    +0.000 A 
ATOM     12  C   UNL     1       0.053   1.088  -0.156  0.00  0.00    +0.000 A 
ATOM     13  S   UNL     1      -1.038  -0.223  -0.165  0.00  0.00    +0.000 S 
ATOM     14  C   UNL     1       0.230  -1.387  -0.070  0.00  0.00    +0.000 A 
ATOM     15  C   UNL     1       1.464  -0.753  -0.035  0.00  0.00    +0.000 A 
ENDBRANCH   9  14
ENDBRANCH   1   9
TORSDOF 3
