REMARK  Name = *****
REMARK  2 active torsions:
REMARK  status: ('A' for Active; 'I' for Inactive)
REMARK    1  A    between atoms: C_5  and  C_7
REMARK    2  A    between atoms: C_7  and  N_8
REMARK                            x       y       z     vdW  Elec       q    Type
REMARK                         _______ _______ _______ _____ _____    ______ ____
ROOT
ATOM      1  N   UNL     1      -1.825  -2.640  -0.127  0.00  0.00    +0.000 N 
ATOM      2  C   UNL     1      -2.458  -2.423  -1.371  0.00  0.00    +0.000 A 
ATOM      3  C   UNL     1      -1.846  -2.156  -2.588  0.00  0.00    +0.000 A 
ATOM      4  C   UNL     1      -2.649  -1.969  -3.718  0.00  0.00    +0.000 A 
ATOM      5  C   UNL     1      -4.045  -2.051  -3.625  0.00  0.00    +0.000 A 
ATOM      6  C   UNL     1      -4.656  -2.321  -2.400  0.00  0.00    +0.000 A 
ATOM      7  C   UNL     1      -3.849  -2.504  -1.287  0.00  0.00    +0.000 A 
ATOM      8  S   UNL     1      -4.365  -2.859   0.366  0.00  0.00    +0.000 S 
ATOM      9  C   UNL     1      -2.686  -2.892   0.931  0.00  0.00    +0.000 A 
ATOM     10  O   UNL     1      -2.385  -3.097   2.097  0.00  0.00    +0.000 OA
ENDROOT
BRANCH   1  11
ATOM     11  C   UNL     1      -0.386  -2.605   0.060  0.00  0.00    +0.000 C 
BRANCH  11  16
ATOM     12  C   UNL     1       0.135   1.045   1.061  0.00  0.00    +0.000 A 
ATOM     13  C   UNL     1       1.233   1.414   0.291  0.00  0.00    +0.000 A 
ATOM     14  C   UNL     1       1.824   0.482  -0.559  0.00  0.00    +0.000 A 
ATOM     15  C   UNL     1       1.315  -0.819  -0.649  0.00  0.00    +0.000 A 
ATOM     16  C   UNL     1       0.191  -1.204   0.102  0.00  0.00    +0.000 A 
ATOM     17  C   UNL     1      -0.376  -0.252   0.973  0.00  0.00    +0.000 A 
ATOM     18 CL   UNL     1       2.139  -1.910  -1.707  0.00  0.00    +0.000 Cl
ENDBRANCH  11  16
ENDBRANCH   1  11
TORSDOF 2
