REMARK  Name = *****
REMARK  4 active torsions:
REMARK  status: ('A' for Active; 'I' for Inactive)
REMARK    1  A    between atoms: C_1  and  C_11
REMARK    2  A    between atoms: C_2  and  C_3
REMARK    3  A    between atoms: C_3  and  C_4
REMARK    4  A    between atoms: C_7  and  C_10
REMARK                            x       y       z     vdW  Elec       q    Type
REMARK                         _______ _______ _______ _____ _____    ______ ____
ROOT
ATOM      1  C   UNL     1       1.981   1.053  -1.000  0.00  0.00    +0.000 C 
ATOM      2  C   UNL     1       3.232   1.001  -0.514  0.00  0.00    +0.000 C 
ENDROOT
BRANCH   1   3
ATOM      3  C   UNL     1       1.633   0.970  -2.418  0.00  0.00    +0.000 A 
ATOM      4  C   UNL     1       1.101  -0.217  -2.934  0.00  0.00    +0.000 A 
ATOM      5  C   UNL     1       0.771  -0.309  -4.287  0.00  0.00    +0.000 A 
ATOM      6  C   UNL     1       0.969   0.785  -5.130  0.00  0.00    +0.000 A 
ATOM      7  C   UNL     1       1.496   1.971  -4.620  0.00  0.00    +0.000 A 
ATOM      8  C   UNL     1       1.826   2.065  -3.267  0.00  0.00    +0.000 A 
ENDBRANCH   1   3
BRANCH   2   9
ATOM      9  C   UNL     1       4.510   0.846  -1.295  0.00  0.00    +0.000 C 
BRANCH   9  10
ATOM     10  C   UNL     1       5.263  -0.406  -0.913  0.00  0.00    +0.000 A 
ATOM     11  C   UNL     1       4.861  -1.652  -1.413  0.00  0.00    +0.000 A 
ATOM     12  C   UNL     1       5.547  -2.815  -1.058  0.00  0.00    +0.000 A 
ATOM     13  C   UNL     1       6.641  -2.756  -0.186  0.00  0.00    +0.000 A 
ATOM     14  C   UNL     1       7.050  -1.512   0.307  0.00  0.00    +0.000 A 
ATOM     15  C   UNL     1       6.362  -0.348  -0.046  0.00  0.00    +0.000 A 
ATOM     16  C   UNL     1       7.398  -4.002   0.163  0.00  0.00    +0.000 C 
ENDBRANCH   9  10
ENDBRANCH   2   9
TORSDOF 3
