REMARK  Name = *****
REMARK  5 active torsions:
REMARK  status: ('A' for Active; 'I' for Inactive)
REMARK    1  A    between atoms: C_1  and  C_2
REMARK    2  A    between atoms: C_5  and  C_16
REMARK    3  A    between atoms: C_6  and  C_8
REMARK    4  A    between atoms: C_9  and  C_10
REMARK    5  A    between atoms: C_16  and  C_18
REMARK                            x       y       z     vdW  Elec       q    Type
REMARK                         _______ _______ _______ _____ _____    ______ ____
ROOT
ATOM      1  C   UNL     1       2.411   0.105  -0.223  0.00  0.00    +0.000 C 
ATOM      2  C   UNL     1       0.981   0.094   0.300  0.00  0.00    +0.000 C 
ATOM      3  C   UNL     1       0.243   1.374  -0.092  0.00  0.00    +0.000 C 
ATOM      4  C   UNL     1      -1.214   1.310   0.357  0.00  0.00    +0.000 C 
ATOM      5  C   UNL     1      -1.885   0.021  -0.152  0.00  0.00    +0.000 C 
ATOM      6  C   UNL     1      -1.016  -1.207   0.237  0.00  0.00    +0.000 C 
ATOM      7  O   UNL     1       0.321  -1.043  -0.260  0.00  0.00    +0.000 OA
ENDROOT
BRANCH   5   8
ATOM      8  C   UNL     1      -3.343  -0.058   0.300  0.00  0.00    +0.000 C 
ATOM      9  C   UNL     1      -4.347  -0.006  -0.593  0.00  0.00    +0.000 C 
ATOM     10  C   UNL     1      -3.632  -0.206   1.770  0.00  0.00    +0.000 C 
ENDBRANCH   5   8
BRANCH   6  11
ATOM     11  C   UNL     1      -1.525  -2.484  -0.376  0.00  0.00    +0.000 C 
ATOM     12  C   UNL     1      -1.958  -3.541   0.331  0.00  0.00    +0.000 C 
BRANCH  12  13
ATOM     13  C   UNL     1      -2.460  -4.783  -0.270  0.00  0.00    +0.000 A 
ATOM     14  C   UNL     1      -2.185  -6.003   0.361  0.00  0.00    +0.000 A 
ATOM     15  C   UNL     1      -2.673  -7.202  -0.164  0.00  0.00    +0.000 A 
ATOM     16  C   UNL     1      -3.453  -7.192  -1.318  0.00  0.00    +0.000 A 
ATOM     17  C   UNL     1      -3.749  -5.984  -1.946  0.00  0.00    +0.000 A 
ATOM     18  C   UNL     1      -3.259  -4.785  -1.421  0.00  0.00    +0.000 A 
ENDBRANCH  12  13
ENDBRANCH   6  11
TORSDOF 3
