REMARK  Name = *****
REMARK  3 active torsions:
REMARK  status: ('A' for Active; 'I' for Inactive)
REMARK    1  A    between atoms: C_4  and  N_7
REMARK    2  A    between atoms: N_7  and  S_8
REMARK    3  A    between atoms: S_8  and  C_10
REMARK                            x       y       z     vdW  Elec       q    Type
REMARK                         _______ _______ _______ _____ _____    ______ ____
ROOT
ATOM      1  S   UNL     1      -3.913  -0.800  -1.150  0.00  0.00    +0.000 S 
ATOM      2  O   UNL     1      -3.779  -2.281  -0.966  0.00  0.00    +0.000 OA
ENDROOT
BRANCH   1   3
ATOM      3  C   UNL     1      -5.482  -0.324  -0.377  0.00  0.00    +0.000 A 
ATOM      4  C   UNL     1      -6.151  -1.243   0.446  0.00  0.00    +0.000 A 
ATOM      5  C   UNL     1      -7.369  -0.913   1.044  0.00  0.00    +0.000 A 
ATOM      6  C   UNL     1      -7.934   0.340   0.824  0.00  0.00    +0.000 A 
ATOM      7  C   UNL     1      -7.283   1.263   0.006  0.00  0.00    +0.000 A 
ATOM      8  C   UNL     1      -6.062   0.935  -0.595  0.00  0.00    +0.000 A 
ATOM      9 CL   UNL     1      -5.314   2.141  -1.584  0.00  0.00    +0.000 Cl
ENDBRANCH   1   3
BRANCH   1  10
ATOM     10  N   UNL     1      -2.982   0.025  -0.026  0.00  0.00    +0.000 N 
ATOM     11  H   UNL     1      -3.437   0.587   0.643  0.00  0.00    +0.000 HD
BRANCH  10  15
ATOM     12  C   UNL     1       1.244  -0.142   0.242  0.00  0.00    +0.000 A 
ATOM     13  C   UNL     1       0.564  -1.154  -0.428  0.00  0.00    +0.000 A 
ATOM     14  C   UNL     1      -0.830  -1.114  -0.537  0.00  0.00    +0.000 A 
ATOM     15  C   UNL     1      -1.570  -0.052  -0.000  0.00  0.00    +0.000 A 
ATOM     16  C   UNL     1      -0.865   0.939   0.706  0.00  0.00    +0.000 A 
ATOM     17  C   UNL     1       0.528   0.904   0.816  0.00  0.00    +0.000 A 
ENDBRANCH  10  15
ENDBRANCH   1  10
TORSDOF 3
