REMARK  Name = *****
REMARK  4 active torsions:
REMARK  status: ('A' for Active; 'I' for Inactive)
REMARK    1  A    between atoms: C_1  and  C_2
REMARK    2  A    between atoms: C_3  and  C_16
REMARK    3  A    between atoms: C_5  and  N_8
REMARK    4  A    between atoms: C_9  and  C_10
REMARK                            x       y       z     vdW  Elec       q    Type
REMARK                         _______ _______ _______ _____ _____    ______ ____
ROOT
ATOM      1  C   UNL     1       1.856   1.471  -0.042  0.00  0.00    +0.000 C 
ATOM      2  C   UNL     1       0.544   0.758   0.132  0.00  0.00    +0.000 A 
ATOM      3  C   UNL     1       0.416  -0.622  -0.128  0.00  0.00    +0.000 A 
ATOM      4  C   UNL     1      -0.832  -1.242   0.057  0.00  0.00    +0.000 A 
ATOM      5  C   UNL     1      -1.944  -0.516   0.488  0.00  0.00    +0.000 A 
ATOM      6  C   UNL     1      -1.804   0.842   0.765  0.00  0.00    +0.000 A 
ATOM      7  C   UNL     1      -0.574   1.476   0.585  0.00  0.00    +0.000 A 
ATOM      8  C   UNL     1       1.583  -1.445  -0.597  0.00  0.00    +0.000 C 
ENDROOT
BRANCH   5   9
ATOM      9  N   UNL     1      -3.176  -1.157   0.676  0.00  0.00    +0.000 NA
ATOM     10  C   UNL     1      -3.981  -1.136  -0.339  0.00  0.00    +0.000 C 
BRANCH  10  11
ATOM     11  C   UNL     1      -5.314  -1.768  -0.294  0.00  0.00    +0.000 A 
ATOM     12  C   UNL     1      -5.756  -2.426   0.858  0.00  0.00    +0.000 A 
ATOM     13  C   UNL     1      -7.020  -3.016   0.877  0.00  0.00    +0.000 A 
ATOM     14  C   UNL     1      -7.839  -2.948  -0.251  0.00  0.00    +0.000 A 
ATOM     15  C   UNL     1      -7.397  -2.290  -1.400  0.00  0.00    +0.000 A 
ATOM     16  C   UNL     1      -6.133  -1.698  -1.424  0.00  0.00    +0.000 A 
ENDBRANCH  10  11
ENDBRANCH   5   9
TORSDOF 2
