REMARK  Name = *****
REMARK  6 active torsions:
REMARK  status: ('A' for Active; 'I' for Inactive)
REMARK    1  A    between atoms: C_1  and  C_2
REMARK    2  A    between atoms: C_5  and  N_8
REMARK    3  A    between atoms: N_8  and  N_9
REMARK    4  A    between atoms: N_9  and  C_10
REMARK    5  A    between atoms: N_9  and  C_11
REMARK    6  A    between atoms: C_14  and  C_17
REMARK                            x       y       z     vdW  Elec       q    Type
REMARK                         _______ _______ _______ _____ _____    ______ ____
ROOT
ATOM      1  N   UNL     1      -3.400   0.193   0.468  0.00  0.00    +0.000 N 
ATOM      2  H   UNL     1      -3.125   0.361   1.398  0.00  0.00    +0.000 HD
ENDROOT
BRANCH   1   7
ATOM      3  C   UNL     1      -1.721  -4.773  -1.866  0.00  0.00    +0.000 C 
ATOM      4  C   UNL     1      -2.159  -3.468  -1.273  0.00  0.00    +0.000 A 
ATOM      5  C   UNL     1      -2.759  -2.483  -2.063  0.00  0.00    +0.000 A 
ATOM      6  C   UNL     1      -3.176  -1.276  -1.494  0.00  0.00    +0.000 A 
ATOM      7  C   UNL     1      -3.030  -1.036  -0.123  0.00  0.00    +0.000 A 
ATOM      8  C   UNL     1      -2.402  -2.014   0.657  0.00  0.00    +0.000 A 
ATOM      9  C   UNL     1      -1.981  -3.222   0.093  0.00  0.00    +0.000 A 
ENDBRANCH   1   7
BRANCH   1  10
ATOM     10  N   UNL     1      -4.122   1.165  -0.180  0.00  0.00    +0.000 N 
ATOM     11  C   UNL     1      -3.358   2.311  -0.673  0.00  0.00    +0.000 C 
BRANCH  10  12
ATOM     12  C   UNL     1      -5.533   1.206  -0.192  0.00  0.00    +0.000 A 
ATOM     13  C   UNL     1      -6.286   0.153   0.356  0.00  0.00    +0.000 A 
ATOM     14  C   UNL     1      -7.687   0.158   0.348  0.00  0.00    +0.000 A 
ATOM     15  C   UNL     1      -8.387   1.229  -0.207  0.00  0.00    +0.000 A 
ATOM     16  C   UNL     1      -7.662   2.278  -0.773  0.00  0.00    +0.000 A 
ATOM     17  C   UNL     1      -6.259   2.266  -0.760  0.00  0.00    +0.000 A 
ATOM     18  C   UNL     1      -9.885   1.215  -0.255  0.00  0.00    +0.000 C 
ENDBRANCH  10  12
ENDBRANCH   1  10
TORSDOF 3
