REMARK  Name = *****
REMARK  3 active torsions:
REMARK  status: ('A' for Active; 'I' for Inactive)
REMARK    1  A    between atoms: C_1  and  C_2
REMARK    2  A    between atoms: C_3  and  C_7
REMARK    3  A    between atoms: C_7  and  C_8
REMARK                            x       y       z     vdW  Elec       q    Type
REMARK                         _______ _______ _______ _____ _____    ______ ____
ROOT
ATOM      1  C   UNL     1       1.944  -2.804  -0.013  0.00  0.00    +0.000 C 
ATOM      2  C   UNL     1       2.661  -3.473  -0.936  0.00  0.00    +0.000 C 
ATOM      3  C   UNL     1       4.112  -3.632  -0.559  0.00  0.00    +0.000 C 
ATOM      4  C   UNL     1       4.148  -2.903   0.746  0.00  0.00    +0.000 A 
ATOM      5  C   UNL     1       5.234  -2.678   1.577  0.00  0.00    +0.000 A 
ATOM      6  C   UNL     1       5.024  -1.951   2.750  0.00  0.00    +0.000 A 
ATOM      7  C   UNL     1       3.747  -1.465   3.069  0.00  0.00    +0.000 A 
ATOM      8  C   UNL     1       2.659  -1.698   2.221  0.00  0.00    +0.000 A 
ATOM      9  C   UNL     1       2.868  -2.422   1.058  0.00  0.00    +0.000 A 
ENDROOT
BRANCH   1  10
ATOM     10  C   UNL     1       0.498  -2.423  -0.068  0.00  0.00    +0.000 C 
BRANCH  10  13
ATOM     11  C   UNL     1      -1.107  -4.780  -1.523  0.00  0.00    +0.000 C 
ATOM     12  C   UNL     1      -1.173  -4.434  -0.071  0.00  0.00    +0.000 A 
ATOM     13  C   UNL     1      -0.467  -3.409   0.547  0.00  0.00    +0.000 A 
ATOM     14  S   UNL     1      -0.826  -3.306   2.222  0.00  0.00    +0.000 S 
ATOM     15  C   UNL     1      -1.909  -4.619   2.142  0.00  0.00    +0.000 A 
ATOM     16  C   UNL     1      -2.006  -5.127   0.868  0.00  0.00    +0.000 A 
ENDBRANCH  10  13
ENDBRANCH   1  10
TORSDOF 2
