REMARK  Name = *****
REMARK  3 active torsions:
REMARK  status: ('A' for Active; 'I' for Inactive)
REMARK    1  A    between atoms: C_3  and  O_8
REMARK    2  A    between atoms: O_8  and  C_9
REMARK    3  A    between atoms: C_9  and  C_11
REMARK                            x       y       z     vdW  Elec       q    Type
REMARK                         _______ _______ _______ _____ _____    ______ ____
ROOT
ATOM      1  C   UNL     1      -1.174   3.695   0.326  0.00  0.00    +0.000 C 
ATOM      2  O   UNL     1       0.016   3.695   0.049  0.00  0.00    +0.000 OA
ENDROOT
BRANCH   1   3
ATOM      3  C   UNL     1      -2.013   4.911   0.204  0.00  0.00    +0.000 A 
ATOM      4  C   UNL     1      -3.258   5.044   0.822  0.00  0.00    +0.000 A 
ATOM      5  C   UNL     1      -3.993   6.221   0.671  0.00  0.00    +0.000 A 
ATOM      6  C   UNL     1      -3.490   7.278  -0.089  0.00  0.00    +0.000 A 
ATOM      7  C   UNL     1      -2.243   7.158  -0.701  0.00  0.00    +0.000 A 
ATOM      8  C   UNL     1      -1.506   5.981  -0.553  0.00  0.00    +0.000 A 
ATOM      9 CL   UNL     1      -5.532   6.394   1.428  0.00  0.00    +0.000 Cl
ATOM     10  F   UNL     1      -3.757   4.059   1.585  0.00  0.00    +0.000 F 
ENDBRANCH   1   3
BRANCH   1  11
ATOM     11  O   UNL     1      -1.936   2.614   0.721  0.00  0.00    +0.000 OA
BRANCH  11  14
ATOM     12  C   UNL     1      -1.058  -0.934   0.365  0.00  0.00    +0.000 A 
ATOM     13  C   UNL     1      -1.676   0.303   0.173  0.00  0.00    +0.000 A 
ATOM     14  C   UNL     1      -1.244   1.409   0.906  0.00  0.00    +0.000 A 
ATOM     15  C   UNL     1      -0.231   1.294   1.855  0.00  0.00    +0.000 A 
ATOM     16  C   UNL     1       0.374   0.057   2.034  0.00  0.00    +0.000 A 
ATOM     17  C   UNL     1      -0.027  -1.056   1.298  0.00  0.00    +0.000 A 
ATOM     18  F   UNL     1       1.355  -0.073   2.937  0.00  0.00    +0.000 F 
ENDBRANCH  11  14
ENDBRANCH   1  11
TORSDOF 3
