REMARK  Name = *****
REMARK  4 active torsions:
REMARK  status: ('A' for Active; 'I' for Inactive)
REMARK    1  A    between atoms: C_4  and  C_7
REMARK    2  A    between atoms: C_7  and  C_8
REMARK    3  A    between atoms: C_8  and  C_9
REMARK    4  A    between atoms: C_9  and  C_10
REMARK                            x       y       z     vdW  Elec       q    Type
REMARK                         _______ _______ _______ _____ _____    ______ ____
ROOT
ATOM      1  C   UNL     1      -3.892  -0.793  -0.174  0.00  0.00    +0.000 C 
ATOM      2 CL   UNL     1      -5.577  -0.164  -0.076  0.00  0.00    +0.000 Cl
ENDROOT
BRANCH   1   3
ATOM      3  C   UNL     1      -2.912   0.365  -0.432  0.00  0.00    +0.000 C 
BRANCH   3   7
ATOM      4  C   UNL     1      -3.134   1.943  -4.444  0.00  0.00    +0.000 A 
ATOM      5  C   UNL     1      -3.783   2.599  -3.400  0.00  0.00    +0.000 A 
ATOM      6  C   UNL     1      -3.710   2.093  -2.101  0.00  0.00    +0.000 A 
ATOM      7  C   UNL     1      -2.986   0.923  -1.835  0.00  0.00    +0.000 A 
ATOM      8  C   UNL     1      -2.339   0.269  -2.893  0.00  0.00    +0.000 A 
ATOM      9  C   UNL     1      -2.413   0.778  -4.191  0.00  0.00    +0.000 A 
ENDBRANCH   3   7
ENDBRANCH   1   3
BRANCH   1  10
ATOM     10  C   UNL     1      -3.526  -1.519   1.133  0.00  0.00    +0.000 C 
BRANCH  10  11
ATOM     11  C   UNL     1      -4.243  -2.836   1.323  0.00  0.00    +0.000 A 
ATOM     12  C   UNL     1      -3.825  -3.979   0.627  0.00  0.00    +0.000 A 
ATOM     13  C   UNL     1      -4.492  -5.194   0.797  0.00  0.00    +0.000 A 
ATOM     14  C   UNL     1      -5.581  -5.277   1.662  0.00  0.00    +0.000 A 
ATOM     15  C   UNL     1      -6.005  -4.147   2.357  0.00  0.00    +0.000 A 
ATOM     16  C   UNL     1      -5.340  -2.932   2.189  0.00  0.00    +0.000 A 
ENDBRANCH  10  11
ENDBRANCH   1  10
TORSDOF 4
