REMARK  Name = *****
REMARK  2 active torsions:
REMARK  status: ('A' for Active; 'I' for Inactive)
REMARK    1  A    between atoms: C_4  and  C_7
REMARK    2  A    between atoms: C_8  and  C_9
REMARK                            x       y       z     vdW  Elec       q    Type
REMARK                         _______ _______ _______ _____ _____    ______ ____
ROOT
ATOM      1  C   UNL     1      -2.748   0.406   0.015  0.00  0.00    +0.000 C 
ATOM      2  C   UNL     1      -3.660  -0.572  -0.105  0.00  0.00    +0.000 C 
ENDROOT
BRANCH   2   3
ATOM      3  C   UNL     1      -5.103  -0.341  -0.163  0.00  0.00    +0.000 A 
ATOM      4  C   UNL     1      -5.941  -1.166  -0.885  0.00  0.00    +0.000 A 
ATOM      5  C   UNL     1      -7.305  -1.290  -1.152  0.00  0.00    +0.000 A 
ATOM      6  C   UNL     1      -7.838  -0.254  -0.438  0.00  0.00    +0.000 A 
ATOM      7  C   UNL     1      -7.158   0.706   0.373  0.00  0.00    +0.000 A 
ATOM      8  C   UNL     1      -5.776   0.651   0.514  0.00  0.00    +0.000 A 
ATOM      9  S   UNL     1      -6.032  -2.444  -1.901  0.00  0.00    +0.000 S 
ATOM     10  O   UNL     1      -6.134  -3.671  -1.045  0.00  0.00    +0.000 OA
ENDBRANCH   2   3
BRANCH   1  14
ATOM     11  C   UNL     1       1.493  -0.155   0.176  0.00  0.00    +0.000 A 
ATOM     12  C   UNL     1       0.720  -0.995  -0.623  0.00  0.00    +0.000 A 
ATOM     13  C   UNL     1      -0.666  -0.829  -0.680  0.00  0.00    +0.000 A 
ATOM     14  C   UNL     1      -1.296   0.173   0.071  0.00  0.00    +0.000 A 
ATOM     15  C   UNL     1      -0.506   1.021   0.858  0.00  0.00    +0.000 A 
ATOM     16  C   UNL     1       0.881   0.855   0.915  0.00  0.00    +0.000 A 
ENDBRANCH   1  14
TORSDOF 2
