REMARK  Name = *****
REMARK  4 active torsions:
REMARK  status: ('A' for Active; 'I' for Inactive)
REMARK    1  A    between atoms: C_1  and  C_2
REMARK    2  A    between atoms: C_5  and  S_8
REMARK    3  A    between atoms: S_8  and  O_10
REMARK    4  A    between atoms: O_10  and  C_11
REMARK                            x       y       z     vdW  Elec       q    Type
REMARK                         _______ _______ _______ _____ _____    ______ ____
ROOT
ATOM      1  S   UNL     1      -5.874  -0.591  -1.703  0.00  0.00    +0.000 S 
ATOM      2  O   UNL     1      -4.565  -0.094  -2.245  0.00  0.00    +0.000 OA
ENDROOT
BRANCH   1   7
ATOM      3  C   UNL     1      -9.855  -0.358  -6.346  0.00  0.00    +0.000 C 
ATOM      4  C   UNL     1      -8.866  -0.430  -5.220  0.00  0.00    +0.000 A 
ATOM      5  C   UNL     1      -9.168  -1.150  -4.057  0.00  0.00    +0.000 A 
ATOM      6  C   UNL     1      -8.261  -1.192  -2.995  0.00  0.00    +0.000 A 
ATOM      7  C   UNL     1      -7.043  -0.509  -3.080  0.00  0.00    +0.000 A 
ATOM      8  C   UNL     1      -6.746   0.222  -4.235  0.00  0.00    +0.000 A 
ATOM      9  C   UNL     1      -7.655   0.268  -5.294  0.00  0.00    +0.000 A 
ENDBRANCH   1   7
BRANCH   1  10
ATOM     10  O   UNL     1      -6.578   0.642  -0.937  0.00  0.00    +0.000 OA
BRANCH  10  11
ATOM     11  C   UNL     1      -5.804   1.262   0.092  0.00  0.00    +0.000 C 
ATOM     12  C   UNL     1      -6.148   2.761   0.090  0.00  0.00    +0.000 C 
ATOM     13  C   UNL     1      -5.914   3.415   1.455  0.00  0.00    +0.000 C 
ATOM     14  C   UNL     1      -6.256   2.426   2.575  0.00  0.00    +0.000 C 
ATOM     15  C   UNL     1      -5.280   1.215   2.586  0.00  0.00    +0.000 C 
ATOM     16  C   UNL     1      -6.182   0.649   1.450  0.00  0.00    +0.000 C 
ATOM     17  C   UNL     1      -7.347   1.370   2.203  0.00  0.00    +0.000 C 
ENDBRANCH  10  11
ENDBRANCH   1  10
TORSDOF 3
