REMARK  Name = *****
REMARK  6 active torsions:
REMARK  status: ('A' for Active; 'I' for Inactive)
REMARK    1  A    between atoms: C_1  and  C_2
REMARK    2  A    between atoms: C_2  and  N_3
REMARK    3  A    between atoms: N_3  and  C_4
REMARK    4  A    between atoms: C_6  and  S_8
REMARK    5  A    between atoms: S_8  and  C_9
REMARK    6  A    between atoms: C_9  and  C_10
REMARK                            x       y       z     vdW  Elec       q    Type
REMARK                         _______ _______ _______ _____ _____    ______ ____
ROOT
ATOM      1  S   UNL     1       4.759   0.586  -3.445  0.00  0.00    +0.000 S 
ENDROOT
BRANCH   1   3
ATOM      2  N   UNL     1       2.938   0.269  -1.438  0.00  0.00    +0.000 N 
ATOM      3  C   UNL     1       4.316   0.280  -1.765  0.00  0.00    +0.000 C 
ATOM      4  O   UNL     1       5.202   0.075  -0.939  0.00  0.00    +0.000 OA
BRANCH   2   6
ATOM      5  C   UNL     1       2.587   1.242   0.820  0.00  0.00    +0.000 C 
ATOM      6  C   UNL     1       2.641  -0.021  -0.028  0.00  0.00    +0.000 C 
ENDBRANCH   2   6
BRANCH   2   7
ATOM      7  C   UNL     1       1.904   0.564  -2.325  0.00  0.00    +0.000 C 
ATOM      8  C   UNL     1       0.598   0.628  -2.038  0.00  0.00    +0.000 C 
ENDBRANCH   2   7
ENDBRANCH   1   3
BRANCH   1   9
ATOM      9  C   UNL     1       6.564   0.631  -3.265  0.00  0.00    +0.000 C 
BRANCH   9  10
ATOM     10  C   UNL     1       7.244   0.872  -4.592  0.00  0.00    +0.000 A 
ATOM     11  C   UNL     1       7.599  -0.236  -5.384  0.00  0.00    +0.000 A 
ATOM     12  C   UNL     1       8.216  -0.066  -6.625  0.00  0.00    +0.000 A 
ATOM     13  C   UNL     1       8.486   1.215  -7.098  0.00  0.00    +0.000 A 
ATOM     14  C   UNL     1       8.134   2.325  -6.331  0.00  0.00    +0.000 A 
ATOM     15  C   UNL     1       7.514   2.158  -5.088  0.00  0.00    +0.000 A 
ATOM     16 CL   UNL     1       7.100   3.587  -4.208  0.00  0.00    +0.000 Cl
ENDBRANCH   9  10
ENDBRANCH   1   9
TORSDOF 5
