REMARK  Name = *****
REMARK  5 active torsions:
REMARK  status: ('A' for Active; 'I' for Inactive)
REMARK    1  A    between atoms: C_1  and  C_2
REMARK    2  A    between atoms: C_5  and  C_8
REMARK    3  A    between atoms: C_8  and  S_9
REMARK    4  A    between atoms: S_9  and  C_10
REMARK    5  A    between atoms: C_11  and  C_16
REMARK                            x       y       z     vdW  Elec       q    Type
REMARK                         _______ _______ _______ _____ _____    ______ ____
ROOT
ATOM      1  C   UNL     1      -5.779   1.203   0.107  0.00  0.00    +0.000 A 
ATOM      2  C   UNL     1      -6.722   2.218   0.262  0.00  0.00    +0.000 A 
ATOM      3  C   UNL     1      -8.049   1.942  -0.117  0.00  0.00    +0.000 A 
ATOM      4  C   UNL     1      -8.390   0.694  -0.622  0.00  0.00    +0.000 A 
ATOM      5  C   UNL     1      -7.390  -0.248  -0.736  0.00  0.00    +0.000 A 
ATOM      6  N   UNL     1      -6.107  -0.019  -0.386  0.00  0.00    +0.000 NA
ENDROOT
BRANCH   2   7
ATOM      7  C   UNL     1      -6.359   3.568   0.804  0.00  0.00    +0.000 C 
ATOM      8  F   UNL     1      -5.422   4.216   0.059  0.00  0.00    +0.000 F 
ATOM      9  F   UNL     1      -7.427   4.422   0.844  0.00  0.00    +0.000 F 
ATOM     10  F   UNL     1      -5.891   3.533   2.081  0.00  0.00    +0.000 F 
ENDBRANCH   2   7
BRANCH   1  11
ATOM     11  S   UNL     1      -4.070   1.413   0.580  0.00  0.00    +0.000 S 
BRANCH  11  12
ATOM     12  C   UNL     1      -3.291   0.070  -0.376  0.00  0.00    +0.000 C 
BRANCH  12  17
ATOM     13  C   UNL     1       2.514   0.214   0.141  0.00  0.00    +0.000 C 
ATOM     14  C   UNL     1       1.019   0.191   0.027  0.00  0.00    +0.000 A 
ATOM     15  C   UNL     1       0.369   1.021  -0.893  0.00  0.00    +0.000 A 
ATOM     16  C   UNL     1      -1.022   0.983  -1.023  0.00  0.00    +0.000 A 
ATOM     17  C   UNL     1      -1.787   0.105  -0.243  0.00  0.00    +0.000 A 
ATOM     18  C   UNL     1      -1.133  -0.729   0.674  0.00  0.00    +0.000 A 
ATOM     19  C   UNL     1       0.258  -0.692   0.801  0.00  0.00    +0.000 A 
ENDBRANCH  12  17
ENDBRANCH  11  12
ENDBRANCH   1  11
TORSDOF 4
