REMARK  Name = *****
REMARK  4 active torsions:
REMARK  status: ('A' for Active; 'I' for Inactive)
REMARK    1  A    between atoms: C_4  and  C_7
REMARK    2  A    between atoms: C_7  and  O_8
REMARK    3  A    between atoms: O_8  and  C_9
REMARK    4  A    between atoms: C_9  and  C_11
REMARK                            x       y       z     vdW  Elec       q    Type
REMARK                         _______ _______ _______ _____ _____    ______ ____
ROOT
ATOM      1  O   UNL     1      -2.711   2.742  -0.420  0.00  0.00    +0.000 OA
ENDROOT
BRANCH   1   2
ATOM      2  C   UNL     1      -3.352   3.067   0.728  0.00  0.00    +0.000 C 
ATOM      3  O   UNL     1      -2.828   3.379   1.786  0.00  0.00    +0.000 OA
BRANCH   2   4
ATOM      4  C   UNL     1      -4.826   2.989   0.538  0.00  0.00    +0.000 A 
ATOM      5  C   UNL     1      -5.413   2.756  -0.714  0.00  0.00    +0.000 A 
ATOM      6  C   UNL     1      -6.803   2.691  -0.838  0.00  0.00    +0.000 A 
ATOM      7  C   UNL     1      -7.613   2.857   0.285  0.00  0.00    +0.000 A 
ATOM      8  C   UNL     1      -7.038   3.091   1.533  0.00  0.00    +0.000 A 
ATOM      9  C   UNL     1      -5.649   3.159   1.660  0.00  0.00    +0.000 A 
ENDBRANCH   2   4
ENDBRANCH   1   2
BRANCH   1  10
ATOM     10  C   UNL     1      -1.278   2.731  -0.353  0.00  0.00    +0.000 C 
BRANCH  10  14
ATOM     11  C   UNL     1      -0.111  -1.496   0.222  0.00  0.00    +0.000 C 
ATOM     12  C   UNL     1       0.478  -0.422   1.153  0.00  0.00    +0.000 C 
ATOM     13  C   UNL     1      -0.054   0.968   0.940  0.00  0.00    +0.000 C 
ATOM     14  C   UNL     1      -0.783   1.321  -0.135  0.00  0.00    +0.000 C 
ATOM     15  C   UNL     1      -1.078   0.338  -1.163  0.00  0.00    +0.000 C 
ATOM     16  C   UNL     1      -0.779  -0.960  -1.011  0.00  0.00    +0.000 C 
ENDBRANCH  10  14
ENDBRANCH   1  10
TORSDOF 4
