REMARK  Name = *****
REMARK  4 active torsions:
REMARK  status: ('A' for Active; 'I' for Inactive)
REMARK    1  A    between atoms: C_1  and  C_2
REMARK    2  A    between atoms: C_4  and  C_17
REMARK    3  A    between atoms: C_5  and  N_8
REMARK    4  A    between atoms: C_9  and  C_10
REMARK                            x       y       z     vdW  Elec       q    Type
REMARK                         _______ _______ _______ _____ _____    ______ ____
ROOT
ATOM      1  N   UNL     1      -2.400  -1.830  -0.548  0.00  0.00    +0.000 NA
ATOM      2  C   UNL     1      -2.719  -2.646   0.410  0.00  0.00    +0.000 C 
ENDROOT
BRANCH   1   7
ATOM      3  C   UNL     1       2.533   0.984   0.139  0.00  0.00    +0.000 C 
ATOM      4  C   UNL     1       1.234   0.262  -0.069  0.00  0.00    +0.000 A 
ATOM      5  C   UNL     1       0.024   0.861   0.304  0.00  0.00    +0.000 A 
ATOM      6  C   UNL     1      -1.198   0.187   0.141  0.00  0.00    +0.000 A 
ATOM      7  C   UNL     1      -1.200  -1.120  -0.373  0.00  0.00    +0.000 A 
ATOM      8  C   UNL     1       0.010  -1.715  -0.746  0.00  0.00    +0.000 A 
ATOM      9  C   UNL     1       1.219  -1.036  -0.587  0.00  0.00    +0.000 A 
ATOM     10  C   UNL     1      -2.483   0.858   0.535  0.00  0.00    +0.000 C 
ENDBRANCH   1   7
BRANCH   2  11
ATOM     11  C   UNL     1      -3.957  -3.454   0.361  0.00  0.00    +0.000 A 
ATOM     12  C   UNL     1      -4.816  -3.309  -0.740  0.00  0.00    +0.000 A 
ATOM     13  C   UNL     1      -5.994  -4.053  -0.821  0.00  0.00    +0.000 A 
ATOM     14  C   UNL     1      -6.325  -4.946   0.195  0.00  0.00    +0.000 A 
ATOM     15  C   UNL     1      -5.476  -5.096   1.293  0.00  0.00    +0.000 A 
ATOM     16  C   UNL     1      -4.293  -4.353   1.381  0.00  0.00    +0.000 A 
ATOM     17 CL   UNL     1      -3.305  -4.607   2.777  0.00  0.00    +0.000 Cl
ENDBRANCH   2  11
TORSDOF 2
