REMARK  Name = *****
REMARK  4 active torsions:
REMARK  status: ('A' for Active; 'I' for Inactive)
REMARK    1  A    between atoms: C_1  and  N_2
REMARK    2  A    between atoms: N_2  and  C_3
REMARK    3  A    between atoms: N_2  and  C_10
REMARK    4  A    between atoms: C_3  and  C_4
REMARK                            x       y       z     vdW  Elec       q    Type
REMARK                         _______ _______ _______ _____ _____    ______ ____
ROOT
ATOM      1  C   UNL     1       1.377  -0.191   0.255  0.00  0.00    +0.000 C 
ATOM      2  N   UNL     1       2.785  -0.137  -0.160  0.00  0.00    +0.000 N 
ENDROOT
BRANCH   2   3
ATOM      3  C   UNL     1       3.262   0.817  -1.080  0.00  0.00    +0.000 C 
ATOM      4  C   UNL     1       2.544   1.893  -1.461  0.00  0.00    +0.000 C 
ATOM      5  C   UNL     1       3.002   2.971  -2.401  0.00  0.00    +0.000 C 
ATOM      6  C   UNL     1       4.232   3.729  -1.900  0.00  0.00    +0.000 C 
ATOM      7  C   UNL     1       5.548   2.970  -2.073  0.00  0.00    +0.000 C 
ATOM      8  C   UNL     1       5.657   1.668  -1.280  0.00  0.00    +0.000 C 
ATOM      9  C   UNL     1       4.638   0.609  -1.702  0.00  0.00    +0.000 C 
ENDBRANCH   2   3
BRANCH   2  10
ATOM     10  C   UNL     1       3.677  -0.945   0.698  0.00  0.00    +0.000 C 
BRANCH  10  11
ATOM     11  C   UNL     1       3.652  -2.424   0.365  0.00  0.00    +0.000 A 
ATOM     12  C   UNL     1       3.975  -3.358   1.364  0.00  0.00    +0.000 A 
ATOM     13  C   UNL     1       3.996  -4.726   1.085  0.00  0.00    +0.000 A 
ATOM     14  C   UNL     1       3.706  -5.181  -0.199  0.00  0.00    +0.000 A 
ATOM     15  C   UNL     1       3.397  -4.268  -1.205  0.00  0.00    +0.000 A 
ATOM     16  C   UNL     1       3.376  -2.900  -0.926  0.00  0.00    +0.000 A 
ENDBRANCH  10  11
ENDBRANCH   2  10
TORSDOF 3
