REMARK  Name = *****
REMARK  4 active torsions:
REMARK  status: ('A' for Active; 'I' for Inactive)
REMARK    1  A    between atoms: C_1  and  C_2
REMARK    2  A    between atoms: C_4  and  C_8
REMARK    3  A    between atoms: C_9  and  C_10
REMARK    4  A    between atoms: C_14  and  C_16
REMARK                            x       y       z     vdW  Elec       q    Type
REMARK                         _______ _______ _______ _____ _____    ______ ____
ROOT
ATOM      1  C   UNL     1       5.342   2.513  -0.579  0.00  0.00    +0.000 C 
ATOM      2  C   UNL     1       5.907   3.555  -0.771  0.00  0.00    +0.000 C 
ENDROOT
BRANCH   1   6
ATOM      3  C   UNL     1       1.111  -0.010   0.068  0.00  0.00    +0.000 C 
ATOM      4  C   UNL     1       2.609   0.029  -0.009  0.00  0.00    +0.000 A 
ATOM      5  C   UNL     1       3.276   1.239  -0.244  0.00  0.00    +0.000 A 
ATOM      6  C   UNL     1       4.670   1.271  -0.348  0.00  0.00    +0.000 A 
ATOM      7  C   UNL     1       5.404   0.091  -0.228  0.00  0.00    +0.000 A 
ATOM      8  C   UNL     1       4.747  -1.120  -0.010  0.00  0.00    +0.000 A 
ATOM      9  C   UNL     1       3.355  -1.152   0.094  0.00  0.00    +0.000 A 
ENDBRANCH   1   6
BRANCH   2  10
ATOM     10  C   UNL     1       6.581   4.796  -0.999  0.00  0.00    +0.000 A 
ATOM     11  C   UNL     1       6.069   5.978  -0.460  0.00  0.00    +0.000 A 
ATOM     12  C   UNL     1       6.733   7.186  -0.675  0.00  0.00    +0.000 A 
ATOM     13  C   UNL     1       7.905   7.216  -1.431  0.00  0.00    +0.000 A 
ATOM     14  C   UNL     1       8.419   6.039  -1.990  0.00  0.00    +0.000 A 
ATOM     15  C   UNL     1       7.755   4.827  -1.757  0.00  0.00    +0.000 A 
ATOM     16  C   UNL     1       9.699   6.063  -2.773  0.00  0.00    +0.000 C 
ENDBRANCH   2  10
TORSDOF 2
