REMARK  Name = *****
REMARK  4 active torsions:
REMARK  status: ('A' for Active; 'I' for Inactive)
REMARK    1  A    between atoms: C_1  and  O_2
REMARK    2  A    between atoms: O_2  and  C_3
REMARK    3  A    between atoms: C_6  and  C_9
REMARK    4  A    between atoms: C_10  and  C_11
REMARK                            x       y       z     vdW  Elec       q    Type
REMARK                         _______ _______ _______ _____ _____    ______ ____
ROOT
ATOM      1  C   UNL     1       5.478   0.164   4.752  0.00  0.00    +0.000 C 
ATOM      2  C   UNL     1       6.482   1.057   4.732  0.00  0.00    +0.000 C 
ATOM      3 CL   UNL     1       5.159  -0.734   6.199  0.00  0.00    +0.000 Cl
ENDROOT
BRANCH   1   7
ATOM      4  C   UNL     1       2.933  -0.713   1.422  0.00  0.00    +0.000 A 
ATOM      5  C   UNL     1       4.204  -1.281   1.503  0.00  0.00    +0.000 A 
ATOM      6  C   UNL     1       5.034  -0.995   2.594  0.00  0.00    +0.000 A 
ATOM      7  C   UNL     1       4.601  -0.140   3.614  0.00  0.00    +0.000 A 
ATOM      8  C   UNL     1       3.326   0.428   3.530  0.00  0.00    +0.000 A 
ATOM      9  C   UNL     1       2.501   0.142   2.439  0.00  0.00    +0.000 A 
BRANCH   4  11
ATOM     10  C   UNL     1       2.409  -1.792  -0.630  0.00  0.00    +0.000 C 
ATOM     11  O   UNL     1       2.027  -0.907   0.416  0.00  0.00    +0.000 OA
ENDBRANCH   4  11
ENDBRANCH   1   7
BRANCH   2  12
ATOM     12  C   UNL     1       6.845   1.885   3.580  0.00  0.00    +0.000 A 
ATOM     13  C   UNL     1       6.100   3.026   3.262  0.00  0.00    +0.000 A 
ATOM     14  C   UNL     1       6.451   3.809   2.161  0.00  0.00    +0.000 A 
ATOM     15  C   UNL     1       7.547   3.456   1.374  0.00  0.00    +0.000 A 
ATOM     16  C   UNL     1       8.294   2.321   1.688  0.00  0.00    +0.000 A 
ATOM     17  C   UNL     1       7.946   1.537   2.790  0.00  0.00    +0.000 A 
ENDBRANCH   2  12
TORSDOF 3
