REMARK  Name = *****
REMARK  4 active torsions:
REMARK  status: ('A' for Active; 'I' for Inactive)
REMARK    1  A    between atoms: C_1  and  C_2
REMARK    2  A    between atoms: C_5  and  C_8
REMARK    3  A    between atoms: N_10  and  C_11
REMARK    4  A    between atoms: C_15  and  C_17
REMARK                            x       y       z     vdW  Elec       q    Type
REMARK                         _______ _______ _______ _____ _____    ______ ____
ROOT
ATOM      1  C   UNL     1      -3.592   0.063   0.358  0.00  0.00    +0.000 C 
ATOM      2  C   UNL     1      -4.692   0.486  -0.575  0.00  0.00    +0.000 C 
ATOM      3  N   UNL     1      -4.782   0.784   0.852  0.00  0.00    +0.000 N 
ENDROOT
BRANCH   1   8
ATOM      4  C   UNL     1      -2.953  -5.552   1.860  0.00  0.00    +0.000 C 
ATOM      5  C   UNL     1      -3.148  -4.117   1.471  0.00  0.00    +0.000 A 
ATOM      6  C   UNL     1      -2.960  -3.708   0.148  0.00  0.00    +0.000 A 
ATOM      7  C   UNL     1      -3.112  -2.364  -0.207  0.00  0.00    +0.000 A 
ATOM      8  C   UNL     1      -3.449  -1.387   0.745  0.00  0.00    +0.000 A 
ATOM      9  C   UNL     1      -3.613  -1.813   2.072  0.00  0.00    +0.000 A 
ATOM     10  C   UNL     1      -3.462  -3.156   2.435  0.00  0.00    +0.000 A 
ENDBRANCH   1   8
BRANCH   3  11
ATOM     11  C   UNL     1      -4.646   2.124   1.304  0.00  0.00    +0.000 A 
ATOM     12  C   UNL     1      -3.806   3.092   0.738  0.00  0.00    +0.000 A 
ATOM     13  C   UNL     1      -3.742   4.383   1.268  0.00  0.00    +0.000 A 
ATOM     14  C   UNL     1      -4.521   4.730   2.370  0.00  0.00    +0.000 A 
ATOM     15  C   UNL     1      -5.382   3.792   2.945  0.00  0.00    +0.000 A 
ATOM     16  C   UNL     1      -5.425   2.495   2.413  0.00  0.00    +0.000 A 
ATOM     17  C   UNL     1      -6.200   4.143   4.151  0.00  0.00    +0.000 C 
ENDBRANCH   3  11
TORSDOF 2
