REMARK  Name = *****
REMARK  2 active torsions:
REMARK  status: ('A' for Active; 'I' for Inactive)
REMARK    1  A    between atoms: C_4  and  C_7
REMARK    2  A    between atoms: N_8  and  C_9
REMARK                            x       y       z     vdW  Elec       q    Type
REMARK                         _______ _______ _______ _____ _____    ______ ____
ROOT
ATOM      1  C   UNL     1      -2.900   0.288  -0.181  0.00  0.00    +0.000 C 
ATOM      2  N   UNL     1      -3.652  -0.587  -0.773  0.00  0.00    +0.000 NA
ENDROOT
BRANCH   2   3
ATOM      3  C   UNL     1      -5.022  -0.302  -0.806  0.00  0.00    +0.000 A 
ATOM      4  C   UNL     1      -5.556   0.493  -1.824  0.00  0.00    +0.000 A 
ATOM      5  C   UNL     1      -6.926   0.754  -1.860  0.00  0.00    +0.000 A 
ATOM      6  C   UNL     1      -7.762   0.212  -0.885  0.00  0.00    +0.000 A 
ATOM      7  C   UNL     1      -7.243  -0.594   0.124  0.00  0.00    +0.000 A 
ATOM      8  C   UNL     1      -5.872  -0.854   0.159  0.00  0.00    +0.000 A 
ATOM      9  F   UNL     1      -9.081   0.453  -0.902  0.00  0.00    +0.000 F 
ATOM     10 CL   UNL     1      -7.566   1.747  -3.112  0.00  0.00    +0.000 Cl
ENDBRANCH   2   3
BRANCH   1  14
ATOM     11  C   UNL     1       1.325  -0.161   0.155  0.00  0.00    +0.000 A 
ATOM     12  C   UNL     1       0.577  -1.148  -0.488  0.00  0.00    +0.000 A 
ATOM     13  C   UNL     1      -0.807  -1.010  -0.603  0.00  0.00    +0.000 A 
ATOM     14  C   UNL     1      -1.439   0.118  -0.073  0.00  0.00    +0.000 A 
ATOM     15  C   UNL     1      -0.691   1.107   0.572  0.00  0.00    +0.000 A 
ATOM     16  C   UNL     1       0.693   0.965   0.684  0.00  0.00    +0.000 A 
ENDBRANCH   1  14
TORSDOF 2
