REMARK  Name = *****
REMARK  4 active torsions:
REMARK  status: ('A' for Active; 'I' for Inactive)
REMARK    1  A    between atoms: C_4  and  C_7
REMARK    2  A    between atoms: C_7  and  O_8
REMARK    3  A    between atoms: O_8  and  C_9
REMARK    4  A    between atoms: C_12  and  C_15
REMARK                            x       y       z     vdW  Elec       q    Type
REMARK                         _______ _______ _______ _____ _____    ______ ____
ROOT
ATOM      1  C   UNL     1      -4.730  -0.654  -1.134  0.00  0.00    +0.000 A 
ATOM      2  C   UNL     1      -5.354  -1.896  -1.294  0.00  0.00    +0.000 A 
ATOM      3  C   UNL     1      -6.691  -1.978  -1.689  0.00  0.00    +0.000 A 
ATOM      4  C   UNL     1      -7.412  -0.805  -1.924  0.00  0.00    +0.000 A 
ATOM      5  C   UNL     1      -6.799   0.441  -1.765  0.00  0.00    +0.000 A 
ATOM      6  C   UNL     1      -5.458   0.515  -1.370  0.00  0.00    +0.000 A 
ENDROOT
BRANCH   4   7
ATOM      7  C   UNL     1      -8.825  -0.878  -2.341  0.00  0.00    +0.000 C 
ATOM      8  O   UNL     1      -9.444  -1.916  -2.507  0.00  0.00    +0.000 OA
ATOM      9  F   UNL     1      -9.477   0.275  -2.553  0.00  0.00    +0.000 F 
ENDBRANCH   4   7
BRANCH   1  10
ATOM     10  O   UNL     1      -3.421  -0.724  -0.746  0.00  0.00    +0.000 OA
BRANCH  10  11
ATOM     11  C   UNL     1      -2.717   0.509  -0.591  0.00  0.00    +0.000 C 
BRANCH  11  15
ATOM     12  C   UNL     1       1.410  -0.251   0.432  0.00  0.00    +0.000 A 
ATOM     13  C   UNL     1       0.806  -0.965  -0.601  0.00  0.00    +0.000 A 
ATOM     14  C   UNL     1      -0.530  -0.726  -0.927  0.00  0.00    +0.000 A 
ATOM     15  C   UNL     1      -1.281   0.222  -0.216  0.00  0.00    +0.000 A 
ATOM     16  C   UNL     1      -0.658   0.941   0.815  0.00  0.00    +0.000 A 
ATOM     17  C   UNL     1       0.679   0.702   1.139  0.00  0.00    +0.000 A 
ENDBRANCH  11  15
ENDBRANCH  10  11
ENDBRANCH   1  10
TORSDOF 4
