REMARK  Name = *****
REMARK  3 active torsions:
REMARK  status: ('A' for Active; 'I' for Inactive)
REMARK    1  A    between atoms: C_4  and  C_7
REMARK    2  A    between atoms: C_8  and  C_9
REMARK    3  A    between atoms: C_9  and  C_10
REMARK                            x       y       z     vdW  Elec       q    Type
REMARK                         _______ _______ _______ _____ _____    ______ ____
ROOT
ATOM      1  C   UNL     1      -2.866   0.386  -0.294  0.00  0.00    +0.000 C 
ATOM      2  C   UNL     1      -3.826  -0.554  -0.372  0.00  0.00    +0.000 C 
ATOM      3  F   UNL     1      -3.479  -1.859  -0.239  0.00  0.00    +0.000 F 
ENDROOT
BRANCH   1   7
ATOM      4  C   UNL     1       1.325  -0.209   0.337  0.00  0.00    +0.000 A 
ATOM      5  C   UNL     1       0.609  -1.131  -0.424  0.00  0.00    +0.000 A 
ATOM      6  C   UNL     1      -0.762  -0.955  -0.632  0.00  0.00    +0.000 A 
ATOM      7  C   UNL     1      -1.435   0.137  -0.071  0.00  0.00    +0.000 A 
ATOM      8  C   UNL     1      -0.699   1.067   0.678  0.00  0.00    +0.000 A 
ATOM      9  C   UNL     1       0.672   0.891   0.886  0.00  0.00    +0.000 A 
ENDBRANCH   1   7
BRANCH   2  10
ATOM     10  C   UNL     1      -5.292  -0.244  -0.602  0.00  0.00    +0.000 C 
ATOM     11  F   UNL     1      -5.459   1.096  -0.847  0.00  0.00    +0.000 F 
ATOM     12  F   UNL     1      -5.692  -0.848  -1.765  0.00  0.00    +0.000 F 
BRANCH  10  13
ATOM     13  C   UNL     1      -6.142  -0.691   0.576  0.00  0.00    +0.000 A 
ATOM     14  C   UNL     1      -6.393   0.181   1.649  0.00  0.00    +0.000 A 
ATOM     15  C   UNL     1      -7.160  -0.237   2.738  0.00  0.00    +0.000 A 
ATOM     16  C   UNL     1      -7.683  -1.529   2.768  0.00  0.00    +0.000 A 
ATOM     17  C   UNL     1      -7.441  -2.405   1.711  0.00  0.00    +0.000 A 
ATOM     18  C   UNL     1      -6.674  -1.990   0.622  0.00  0.00    +0.000 A 
ENDBRANCH  10  13
ENDBRANCH   2  10
TORSDOF 3
