REMARK  Name = *****
REMARK  4 active torsions:
REMARK  status: ('A' for Active; 'I' for Inactive)
REMARK    1  A    between atoms: C_4  and  O_6
REMARK    2  A    between atoms: O_6  and  C_7
REMARK    3  A    between atoms: C_7  and  C_8
REMARK    4  A    between atoms: C_11  and  S_14
REMARK                            x       y       z     vdW  Elec       q    Type
REMARK                         _______ _______ _______ _____ _____    ______ ____
ROOT
ATOM      1  C   UNL     1      -2.901   1.597   3.217  0.00  0.00    +0.000 A 
ATOM      2  C   UNL     1      -4.056   1.214   3.904  0.00  0.00    +0.000 A 
ATOM      3  C   UNL     1      -4.288   1.604   5.221  0.00  0.00    +0.000 A 
ATOM      4  C   UNL     1      -3.360   2.412   5.877  0.00  0.00    +0.000 A 
ATOM      5  C   UNL     1      -2.204   2.816   5.203  0.00  0.00    +0.000 A 
ATOM      6  C   UNL     1      -1.979   2.418   3.880  0.00  0.00    +0.000 A 
ATOM      7  F   UNL     1      -4.973   0.453   3.289  0.00  0.00    +0.000 F 
ENDROOT
BRANCH   4   8
ATOM      8  S   UNL     1      -3.618   2.919   7.563  0.00  0.00    +0.000 S 
ATOM      9  H   UNL     1      -4.798   2.414   8.013  0.00  0.00    +0.000 HD
ENDBRANCH   4   8
BRANCH   1  10
ATOM     10  C   UNL     1      -2.711   1.179   1.783  0.00  0.00    +0.000 C 
BRANCH  10  11
ATOM     11  O   UNL     1      -1.318   1.054   1.488  0.00  0.00    +0.000 OA
BRANCH  11  15
ATOM     12  C   UNL     1       1.113  -0.410   0.193  0.00  0.00    +0.000 C 
ATOM     13  C   UNL     1       0.148  -1.479  -0.285  0.00  0.00    +0.000 C 
ATOM     14  C   UNL     1      -1.231  -0.928   0.067  0.00  0.00    +0.000 C 
ATOM     15  C   UNL     1      -1.073   0.598   0.157  0.00  0.00    +0.000 C 
ATOM     16  C   UNL     1       0.394   0.878  -0.177  0.00  0.00    +0.000 C 
ENDBRANCH  11  15
ENDBRANCH  10  11
ENDBRANCH   1  10
TORSDOF 4
