REMARK  Name = *****
REMARK  4 active torsions:
REMARK  status: ('A' for Active; 'I' for Inactive)
REMARK    1  A    between atoms: C_1  and  C_2
REMARK    2  A    between atoms: C_4  and  O_8
REMARK    3  A    between atoms: O_8  and  C_9
REMARK    4  A    between atoms: C_9  and  C_11
REMARK                            x       y       z     vdW  Elec       q    Type
REMARK                         _______ _______ _______ _____ _____    ______ ____
ROOT
ATOM      1  C   UNL     1      -1.365   3.527  -0.696  0.00  0.00    +0.000 C 
ATOM      2  O   UNL     1      -0.491   3.492  -1.549  0.00  0.00    +0.000 OA
ENDROOT
BRANCH   1   3
ATOM      3  C   UNL     1      -2.182   4.734  -0.451  0.00  0.00    +0.000 A 
ATOM      4  C   UNL     1      -3.486   4.664   0.041  0.00  0.00    +0.000 A 
ATOM      5  C   UNL     1      -4.216   5.836   0.247  0.00  0.00    +0.000 A 
ATOM      6  C   UNL     1      -3.653   7.080  -0.045  0.00  0.00    +0.000 A 
ATOM      7  C   UNL     1      -2.356   7.153  -0.553  0.00  0.00    +0.000 A 
ATOM      8  C   UNL     1      -1.623   5.983  -0.760  0.00  0.00    +0.000 A 
ATOM      9 CL   UNL     1      -5.827   5.767   0.855  0.00  0.00    +0.000 Cl
ATOM     10  F   UNL     1      -4.061   3.477   0.291  0.00  0.00    +0.000 F 
ENDBRANCH   1   3
BRANCH   1  11
ATOM     11  O   UNL     1      -1.697   2.549   0.220  0.00  0.00    +0.000 OA
BRANCH  11  15
ATOM     12  C   UNL     1       2.528  -0.042   0.393  0.00  0.00    +0.000 C 
ATOM     13  C   UNL     1       1.041   0.044   0.214  0.00  0.00    +0.000 A 
ATOM     14  C   UNL     1       0.388   1.281   0.276  0.00  0.00    +0.000 A 
ATOM     15  C   UNL     1      -0.997   1.339   0.118  0.00  0.00    +0.000 A 
ATOM     16  C   UNL     1      -1.752   0.181  -0.049  0.00  0.00    +0.000 A 
ATOM     17  C   UNL     1      -1.108  -1.053  -0.093  0.00  0.00    +0.000 A 
ATOM     18  C   UNL     1       0.281  -1.122   0.039  0.00  0.00    +0.000 A 
ENDBRANCH  11  15
ENDBRANCH   1  11
TORSDOF 3
