REMARK  Name = *****
REMARK  3 active torsions:
REMARK  status: ('A' for Active; 'I' for Inactive)
REMARK    1  A    between atoms: C_7  and  C_9
REMARK    2  A    between atoms: C_9  and  S_10
REMARK    3  A    between atoms: S_10  and  C_11
REMARK                            x       y       z     vdW  Elec       q    Type
REMARK                         _______ _______ _______ _____ _____    ______ ____
ROOT
ATOM      1  C   UNL     1       0.706  -1.029   0.877  0.00  0.00    +0.000 C 
ATOM      2  C   UNL     1       1.708  -0.049   0.269  0.00  0.00    +0.000 C 
ATOM      3  C   UNL     1       1.119   0.945  -0.716  0.00  0.00    +0.000 C 
ATOM      4  C   UNL     1      -0.154   1.572  -0.205  0.00  0.00    +0.000 C 
ATOM      5  O   UNL     1      -0.188   2.713   0.249  0.00  0.00    +0.000 OA
ATOM      6  C   UNL     1      -1.418   0.800  -0.322  0.00  0.00    +0.000 C 
ATOM      7  C   UNL     1      -1.518  -0.544  -0.341  0.00  0.00    +0.000 C 
ATOM      8  C   UNL     1      -0.381  -1.520  -0.083  0.00  0.00    +0.000 C 
ENDROOT
BRANCH   7   9
ATOM      9  C   UNL     1      -2.877  -1.180  -0.559  0.00  0.00    +0.000 C 
BRANCH   9  10
ATOM     10  S   UNL     1      -2.943  -1.919  -2.225  0.00  0.00    +0.000 S 
BRANCH  10  11
ATOM     11  C   UNL     1      -4.656  -2.414  -2.264  0.00  0.00    +0.000 A 
ATOM     12  C   UNL     1      -5.494  -1.892  -3.254  0.00  0.00    +0.000 A 
ATOM     13  C   UNL     1      -6.838  -2.267  -3.310  0.00  0.00    +0.000 A 
ATOM     14  C   UNL     1      -7.349  -3.174  -2.383  0.00  0.00    +0.000 A 
ATOM     15  C   UNL     1      -6.515  -3.710  -1.404  0.00  0.00    +0.000 A 
ATOM     16  C   UNL     1      -5.171  -3.335  -1.346  0.00  0.00    +0.000 A 
ENDBRANCH  10  11
ENDBRANCH   9  10
ENDBRANCH   7   9
TORSDOF 3
