REMARK  Name = *****
REMARK  5 active torsions:
REMARK  status: ('A' for Active; 'I' for Inactive)
REMARK    1  A    between atoms: C_1  and  C_2
REMARK    2  A    between atoms: C_4  and  C_19
REMARK    3  A    between atoms: C_6  and  O_8
REMARK    4  A    between atoms: O_8  and  C_9
REMARK    5  A    between atoms: C_9  and  C_11
REMARK                            x       y       z     vdW  Elec       q    Type
REMARK                         _______ _______ _______ _____ _____    ______ ____
ROOT
ATOM      1  C   UNL     1       0.844  -3.834  -0.666  0.00  0.00    +0.000 C 
ATOM      2  O   UNL     1       1.712  -3.628   0.167  0.00  0.00    +0.000 OA
ENDROOT
BRANCH   1   3
ATOM      3  C   UNL     1       0.633  -5.166  -1.299  0.00  0.00    +0.000 A 
ATOM      4  C   UNL     1       1.505  -6.205  -0.942  0.00  0.00    +0.000 A 
ATOM      5  C   UNL     1       1.345  -7.466  -1.508  0.00  0.00    +0.000 A 
ATOM      6  C   UNL     1       0.328  -7.706  -2.424  0.00  0.00    +0.000 A 
ATOM      7  C   UNL     1      -0.545  -6.686  -2.788  0.00  0.00    +0.000 A 
ATOM      8  C   UNL     1      -0.394  -5.414  -2.227  0.00  0.00    +0.000 A 
ATOM      9  F   UNL     1       0.179  -8.922  -2.965  0.00  0.00    +0.000 F 
ATOM     10  F   UNL     1       2.184  -8.452  -1.161  0.00  0.00    +0.000 F 
ENDBRANCH   1   3
BRANCH   1  11
ATOM     11  O   UNL     1      -0.073  -2.930  -1.170  0.00  0.00    +0.000 OA
BRANCH  11  17
ATOM     12  C   UNL     1       2.443   1.285  -0.488  0.00  0.00    +0.000 C 
ATOM     13  C   UNL     1       1.186   0.472  -0.395  0.00  0.00    +0.000 A 
ATOM     14  C   UNL     1       0.034   1.012   0.197  0.00  0.00    +0.000 A 
ATOM     15  C   UNL     1      -1.142   0.256   0.313  0.00  0.00    +0.000 A 
ATOM     16  C   UNL     1      -1.146  -1.070  -0.132  0.00  0.00    +0.000 A 
ATOM     17  C   UNL     1       0.010  -1.616  -0.687  0.00  0.00    +0.000 A 
ATOM     18  C   UNL     1       1.168  -0.855  -0.839  0.00  0.00    +0.000 A 
ATOM     19  C   UNL     1      -2.359   0.843   0.964  0.00  0.00    +0.000 C 
ENDBRANCH  11  17
ENDBRANCH   1  11
TORSDOF 3
