REMARK  Name = *****
REMARK  5 active torsions:
REMARK  status: ('A' for Active; 'I' for Inactive)
REMARK    1  A    between atoms: C_1  and  C_2
REMARK    2  A    between atoms: C_7  and  N_8
REMARK    3  A    between atoms: N_8  and  S_9
REMARK    4  A    between atoms: S_9  and  C_11
REMARK    5  A    between atoms: S_9  and  C_17
REMARK                            x       y       z     vdW  Elec       q    Type
REMARK                         _______ _______ _______ _____ _____    ______ ____
ROOT
ATOM      1  S   UNL     1       2.773  -2.396   0.099  0.00  0.00    +0.000 S 
ATOM      2  O   UNL     1       3.774  -1.829  -0.793  0.00  0.00    +0.000 OA
ENDROOT
BRANCH   1   3
ATOM      3  C   UNL     1       3.215  -1.890   1.760  0.00  0.00    +0.000 A 
ATOM      4  C   UNL     1       2.282  -1.991   2.796  0.00  0.00    +0.000 A 
ATOM      5  C   UNL     1       2.635  -1.576   4.080  0.00  0.00    +0.000 A 
ATOM      6  C   UNL     1       3.912  -1.066   4.325  0.00  0.00    +0.000 A 
ATOM      7  C   UNL     1       4.840  -0.967   3.288  0.00  0.00    +0.000 A 
ATOM      8  C   UNL     1       4.494  -1.376   2.000  0.00  0.00    +0.000 A 
ENDBRANCH   1   3
BRANCH   1   9
ATOM      9  C   UNL     1       3.084  -4.178   0.193  0.00  0.00    +0.000 C 
ATOM     10  F   UNL     1       4.380  -4.465   0.514  0.00  0.00    +0.000 F 
ATOM     11  F   UNL     1       2.315  -4.806   1.130  0.00  0.00    +0.000 F 
ENDBRANCH   1   9
BRANCH   1  12
ATOM     12  N   UNL     1       1.254  -2.184  -0.068  0.00  0.00    +0.000 NA
BRANCH  12  19
ATOM     13  C   UNL     1       2.334   0.769  -0.518  0.00  0.00    +0.000 C 
ATOM     14  C   UNL     1       0.914   0.347  -0.285  0.00  0.00    +0.000 A 
ATOM     15  C   UNL     1      -0.053   1.380  -0.276  0.00  0.00    +0.000 A 
ATOM     16  C   UNL     1      -1.413   1.112  -0.128  0.00  0.00    +0.000 A 
ATOM     17  C   UNL     1      -1.839  -0.198   0.010  0.00  0.00    +0.000 A 
ATOM     18  C   UNL     1      -0.897  -1.227   0.011  0.00  0.00    +0.000 A 
ATOM     19  C   UNL     1       0.482  -0.981  -0.121  0.00  0.00    +0.000 A 
ENDBRANCH  12  19
ENDBRANCH   1  12
TORSDOF 4
