REMARK  Name = *****
REMARK  5 active torsions:
REMARK  status: ('A' for Active; 'I' for Inactive)
REMARK    1  A    between atoms: C_1  and  C_2
REMARK    2  A    between atoms: C_2  and  C_3
REMARK    3  A    between atoms: C_2  and  C_4
REMARK    4  A    between atoms: C_2  and  S_10
REMARK    5  A    between atoms: S_10  and  C_11
REMARK                            x       y       z     vdW  Elec       q    Type
REMARK                         _______ _______ _______ _____ _____    ______ ____
ROOT
ATOM      1  C   UNL     1       0.906   0.092   0.041  0.00  0.00    +0.000 C 
ATOM      2  C   UNL     1       2.439  -0.060  -0.068  0.00  0.00    +0.000 C 
ATOM      3  C   UNL     1       3.051   0.940   0.941  0.00  0.00    +0.000 C 
ENDROOT
BRANCH   2   4
ATOM      4  C   UNL     1       2.973  -1.472   0.225  0.00  0.00    +0.000 A 
ATOM      5  C   UNL     1       4.361  -1.721   0.248  0.00  0.00    +0.000 A 
ATOM      6  C   UNL     1       4.871  -2.996   0.510  0.00  0.00    +0.000 A 
ATOM      7  C   UNL     1       4.005  -4.055   0.755  0.00  0.00    +0.000 A 
ATOM      8  C   UNL     1       2.631  -3.839   0.737  0.00  0.00    +0.000 A 
ATOM      9  C   UNL     1       2.121  -2.563   0.475  0.00  0.00    +0.000 A 
ENDBRANCH   2   4
BRANCH   2  10
ATOM     10  S   UNL     1       2.976   0.526  -1.763  0.00  0.00    +0.000 S 
BRANCH  10  11
ATOM     11  C   UNL     1       2.075  -0.565  -2.848  0.00  0.00    +0.000 A 
ATOM     12  C   UNL     1       0.934  -0.094  -3.506  0.00  0.00    +0.000 A 
ATOM     13  C   UNL     1       0.225  -0.926  -4.375  0.00  0.00    +0.000 A 
ATOM     14  C   UNL     1       0.661  -2.231  -4.601  0.00  0.00    +0.000 A 
ATOM     15  C   UNL     1       1.809  -2.700  -3.965  0.00  0.00    +0.000 A 
ATOM     16  C   UNL     1       2.519  -1.866  -3.098  0.00  0.00    +0.000 A 
ENDBRANCH  10  11
ENDBRANCH   2  10
TORSDOF 3
