REMARK  Name = *****
REMARK  4 active torsions:
REMARK  status: ('A' for Active; 'I' for Inactive)
REMARK    1  A    between atoms: C_3  and  S_6
REMARK    2  A    between atoms: S_6  and  S_7
REMARK    3  A    between atoms: S_7  and  S_8
REMARK    4  A    between atoms: S_8  and  C_9
REMARK                            x       y       z     vdW  Elec       q    Type
REMARK                         _______ _______ _______ _____ _____    ______ ____
ROOT
ATOM      1  S   UNL     1       3.051  -3.168   0.553  0.00  0.00    +0.000 S 
ENDROOT
BRANCH   1   2
ATOM      2  S   UNL     1       1.064  -3.382   0.078  0.00  0.00    +0.000 S 
BRANCH   2   5
ATOM      3  C   UNL     1      -1.489  -0.895  -0.661  0.00  0.00    +0.000 C 
ATOM      4  C   UNL     1      -1.106  -1.753   0.299  0.00  0.00    +0.000 C 
ATOM      5  C   UNL     1       0.393  -1.734   0.439  0.00  0.00    +0.000 C 
ATOM      6  C   UNL     1       0.776  -0.735  -0.618  0.00  0.00    +0.000 C 
ATOM      7  C   UNL     1      -0.323  -0.265  -1.228  0.00  0.00    +0.000 C 
ENDBRANCH   2   5
ENDBRANCH   1   2
BRANCH   1   8
ATOM      8  S   UNL     1       3.145  -3.503   2.578  0.00  0.00    +0.000 S 
BRANCH   8   9
ATOM      9  C   UNL     1       3.258  -5.312   2.673  0.00  0.00    +0.000 C 
ATOM     10  C   UNL     1       3.172  -5.753   4.111  0.00  0.00    +0.000 C 
ATOM     11  C   UNL     1       4.298  -6.396   4.463  0.00  0.00    +0.000 C 
ATOM     12  C   UNL     1       5.198  -6.427   3.338  0.00  0.00    +0.000 C 
ATOM     13  C   UNL     1       4.628  -5.804   2.295  0.00  0.00    +0.000 C 
ENDBRANCH   8   9
ENDBRANCH   1   8
TORSDOF 4
