REMARK  Name = *****
REMARK  3 active torsions:
REMARK  status: ('A' for Active; 'I' for Inactive)
REMARK    1  A    between atoms: C_4  and  C_16
REMARK    2  A    between atoms: C_5  and  C_7
REMARK    3  A    between atoms: C_8  and  C_9
REMARK                            x       y       z     vdW  Elec       q    Type
REMARK                         _______ _______ _______ _____ _____    ______ ____
ROOT
ATOM      1  C   UNL     1      -0.572   2.454   0.103  0.00  0.00    +0.000 C 
ATOM      2  C   UNL     1      -1.788   2.653  -0.428  0.00  0.00    +0.000 C 
ENDROOT
BRANCH   2   3
ATOM      3  C   UNL     1      -2.488   3.940  -0.355  0.00  0.00    +0.000 A 
ATOM      4  C   UNL     1      -1.861   5.144  -0.702  0.00  0.00    +0.000 A 
ATOM      5  C   UNL     1      -2.566   6.351  -0.646  0.00  0.00    +0.000 A 
ATOM      6  C   UNL     1      -3.901   6.355  -0.249  0.00  0.00    +0.000 A 
ATOM      7  C   UNL     1      -4.540   5.163   0.088  0.00  0.00    +0.000 A 
ATOM      8  C   UNL     1      -3.835   3.958   0.030  0.00  0.00    +0.000 A 
ATOM      9 CL   UNL     1      -4.768   7.839  -0.180  0.00  0.00    +0.000 Cl
ENDBRANCH   2   3
BRANCH   1  14
ATOM     10  C   UNL     1       2.092  -0.066  -0.691  0.00  0.00    +0.000 A 
ATOM     11  C   UNL     1       1.588  -1.236  -0.129  0.00  0.00    +0.000 A 
ATOM     12  C   UNL     1       0.356  -1.217   0.526  0.00  0.00    +0.000 A 
ATOM     13  C   UNL     1      -0.382  -0.026   0.620  0.00  0.00    +0.000 A 
ATOM     14  C   UNL     1       0.119   1.156   0.044  0.00  0.00    +0.000 A 
ATOM     15  C   UNL     1       1.365   1.123  -0.602  0.00  0.00    +0.000 A 
BRANCH  13  16
ATOM     16  C   UNL     1      -1.634  -0.058   1.324  0.00  0.00    +0.000 C 
ATOM     17  N   UNL     1      -2.648  -0.110   1.887  0.00  0.00    +0.000 NA
ENDBRANCH  13  16
ENDBRANCH   1  14
TORSDOF 3
