REMARK  Name = *****
REMARK  5 active torsions:
REMARK  status: ('A' for Active; 'I' for Inactive)
REMARK    1  A    between atoms: C_1  and  C_2
REMARK    2  A    between atoms: C_4  and  C_9
REMARK    3  A    between atoms: C_5  and  C_8
REMARK    4  A    between atoms: C_9  and  C_11
REMARK    5  A    between atoms: C_11  and  C_12
REMARK                            x       y       z     vdW  Elec       q    Type
REMARK                         _______ _______ _______ _____ _____    ______ ____
ROOT
ATOM      1  C   UNL     1      -0.383   2.608  -1.814  0.00  0.00    +0.000 C 
ATOM      2  O   UNL     1      -0.810   2.404  -2.948  0.00  0.00    +0.000 OA
ENDROOT
BRANCH   1   6
ATOM      3  C   UNL     1       2.493  -0.228   1.125  0.00  0.00    +0.000 C 
ATOM      4  C   UNL     1       1.139   0.123   0.583  0.00  0.00    +0.000 A 
ATOM      5  C   UNL     1       0.987   1.180  -0.321  0.00  0.00    +0.000 A 
ATOM      6  C   UNL     1      -0.273   1.480  -0.858  0.00  0.00    +0.000 A 
ATOM      7  C   UNL     1      -1.402   0.716  -0.515  0.00  0.00    +0.000 A 
ATOM      8  C   UNL     1      -1.234  -0.356   0.373  0.00  0.00    +0.000 A 
ATOM      9  C   UNL     1       0.021  -0.649   0.915  0.00  0.00    +0.000 A 
ATOM     10  C   UNL     1      -2.761   0.996  -1.092  0.00  0.00    +0.000 C 
ENDBRANCH   1   6
BRANCH   1  11
ATOM     11  C   UNL     1       0.001   3.987  -1.314  0.00  0.00    +0.000 C 
BRANCH  11  12
ATOM     12  C   UNL     1      -1.197   4.770  -0.841  0.00  0.00    +0.000 A 
ATOM     13  C   UNL     1      -1.499   4.858   0.525  0.00  0.00    +0.000 A 
ATOM     14  C   UNL     1      -2.623   5.565   0.955  0.00  0.00    +0.000 A 
ATOM     15  C   UNL     1      -3.457   6.185   0.026  0.00  0.00    +0.000 A 
ATOM     16  C   UNL     1      -3.170   6.096  -1.335  0.00  0.00    +0.000 A 
ATOM     17  C   UNL     1      -2.047   5.389  -1.767  0.00  0.00    +0.000 A 
ENDBRANCH  11  12
ENDBRANCH   1  11
TORSDOF 3
