REMARK  Name = *****
REMARK  4 active torsions:
REMARK  status: ('A' for Active; 'I' for Inactive)
REMARK    1  A    between atoms: C_1  and  C_2
REMARK    2  A    between atoms: C_3  and  S_7
REMARK    3  A    between atoms: S_7  and  S_8
REMARK    4  A    between atoms: S_8  and  C_9
REMARK                            x       y       z     vdW  Elec       q    Type
REMARK                         _______ _______ _______ _____ _____    ______ ____
ROOT
ATOM      1  S   UNL     1       2.215  -1.964  -1.950  0.00  0.00    +0.000 S 
ENDROOT
BRANCH   1   4
ATOM      2  C   UNL     1       2.335   0.611   0.115  0.00  0.00    +0.000 C 
ATOM      3  C   UNL     1       1.189  -0.345   0.057  0.00  0.00    +0.000 A 
ATOM      4  C   UNL     1       1.015  -1.455  -0.754  0.00  0.00    +0.000 A 
ATOM      5  C   UNL     1      -0.229  -2.105  -0.501  0.00  0.00    +0.000 A 
ATOM      6  C   UNL     1      -0.957  -1.478   0.486  0.00  0.00    +0.000 A 
ATOM      7  S   UNL     1      -0.147  -0.113   1.108  0.00  0.00    +0.000 S 
ENDBRANCH   1   4
BRANCH   1   8
ATOM      8  S   UNL     1       1.331  -3.375  -3.157  0.00  0.00    +0.000 S 
BRANCH   8   9
ATOM      9  C   UNL     1       1.865  -4.835  -2.335  0.00  0.00    +0.000 A 
ATOM     10  C   UNL     1       3.148  -5.343  -2.325  0.00  0.00    +0.000 A 
ATOM     11  C   UNL     1       3.241  -6.567  -1.597  0.00  0.00    +0.000 A 
ATOM     12  C   UNL     1       2.024  -6.952  -1.082  0.00  0.00    +0.000 A 
ATOM     13  S   UNL     1       0.779  -5.850  -1.488  0.00  0.00    +0.000 S 
ENDBRANCH   8   9
ENDBRANCH   1   8
TORSDOF 3
