REMARK  Name = *****
REMARK  4 active torsions:
REMARK  status: ('A' for Active; 'I' for Inactive)
REMARK    1  A    between atoms: C_1  and  C_2
REMARK    2  A    between atoms: C_2  and  C_3
REMARK    3  A    between atoms: C_2  and  C_10
REMARK    4  A    between atoms: C_3  and  C_4
REMARK                            x       y       z     vdW  Elec       q    Type
REMARK                         _______ _______ _______ _____ _____    ______ ____
ROOT
ATOM      1  C   UNL     1       1.113  -0.096  -0.120  0.00  0.00    +0.000 C 
ATOM      2  C   UNL     1       2.652  -0.070  -0.043  0.00  0.00    +0.000 C 
ATOM      3 CL   UNL     1       3.245  -1.790  -0.100  0.00  0.00    +0.000 Cl
ENDROOT
BRANCH   2   4
ATOM      4  C   UNL     1       3.091   0.506   1.324  0.00  0.00    +0.000 A 
ATOM      5  C   UNL     1       2.656  -0.100   2.523  0.00  0.00    +0.000 A 
ATOM      6  C   UNL     1       3.026   0.398   3.775  0.00  0.00    +0.000 A 
ATOM      7  C   UNL     1       3.845   1.517   3.864  0.00  0.00    +0.000 A 
ATOM      8  C   UNL     1       4.296   2.132   2.701  0.00  0.00    +0.000 A 
ATOM      9  C   UNL     1       3.926   1.633   1.447  0.00  0.00    +0.000 A 
ENDBRANCH   2   4
BRANCH   2  10
ATOM     10  C   UNL     1       3.245   0.703  -1.264  0.00  0.00    +0.000 C 
BRANCH  10  11
ATOM     11  C   UNL     1       2.836   0.261  -2.656  0.00  0.00    +0.000 A 
ATOM     12  C   UNL     1       1.749   0.867  -3.304  0.00  0.00    +0.000 A 
ATOM     13  C   UNL     1       1.373   0.467  -4.587  0.00  0.00    +0.000 A 
ATOM     14  C   UNL     1       2.081  -0.539  -5.240  0.00  0.00    +0.000 A 
ATOM     15  C   UNL     1       3.168  -1.142  -4.612  0.00  0.00    +0.000 A 
ATOM     16  C   UNL     1       3.546  -0.743  -3.329  0.00  0.00    +0.000 A 
ENDBRANCH  10  11
ENDBRANCH   2  10
TORSDOF 3
