REMARK  Name = *****
REMARK  6 active torsions:
REMARK  status: ('A' for Active; 'I' for Inactive)
REMARK    1  A    between atoms: C_1  and  O_2
REMARK    2  A    between atoms: O_2  and  N_3
REMARK    3  A    between atoms: N_3  and  C_4
REMARK    4  A    between atoms: N_3  and  C_13
REMARK    5  A    between atoms: C_4  and  C_5
REMARK    6  A    between atoms: C_8  and  C_11
REMARK                            x       y       z     vdW  Elec       q    Type
REMARK                         _______ _______ _______ _____ _____    ______ ____
ROOT
ATOM      1  N   UNL     1       2.769   1.079   0.568  0.00  0.00    +0.000 N 
ENDROOT
BRANCH   1   2
ATOM      2  C   UNL     1       3.205  -0.133   1.175  0.00  0.00    +0.000 A 
ATOM      3  C   UNL     1       4.552  -0.330   1.518  0.00  0.00    +0.000 A 
ATOM      4  C   UNL     1       4.983  -1.523   2.105  0.00  0.00    +0.000 A 
ATOM      5  C   UNL     1       4.073  -2.549   2.347  0.00  0.00    +0.000 A 
ATOM      6  C   UNL     1       2.737  -2.383   1.994  0.00  0.00    +0.000 A 
ATOM      7  C   UNL     1       2.309  -1.187   1.409  0.00  0.00    +0.000 A 
ENDBRANCH   1   2
BRANCH   1   9
ATOM      8  C   UNL     1       3.818   1.793  -1.323  0.00  0.00    +0.000 C 
ATOM      9  O   UNL     1       3.767   1.959   0.093  0.00  0.00    +0.000 OA
ENDBRANCH   1   9
BRANCH   1  10
ATOM     10  C   UNL     1       1.809   1.830   1.410  0.00  0.00    +0.000 C 
BRANCH  10  11
ATOM     11  C   UNL     1       0.366   1.468   1.124  0.00  0.00    +0.000 A 
ATOM     12  C   UNL     1      -0.497   1.116   2.170  0.00  0.00    +0.000 A 
ATOM     13  C   UNL     1      -1.835   0.798   1.915  0.00  0.00    +0.000 A 
ATOM     14  C   UNL     1      -2.346   0.844   0.613  0.00  0.00    +0.000 A 
ATOM     15  C   UNL     1      -1.483   1.192  -0.433  0.00  0.00    +0.000 A 
ATOM     16  C   UNL     1      -0.144   1.510  -0.180  0.00  0.00    +0.000 A 
BRANCH  14  17
ATOM     17  C   UNL     1      -3.735   0.485   0.296  0.00  0.00    +0.000 C 
ATOM     18  C   UNL     1      -4.783   0.710   1.099  0.00  0.00    +0.000 C 
ENDBRANCH  14  17
ENDBRANCH  10  11
ENDBRANCH   1  10
TORSDOF 5
