REMARK  Name = *****
REMARK  3 active torsions:
REMARK  status: ('A' for Active; 'I' for Inactive)
REMARK    1  A    between atoms: C_4  and  C_7
REMARK    2  A    between atoms: C_7  and  O_8
REMARK    3  A    between atoms: O_8  and  C_9
REMARK                            x       y       z     vdW  Elec       q    Type
REMARK                         _______ _______ _______ _____ _____    ______ ____
ROOT
ATOM      1  O   UNL     1      -3.590  -0.735  -0.062  0.00  0.00    +0.000 OA
ENDROOT
BRANCH   1   2
ATOM      2  C   UNL     1      -4.948  -0.694  -0.219  0.00  0.00    +0.000 A 
ATOM      3  C   UNL     1      -5.707   0.434  -0.527  0.00  0.00    +0.000 A 
ATOM      4  C   UNL     1      -7.091   0.319  -0.655  0.00  0.00    +0.000 A 
ATOM      5  C   UNL     1      -7.736  -0.896  -0.483  0.00  0.00    +0.000 A 
ATOM      6  C   UNL     1      -6.974  -2.012  -0.176  0.00  0.00    +0.000 A 
ATOM      7  C   UNL     1      -5.591  -1.922  -0.042  0.00  0.00    +0.000 A 
ATOM      8  F   UNL     1      -7.577  -3.196  -0.005  0.00  0.00    +0.000 F 
ATOM      9  F   UNL     1      -7.812   1.409  -0.951  0.00  0.00    +0.000 F 
ENDBRANCH   1   2
BRANCH   1  10
ATOM     10  C   UNL     1      -2.872   0.485  -0.259  0.00  0.00    +0.000 C 
BRANCH  10  14
ATOM     11  C   UNL     1       1.374  -0.193   0.149  0.00  0.00    +0.000 A 
ATOM     12  C   UNL     1       0.595  -1.083  -0.587  0.00  0.00    +0.000 A 
ATOM     13  C   UNL     1      -0.779  -0.871  -0.712  0.00  0.00    +0.000 A 
ATOM     14  C   UNL     1      -1.391   0.230  -0.094  0.00  0.00    +0.000 A 
ATOM     15  C   UNL     1      -0.594   1.124   0.634  0.00  0.00    +0.000 A 
ATOM     16  C   UNL     1       0.781   0.911   0.758  0.00  0.00    +0.000 A 
ENDBRANCH  10  14
ENDBRANCH   1  10
TORSDOF 3
