REMARK  Name = *****
REMARK  2 active torsions:
REMARK  status: ('A' for Active; 'I' for Inactive)
REMARK    1  A    between atoms: C_8  and  S_10
REMARK    2  A    between atoms: S_10  and  C_11
REMARK                            x       y       z     vdW  Elec       q    Type
REMARK                         _______ _______ _______ _____ _____    ______ ____
ROOT
ATOM      1  C   UNL     1       2.038   0.626  -0.162  0.00  0.00    +0.000 A 
ATOM      2  C   UNL     1       1.978  -0.774  -0.156  0.00  0.00    +0.000 A 
ATOM      3  C   UNL     1       0.754  -1.451  -0.093  0.00  0.00    +0.000 A 
ATOM      4  C   UNL     1      -0.377  -0.645  -0.037  0.00  0.00    +0.000 A 
ATOM      5  C   UNL     1      -0.361   0.739  -0.041  0.00  0.00    +0.000 A 
ATOM      6  C   UNL     1       0.871   1.403  -0.105  0.00  0.00    +0.000 A 
ATOM      7  N   UNL     1      -1.643   1.219   0.024  0.00  0.00    +0.000 NA
ATOM      8  C   UNL     1      -2.386   0.128   0.063  0.00  0.00    +0.000 A 
ATOM      9  O   UNL     1      -1.677  -1.047   0.031  0.00  0.00    +0.000 OA
ENDROOT
BRANCH   8  10
ATOM     10  S   UNL     1      -4.125   0.163   0.156  0.00  0.00    +0.000 S 
BRANCH  10  11
ATOM     11  C   UNL     1      -4.458   0.249  -1.594  0.00  0.00    +0.000 A 
ATOM     12  C   UNL     1      -5.106  -0.819  -2.226  0.00  0.00    +0.000 A 
ATOM     13  C   UNL     1      -5.394  -0.761  -3.593  0.00  0.00    +0.000 A 
ATOM     14  C   UNL     1      -5.040   0.369  -4.328  0.00  0.00    +0.000 A 
ATOM     15  C   UNL     1      -4.403   1.442  -3.708  0.00  0.00    +0.000 A 
ATOM     16  C   UNL     1      -4.117   1.384  -2.342  0.00  0.00    +0.000 A 
ATOM     17 CL   UNL     1      -5.395   0.440  -6.010  0.00  0.00    +0.000 Cl
ENDBRANCH  10  11
ENDBRANCH   8  10
TORSDOF 2
