REMARK  Name = *****
REMARK  5 active torsions:
REMARK  status: ('A' for Active; 'I' for Inactive)
REMARK    1  A    between atoms: C_1  and  C_2
REMARK    2  A    between atoms: C_3  and  N_9
REMARK    3  A    between atoms: N_9  and  N_10
REMARK    4  A    between atoms: N_10  and  C_12
REMARK    5  A    between atoms: C_13  and  C_19
REMARK                            x       y       z     vdW  Elec       q    Type
REMARK                         _______ _______ _______ _____ _____    ______ ____
ROOT
ATOM      1  N   UNL     1       2.750  -1.271   0.145  0.00  0.00    +0.000 N 
ATOM      2  H   UNL     1       2.756  -2.233   0.356  0.00  0.00    +0.000 HD
ENDROOT
BRANCH   1   5
ATOM      3  C   UNL     1       0.421  -3.027   0.241  0.00  0.00    +0.000 C 
ATOM      4  C   UNL     1       0.320  -1.533   0.082  0.00  0.00    +0.000 A 
ATOM      5  C   UNL     1       1.467  -0.702   0.043  0.00  0.00    +0.000 A 
ATOM      6  C   UNL     1       1.279   0.679  -0.126  0.00  0.00    +0.000 A 
ATOM      7  C   UNL     1       0.002   1.234  -0.237  0.00  0.00    +0.000 A 
ATOM      8  C   UNL     1      -1.107   0.408  -0.186  0.00  0.00    +0.000 A 
ATOM      9  C   UNL     1      -0.962  -0.963  -0.029  0.00  0.00    +0.000 A 
ATOM     10  F   UNL     1      -2.334   0.935  -0.291  0.00  0.00    +0.000 F 
ENDBRANCH   1   5
BRANCH   1  11
ATOM     11  N   UNL     1       4.035  -0.693  -0.003  0.00  0.00    +0.000 N 
ATOM     12  O   UNL     1       4.211   0.445  -0.386  0.00  0.00    +0.000 OA
BRANCH  11  13
ATOM     13  C   UNL     1       5.201  -1.517   0.225  0.00  0.00    +0.000 A 
ATOM     14  C   UNL     1       5.485  -2.022   1.508  0.00  0.00    +0.000 A 
ATOM     15  C   UNL     1       6.602  -2.857   1.653  0.00  0.00    +0.000 A 
ATOM     16  C   UNL     1       7.412  -3.146   0.556  0.00  0.00    +0.000 A 
ATOM     17  C   UNL     1       7.137  -2.624  -0.702  0.00  0.00    +0.000 A 
ATOM     18  C   UNL     1       6.024  -1.803  -0.874  0.00  0.00    +0.000 A 
ATOM     19  F   UNL     1       8.477  -3.942   0.719  0.00  0.00    +0.000 F 
ATOM     20  C   UNL     1       4.632  -1.709   2.704  0.00  0.00    +0.000 C 
ENDBRANCH  11  13
ENDBRANCH   1  11
TORSDOF 3
