REMARK  Name = *****
REMARK  6 active torsions:
REMARK  status: ('A' for Active; 'I' for Inactive)
REMARK    1  A    between atoms: C_1  and  C_2
REMARK    2  A    between atoms: C_4  and  C_19
REMARK    3  A    between atoms: C_5  and  C_9
REMARK    4  A    between atoms: C_6  and  C_8
REMARK    5  A    between atoms: C_9  and  C_10
REMARK    6  A    between atoms: C_10  and  C_12
REMARK                            x       y       z     vdW  Elec       q    Type
REMARK                         _______ _______ _______ _____ _____    ______ ____
ROOT
ATOM      1  C   UNL     1      -2.013  -1.970  -0.190  0.00  0.00    +0.000 C 
ENDROOT
BRANCH   1   6
ATOM      2  C   UNL     1       2.150   2.131   0.125  0.00  0.00    +0.000 C 
ATOM      3  C   UNL     1       1.085   1.079   0.025  0.00  0.00    +0.000 A 
ATOM      4  C   UNL     1       1.416  -0.275   0.098  0.00  0.00    +0.000 A 
ATOM      5  C   UNL     1       0.427  -1.272   0.045  0.00  0.00    +0.000 A 
ATOM      6  C   UNL     1      -0.933  -0.903  -0.099  0.00  0.00    +0.000 A 
ATOM      7  C   UNL     1      -1.275   0.471  -0.127  0.00  0.00    +0.000 A 
ATOM      8  C   UNL     1      -0.260   1.441  -0.071  0.00  0.00    +0.000 A 
ATOM      9  C   UNL     1      -2.703   0.938  -0.229  0.00  0.00    +0.000 C 
ATOM     10  C   UNL     1       0.862  -2.711   0.128  0.00  0.00    +0.000 C 
ENDBRANCH   1   6
BRANCH   1  11
ATOM     11  C   UNL     1      -2.570  -2.417   1.154  0.00  0.00    +0.000 C 
ATOM     12  O   UNL     1      -2.301  -1.862   2.218  0.00  0.00    +0.000 OA
BRANCH  11  13
ATOM     13  C   UNL     1      -3.503  -3.587   1.181  0.00  0.00    +0.000 A 
ATOM     14  C   UNL     1      -3.978  -4.195   0.016  0.00  0.00    +0.000 A 
ATOM     15  C   UNL     1      -4.845  -5.281   0.114  0.00  0.00    +0.000 A 
ATOM     16  C   UNL     1      -5.252  -5.775   1.348  0.00  0.00    +0.000 A 
ATOM     17  C   UNL     1      -4.786  -5.173   2.513  0.00  0.00    +0.000 A 
ATOM     18  C   UNL     1      -3.916  -4.082   2.430  0.00  0.00    +0.000 A 
ATOM     19  F   UNL     1      -5.296  -5.860  -1.006  0.00  0.00    +0.000 F 
ENDBRANCH  11  13
ENDBRANCH   1  11
TORSDOF 3
