REMARK  Name = *****
REMARK  5 active torsions:
REMARK  status: ('A' for Active; 'I' for Inactive)
REMARK    1  A    between atoms: C_1  and  C_2
REMARK    2  A    between atoms: C_4  and  C_17
REMARK    3  A    between atoms: C_6  and  O_8
REMARK    4  A    between atoms: O_8  and  C_9
REMARK    5  A    between atoms: C_10  and  C_11
REMARK                            x       y       z     vdW  Elec       q    Type
REMARK                         _______ _______ _______ _____ _____    ______ ____
ROOT
ATOM      1  O   UNL     1       0.121  -3.114   0.003  0.00  0.00    +0.000 OA
ENDROOT
BRANCH   1   7
ATOM      2  C   UNL     1       2.464   1.219   0.347  0.00  0.00    +0.000 C 
ATOM      3  C   UNL     1       1.223   0.408   0.120  0.00  0.00    +0.000 A 
ATOM      4  C   UNL     1      -0.019   1.039  -0.039  0.00  0.00    +0.000 A 
ATOM      5  C   UNL     1      -1.193   0.291  -0.211  0.00  0.00    +0.000 A 
ATOM      6  C   UNL     1      -1.118  -1.107  -0.195  0.00  0.00    +0.000 A 
ATOM      7  C   UNL     1       0.115  -1.740  -0.044  0.00  0.00    +0.000 A 
ATOM      8  C   UNL     1       1.280  -0.991   0.136  0.00  0.00    +0.000 A 
ATOM      9  C   UNL     1      -2.520   0.977  -0.336  0.00  0.00    +0.000 C 
ENDBRANCH   1   7
BRANCH   1  10
ATOM     10  C   UNL     1       0.966  -3.766  -0.868  0.00  0.00    +0.000 C 
ATOM     11  C   UNL     1       1.190  -5.081  -0.772  0.00  0.00    +0.000 C 
BRANCH  11  12
ATOM     12  C   UNL     1       2.081  -5.840  -1.660  0.00  0.00    +0.000 A 
ATOM     13  C   UNL     1       2.771  -6.943  -1.141  0.00  0.00    +0.000 A 
ATOM     14  C   UNL     1       3.611  -7.708  -1.955  0.00  0.00    +0.000 A 
ATOM     15  C   UNL     1       3.761  -7.383  -3.301  0.00  0.00    +0.000 A 
ATOM     16  C   UNL     1       3.067  -6.299  -3.835  0.00  0.00    +0.000 A 
ATOM     17  C   UNL     1       2.228  -5.534  -3.020  0.00  0.00    +0.000 A 
ENDBRANCH  11  12
ENDBRANCH   1  10
TORSDOF 3
