REMARK  Name = *****
REMARK  3 active torsions:
REMARK  status: ('A' for Active; 'I' for Inactive)
REMARK    1  A    between atoms: C_8  and  C_9
REMARK    2  A    between atoms: C_9  and  C_11
REMARK    3  A    between atoms: C_11  and  C_12
REMARK                            x       y       z     vdW  Elec       q    Type
REMARK                         _______ _______ _______ _____ _____    ______ ____
ROOT
ATOM      1  C   UNL     1       3.587  -1.375  -1.304  0.00  0.00    +0.000 C 
ATOM      2  O   UNL     1       3.415  -1.193  -2.506  0.00  0.00    +0.000 OA
ENDROOT
BRANCH   1  10
ATOM      3  C   UNL     1      -1.233  -0.411  -0.306  0.00  0.00    +0.000 C 
ATOM      4  C   UNL     1      -0.673   1.029  -0.195  0.00  0.00    +0.000 C 
ATOM      5  C   UNL     1       0.708   0.807   0.466  0.00  0.00    +0.000 C 
ATOM      6  C   UNL     1       0.365  -0.334   1.436  0.00  0.00    +0.000 C 
ATOM      7  C   UNL     1      -0.099  -1.267   0.306  0.00  0.00    +0.000 C 
ATOM      8  C   UNL     1       1.061  -1.249  -0.685  0.00  0.00    +0.000 C 
ATOM      9  C   UNL     1       1.604   0.146  -0.577  0.00  0.00    +0.000 C 
ATOM     10  C   UNL     1       2.517  -1.037  -0.311  0.00  0.00    +0.000 C 
ENDBRANCH   1  10
BRANCH   1  11
ATOM     11  C   UNL     1       4.856  -1.979  -0.744  0.00  0.00    +0.000 C 
BRANCH  11  12
ATOM     12  C   UNL     1       5.645  -1.018   0.109  0.00  0.00    +0.000 A 
ATOM     13  C   UNL     1       5.887  -1.296   1.461  0.00  0.00    +0.000 A 
ATOM     14  C   UNL     1       6.617  -0.403   2.246  0.00  0.00    +0.000 A 
ATOM     15  C   UNL     1       7.117   0.772   1.688  0.00  0.00    +0.000 A 
ATOM     16  C   UNL     1       6.888   1.055   0.343  0.00  0.00    +0.000 A 
ATOM     17  C   UNL     1       6.158   0.164  -0.445  0.00  0.00    +0.000 A 
ENDBRANCH  11  12
ENDBRANCH   1  11
TORSDOF 3
