REMARK  Name = *****
REMARK  5 active torsions:
REMARK  status: ('A' for Active; 'I' for Inactive)
REMARK    1  A    between atoms: C_1  and  O_2
REMARK    2  A    between atoms: O_2  and  N_3
REMARK    3  A    between atoms: C_4  and  C_5
REMARK    4  A    between atoms: C_4  and  C_12
REMARK    5  A    between atoms: C_5  and  C_6
REMARK                            x       y       z     vdW  Elec       q    Type
REMARK                         _______ _______ _______ _____ _____    ______ ____
ROOT
ATOM      1  N   UNL     1       2.828  -0.466  -0.871  0.00  0.00    +0.000 NA
ATOM      2  C   UNL     1       4.088  -0.790  -0.819  0.00  0.00    +0.000 C 
ENDROOT
BRANCH   2   3
ATOM      3  C   UNL     1       5.127  -0.018  -0.102  0.00  0.00    +0.000 A 
ATOM      4  C   UNL     1       5.654   1.114  -0.736  0.00  0.00    +0.000 A 
ATOM      5  C   UNL     1       6.647   1.862  -0.103  0.00  0.00    +0.000 A 
ATOM      6  C   UNL     1       7.108   1.481   1.158  0.00  0.00    +0.000 A 
ATOM      7  C   UNL     1       6.577   0.353   1.789  0.00  0.00    +0.000 A 
ATOM      8  C   UNL     1       5.583  -0.401   1.161  0.00  0.00    +0.000 A 
ATOM      9 CL   UNL     1       4.959  -1.781   1.988  0.00  0.00    +0.000 Cl
ENDBRANCH   2   3
BRANCH   1  11
ATOM     10  C   UNL     1       1.167   0.956  -0.188  0.00  0.00    +0.000 C 
ATOM     11  O   UNL     1       2.563   0.692  -0.125  0.00  0.00    +0.000 OA
ENDBRANCH   1  11
BRANCH   2  12
ATOM     12  C   UNL     1       4.561  -2.021  -1.575  0.00  0.00    +0.000 C 
BRANCH  12  13
ATOM     13  C   UNL     1       5.170  -1.670  -2.911  0.00  0.00    +0.000 A 
ATOM     14  C   UNL     1       4.360  -1.206  -3.957  0.00  0.00    +0.000 A 
ATOM     15  C   UNL     1       4.920  -0.861  -5.187  0.00  0.00    +0.000 A 
ATOM     16  C   UNL     1       6.295  -0.974  -5.383  0.00  0.00    +0.000 A 
ATOM     17  C   UNL     1       7.111  -1.432  -4.350  0.00  0.00    +0.000 A 
ATOM     18  C   UNL     1       6.552  -1.778  -3.118  0.00  0.00    +0.000 A 
ENDBRANCH  12  13
ENDBRANCH   2  12
TORSDOF 4
