REMARK  Name = *****
REMARK  4 active torsions:
REMARK  status: ('A' for Active; 'I' for Inactive)
REMARK    1  A    between atoms: C_1  and  C_9
REMARK    2  A    between atoms: C_2  and  C_3
REMARK    3  A    between atoms: C_14  and  O_15
REMARK    4  A    between atoms: O_15  and  C_16
REMARK                            x       y       z     vdW  Elec       q    Type
REMARK                         _______ _______ _______ _____ _____    ______ ____
ROOT
ATOM      1  C   UNL     1       2.263   0.356  -0.149  0.00  0.00    +0.000 C 
ATOM      2  C   UNL     1       2.369  -0.206  -1.365  0.00  0.00    +0.000 C 
ENDROOT
BRANCH   2   3
ATOM      3  C   UNL     1       1.675   0.301  -2.557  0.00  0.00    +0.000 A 
ATOM      4  C   UNL     1       0.348   0.746  -2.514  0.00  0.00    +0.000 A 
ATOM      5  C   UNL     1      -0.291   1.189  -3.675  0.00  0.00    +0.000 A 
ATOM      6  C   UNL     1       0.388   1.183  -4.891  0.00  0.00    +0.000 A 
ATOM      7  C   UNL     1       1.704   0.729  -4.949  0.00  0.00    +0.000 A 
ATOM      8  C   UNL     1       2.342   0.284  -3.789  0.00  0.00    +0.000 A 
ENDBRANCH   2   3
BRANCH   1   9
ATOM      9  C   UNL     1       2.975  -0.135   1.048  0.00  0.00    +0.000 A 
ATOM     10  C   UNL     1       3.034  -1.513   1.315  0.00  0.00    +0.000 A 
ATOM     11  C   UNL     1       3.676  -1.992   2.457  0.00  0.00    +0.000 A 
ATOM     12  C   UNL     1       4.254  -1.099   3.352  0.00  0.00    +0.000 A 
ATOM     13  C   UNL     1       4.190   0.276   3.111  0.00  0.00    +0.000 A 
ATOM     14  C   UNL     1       3.551   0.769   1.966  0.00  0.00    +0.000 A 
BRANCH  14  15
ATOM     15  O   UNL     1       3.437   2.104   1.661  0.00  0.00    +0.000 OA
ATOM     16  C   UNL     1       4.109   3.031   2.502  0.00  0.00    +0.000 C 
ENDBRANCH  14  15
ENDBRANCH   1   9
TORSDOF 3
