REMARK  Name = *****
REMARK  4 active torsions:
REMARK  status: ('A' for Active; 'I' for Inactive)
REMARK    1  A    between atoms: C_2  and  C_3
REMARK    2  A    between atoms: C_3  and  C_4
REMARK    3  A    between atoms: C_3  and  C_10
REMARK    4  A    between atoms: C_4  and  C_5
REMARK                            x       y       z     vdW  Elec       q    Type
REMARK                         _______ _______ _______ _____ _____    ______ ____
ROOT
ATOM      1  C   UNL     1       3.190   0.627  -0.923  0.00  0.00    +0.000 C 
ENDROOT
BRANCH   1   2
ATOM      2  C   UNL     1       4.706   0.636  -0.739  0.00  0.00    +0.000 A 
ATOM      3  C   UNL     1       5.322   0.536   0.518  0.00  0.00    +0.000 A 
ATOM      4  C   UNL     1       6.714   0.565   0.637  0.00  0.00    +0.000 A 
ATOM      5  C   UNL     1       7.511   0.705  -0.496  0.00  0.00    +0.000 A 
ATOM      6  C   UNL     1       6.918   0.821  -1.750  0.00  0.00    +0.000 A 
ATOM      7  C   UNL     1       5.528   0.791  -1.870  0.00  0.00    +0.000 A 
ENDBRANCH   1   2
BRANCH   1   9
ATOM      8  C   UNL     1       2.023   2.663  -1.874  0.00  0.00    +0.000 C 
ATOM      9  C   UNL     1       2.665   2.052  -0.869  0.00  0.00    +0.000 C 
ENDBRANCH   1   9
BRANCH   1  10
ATOM     10  C   UNL     1       2.389  -0.249   0.079  0.00  0.00    +0.000 C 
BRANCH  10  11
ATOM     11  C   UNL     1       2.622  -1.735   0.058  0.00  0.00    +0.000 C 
ATOM     12  C   UNL     1       3.385  -2.475  -0.759  0.00  0.00    +0.000 C 
ATOM     13  C   UNL     1       3.299  -3.932  -0.447  0.00  0.00    +0.000 C 
ATOM     14  C   UNL     1       2.618  -3.946   0.918  0.00  0.00    +0.000 C 
ATOM     15  C   UNL     1       1.901  -2.604   1.047  0.00  0.00    +0.000 C 
ENDBRANCH  10  11
ENDBRANCH   1  10
TORSDOF 4
