REMARK  Name = *****
REMARK  1 active torsions:
REMARK  status: ('A' for Active; 'I' for Inactive)
REMARK    1  A    between atoms: C_4  and  C_5
REMARK                            x       y       z     vdW  Elec       q    Type
REMARK                         _______ _______ _______ _____ _____    ______ ____
ROOT
ATOM      1  C   UNL     1       0.845  -1.905  -0.142  0.00  0.00    +0.000 C 
ATOM      2  C   UNL     1       2.083  -1.048   0.158  0.00  0.00    +0.000 C 
ATOM      3  C   UNL     1       1.661   0.393  -0.034  0.00  0.00    +0.000 C 
ATOM      4  C   UNL     1       2.419   1.476  -0.269  0.00  0.00    +0.000 C 
ATOM      5  C   UNL     1       0.193   0.400  -0.012  0.00  0.00    +0.000 A 
ATOM      6  C   UNL     1      -0.703   1.459   0.047  0.00  0.00    +0.000 A 
ATOM      7  C   UNL     1      -2.074   1.183   0.071  0.00  0.00    +0.000 A 
ATOM      8  C   UNL     1      -2.535  -0.140   0.035  0.00  0.00    +0.000 A 
ATOM      9  C   UNL     1      -1.632  -1.202  -0.023  0.00  0.00    +0.000 A 
ATOM     10  C   UNL     1      -0.273  -0.917  -0.037  0.00  0.00    +0.000 A 
ENDROOT
BRANCH   4  11
ATOM     11  C   UNL     1       3.844   1.460  -0.310  0.00  0.00    +0.000 A 
ATOM     12  C   UNL     1       4.769   0.746   0.434  0.00  0.00    +0.000 A 
ATOM     13  C   UNL     1       6.120   1.033   0.082  0.00  0.00    +0.000 A 
ATOM     14  C   UNL     1       6.200   1.976  -0.915  0.00  0.00    +0.000 A 
ATOM     15  S   UNL     1       4.658   2.515  -1.409  0.00  0.00    +0.000 S 
ENDBRANCH   4  11
TORSDOF 1
