REMARK  Name = *****
REMARK  3 active torsions:
REMARK  status: ('A' for Active; 'I' for Inactive)
REMARK    1  A    between atoms: C_1  and  C_2
REMARK    2  A    between atoms: C_5  and  C_7
REMARK    3  A    between atoms: C_8  and  C_9
REMARK                            x       y       z     vdW  Elec       q    Type
REMARK                         _______ _______ _______ _____ _____    ______ ____
ROOT
ATOM      1  C   UNL     1       5.792  -1.819  -0.077  0.00  0.00    +0.000 C 
ATOM      2  C   UNL     1       6.764  -2.525  -0.096  0.00  0.00    +0.000 C 
ENDROOT
BRANCH   2   3
ATOM      3  C   UNL     1       7.914  -3.374  -0.120  0.00  0.00    +0.000 A 
ATOM      4  C   UNL     1       9.192  -2.819  -0.228  0.00  0.00    +0.000 A 
ATOM      5  C   UNL     1      10.316  -3.650  -0.253  0.00  0.00    +0.000 A 
ATOM      6  C   UNL     1      10.156  -5.033  -0.169  0.00  0.00    +0.000 A 
ATOM      7  C   UNL     1       8.883  -5.592  -0.061  0.00  0.00    +0.000 A 
ATOM      8  C   UNL     1       7.760  -4.761  -0.037  0.00  0.00    +0.000 A 
ATOM      9 CL   UNL     1      11.539  -6.056  -0.200  0.00  0.00    +0.000 Cl
ENDBRANCH   2   3
BRANCH   1  14
ATOM     10  C   UNL     1       0.880   0.137  -0.022  0.00  0.00    +0.000 C 
ATOM     11  C   UNL     1       2.361  -0.031  -0.029  0.00  0.00    +0.000 A 
ATOM     12  C   UNL     1       3.337   0.944  -0.010  0.00  0.00    +0.000 A 
ATOM     13  C   UNL     1       4.652   0.389  -0.025  0.00  0.00    +0.000 A 
ATOM     14  C   UNL     1       4.634  -0.988  -0.055  0.00  0.00    +0.000 A 
ATOM     15  S   UNL     1       3.041  -1.602  -0.064  0.00  0.00    +0.000 S 
ENDBRANCH   1  14
TORSDOF 2
