REMARK  Name = *****
REMARK  3 active torsions:
REMARK  status: ('A' for Active; 'I' for Inactive)
REMARK    1  A    between atoms: C_1  and  C_2
REMARK    2  A    between atoms: C_5  and  C_8
REMARK    3  A    between atoms: C_10  and  C_11
REMARK                            x       y       z     vdW  Elec       q    Type
REMARK                         _______ _______ _______ _____ _____    ______ ____
ROOT
ATOM      1  C   UNL     1      -3.174  -0.053  -0.632  0.00  0.00    +0.000 C 
ATOM      2  C   UNL     1      -4.318   0.875  -0.948  0.00  0.00    +0.000 C 
ATOM      3  C   UNL     1      -3.432   1.173   0.234  0.00  0.00    +0.000 C 
ENDROOT
BRANCH   1   8
ATOM      4  C   UNL     1      -4.193  -5.407   1.493  0.00  0.00    +0.000 C 
ATOM      5  C   UNL     1      -3.912  -4.044   0.934  0.00  0.00    +0.000 A 
ATOM      6  C   UNL     1      -4.511  -3.626  -0.257  0.00  0.00    +0.000 A 
ATOM      7  C   UNL     1      -4.271  -2.342  -0.757  0.00  0.00    +0.000 A 
ATOM      8  C   UNL     1      -3.443  -1.433  -0.079  0.00  0.00    +0.000 A 
ATOM      9  C   UNL     1      -2.854  -1.868   1.118  0.00  0.00    +0.000 A 
ATOM     10  C   UNL     1      -3.089  -3.151   1.624  0.00  0.00    +0.000 A 
ENDBRANCH   1   8
BRANCH   3  11
ATOM     11  C   UNL     1      -2.473   2.339   0.190  0.00  0.00    +0.000 A 
ATOM     12  C   UNL     1      -2.923   3.644  -0.065  0.00  0.00    +0.000 A 
ATOM     13  C   UNL     1      -2.042   4.728  -0.090  0.00  0.00    +0.000 A 
ATOM     14  C   UNL     1      -0.685   4.527   0.148  0.00  0.00    +0.000 A 
ATOM     15  C   UNL     1      -0.214   3.245   0.413  0.00  0.00    +0.000 A 
ATOM     16  C   UNL     1      -1.101   2.166   0.437  0.00  0.00    +0.000 A 
ENDBRANCH   3  11
TORSDOF 2
