REMARK  Name = *****
REMARK  5 active torsions:
REMARK  status: ('A' for Active; 'I' for Inactive)
REMARK    1  A    between atoms: C_1  and  C_2
REMARK    2  A    between atoms: C_2  and  N_4
REMARK    3  A    between atoms: N_4  and  C_5
REMARK    4  A    between atoms: C_10  and  C_11
REMARK    5  A    between atoms: C_12  and  C_13
REMARK                            x       y       z     vdW  Elec       q    Type
REMARK                         _______ _______ _______ _____ _____    ______ ____
ROOT
ATOM      1  C   UNL     1       4.890   0.676   0.806  0.00  0.00    +0.000 A 
ATOM      2  C   UNL     1       5.703   0.905  -0.308  0.00  0.00    +0.000 A 
ATOM      3  C   UNL     1       7.091   1.028  -0.177  0.00  0.00    +0.000 A 
ATOM      4  C   UNL     1       7.689   0.940   1.074  0.00  0.00    +0.000 A 
ATOM      5  C   UNL     1       6.897   0.736   2.201  0.00  0.00    +0.000 A 
ATOM      6  C   UNL     1       5.504   0.609   2.081  0.00  0.00    +0.000 A 
ENDROOT
BRANCH   1   7
ATOM      7  N   UNL     1       3.475   0.578   0.732  0.00  0.00    +0.000 N 
ATOM      8  H   UNL     1       3.019   0.714   1.594  0.00  0.00    +0.000 HD
BRANCH   7  10
ATOM      9  C   UNL     1       1.164   0.555   0.053  0.00  0.00    +0.000 C 
ATOM     10  C   UNL     1       2.616   0.329  -0.327  0.00  0.00    +0.000 C 
ATOM     11  S   UNL     1       2.957  -0.269  -1.853  0.00  0.00    +0.000 S 
ENDBRANCH   7  10
ENDBRANCH   1   7
BRANCH   6  12
ATOM     12  C   UNL     1       4.757   0.373   3.327  0.00  0.00    +0.000 C 
ATOM     13  C   UNL     1       4.344  -0.858   3.664  0.00  0.00    +0.000 C 
BRANCH  13  14
ATOM     14  C   UNL     1       3.651  -1.176   4.920  0.00  0.00    +0.000 A 
ATOM     15  C   UNL     1       2.692  -0.327   5.486  0.00  0.00    +0.000 A 
ATOM     16  C   UNL     1       2.039  -0.682   6.670  0.00  0.00    +0.000 A 
ATOM     17  C   UNL     1       2.334  -1.891   7.295  0.00  0.00    +0.000 A 
ATOM     18  C   UNL     1       3.276  -2.750   6.735  0.00  0.00    +0.000 A 
ATOM     19  C   UNL     1       3.926  -2.397   5.550  0.00  0.00    +0.000 A 
ENDBRANCH  13  14
ENDBRANCH   6  12
TORSDOF 4
