REMARK  Name = *****
REMARK  4 active torsions:
REMARK  status: ('A' for Active; 'I' for Inactive)
REMARK    1  A    between atoms: C_3  and  C_8
REMARK    2  A    between atoms: C_8  and  C_9
REMARK    3  A    between atoms: C_9  and  C_10
REMARK    4  A    between atoms: C_10  and  C_12
REMARK                            x       y       z     vdW  Elec       q    Type
REMARK                         _______ _______ _______ _____ _____    ______ ____
ROOT
ATOM      1  C   UNL     1      -1.905   4.939  -0.440  0.00  0.00    +0.000 C 
ATOM      2  O   UNL     1      -3.120   4.973  -0.263  0.00  0.00    +0.000 OA
ENDROOT
BRANCH   1   3
ATOM      3  C   UNL     1      -1.184   6.211  -0.756  0.00  0.00    +0.000 A 
ATOM      4  C   UNL     1       0.203   6.263  -0.922  0.00  0.00    +0.000 A 
ATOM      5  C   UNL     1       0.818   7.480  -1.217  0.00  0.00    +0.000 A 
ATOM      6  C   UNL     1       0.071   8.649  -1.350  0.00  0.00    +0.000 A 
ATOM      7  C   UNL     1      -1.311   8.606  -1.186  0.00  0.00    +0.000 A 
ATOM      8  C   UNL     1      -1.936   7.390  -0.889  0.00  0.00    +0.000 A 
ATOM      9 CL   UNL     1       0.837  10.146  -1.715  0.00  0.00    +0.000 Cl
ATOM     10  F   UNL     1       2.150   7.500  -1.370  0.00  0.00    +0.000 F 
ENDBRANCH   1   3
BRANCH   1  11
ATOM     11  C   UNL     1      -1.107   3.652  -0.347  0.00  0.00    +0.000 C 
BRANCH  11  12
ATOM     12  C   UNL     1      -2.008   2.448  -0.075  0.00  0.00    +0.000 C 
BRANCH  12  15
ATOM     13  C   UNL     1       0.052  -0.448   1.315  0.00  0.00    +0.000 A 
ATOM     14  C   UNL     1      -0.708   0.722   1.240  0.00  0.00    +0.000 A 
ATOM     15  C   UNL     1      -1.208   1.171   0.009  0.00  0.00    +0.000 A 
ATOM     16  C   UNL     1      -0.927   0.433  -1.148  0.00  0.00    +0.000 A 
ATOM     17  C   UNL     1      -0.169  -0.731  -1.061  0.00  0.00    +0.000 A 
ATOM     18  C   UNL     1       0.322  -1.178   0.159  0.00  0.00    +0.000 A 
ATOM     19  F   UNL     1       0.094  -1.429  -2.174  0.00  0.00    +0.000 F 
ENDBRANCH  12  15
ENDBRANCH  11  12
ENDBRANCH   1  11
TORSDOF 4
