REMARK  Name = *****
REMARK  5 active torsions:
REMARK  status: ('A' for Active; 'I' for Inactive)
REMARK    1  A    between atoms: N_2  and  C_3
REMARK    2  A    between atoms: C_8  and  C_9
REMARK    3  A    between atoms: C_9  and  O_10
REMARK    4  A    between atoms: O_10  and  C_11
REMARK    5  A    between atoms: C_11  and  C_12
REMARK                            x       y       z     vdW  Elec       q    Type
REMARK                         _______ _______ _______ _____ _____    ______ ____
ROOT
ATOM      1  C   UNL     1      -0.592   2.444  -0.151  0.00  0.00    +0.000 C 
ENDROOT
BRANCH   1   7
ATOM      2  C   UNL     1       1.081   0.676  -0.918  0.00  0.00    +0.000 A 
ATOM      3  C   UNL     1       1.711  -0.564  -0.777  0.00  0.00    +0.000 A 
ATOM      4  C   UNL     1       1.351  -1.404   0.275  0.00  0.00    +0.000 A 
ATOM      5  C   UNL     1       0.368  -1.000   1.177  0.00  0.00    +0.000 A 
ATOM      6  C   UNL     1      -0.258   0.241   1.027  0.00  0.00    +0.000 A 
ATOM      7  C   UNL     1       0.080   1.100  -0.032  0.00  0.00    +0.000 A 
BRANCH   2   9
ATOM      8  C   UNL     1       1.848   2.158  -2.863  0.00  0.00    +0.000 C 
ATOM      9  N   UNL     1       1.489   1.485  -1.973  0.00  0.00    +0.000 NA
ENDBRANCH   2   9
ENDBRANCH   1   7
BRANCH   1  10
ATOM     10  O   UNL     1      -2.001   2.275   0.000  0.00  0.00    +0.000 OA
BRANCH  10  11
ATOM     11  C   UNL     1      -2.694   3.517  -0.112  0.00  0.00    +0.000 C 
BRANCH  11  12
ATOM     12  C   UNL     1      -4.184   3.286  -0.089  0.00  0.00    +0.000 A 
ATOM     13  C   UNL     1      -5.034   4.222   0.518  0.00  0.00    +0.000 A 
ATOM     14  C   UNL     1      -6.419   4.041   0.501  0.00  0.00    +0.000 A 
ATOM     15  C   UNL     1      -6.970   2.929  -0.131  0.00  0.00    +0.000 A 
ATOM     16  C   UNL     1      -6.139   1.997  -0.749  0.00  0.00    +0.000 A 
ATOM     17  C   UNL     1      -4.755   2.178  -0.733  0.00  0.00    +0.000 A 
ENDBRANCH  11  12
ENDBRANCH  10  11
ENDBRANCH   1  10
TORSDOF 5
