REMARK  Name = *****
REMARK  3 active torsions:
REMARK  status: ('A' for Active; 'I' for Inactive)
REMARK    1  A    between atoms: C_4  and  C_7
REMARK    2  A    between atoms: C_7  and  C_8
REMARK    3  A    between atoms: C_9  and  C_10
REMARK                            x       y       z     vdW  Elec       q    Type
REMARK                         _______ _______ _______ _____ _____    ______ ____
ROOT
ATOM      1  C   UNL     1      -2.807   0.427  -0.179  0.00  0.00    +0.000 C 
ENDROOT
BRANCH   1   5
ATOM      2  C   UNL     1       1.402  -0.197   0.283  0.00  0.00    +0.000 A 
ATOM      3  C   UNL     1       0.688  -0.980  -0.622  0.00  0.00    +0.000 A 
ATOM      4  C   UNL     1      -0.688  -0.792  -0.777  0.00  0.00    +0.000 A 
ATOM      5  C   UNL     1      -1.367   0.172  -0.020  0.00  0.00    +0.000 A 
ATOM      6  C   UNL     1      -0.634   0.963   0.874  0.00  0.00    +0.000 A 
ATOM      7  C   UNL     1       0.742   0.776   1.029  0.00  0.00    +0.000 A 
ENDBRANCH   1   5
BRANCH   1   8
ATOM      8  C   UNL     1      -3.721  -0.525  -0.426  0.00  0.00    +0.000 C 
ATOM      9  C   UNL     1      -5.132  -0.232  -0.577  0.00  0.00    +0.000 C 
BRANCH   9  10
ATOM     10  C   UNL     1      -6.099  -1.119  -0.844  0.00  0.00    +0.000 C 
ATOM     11  C   UNL     1      -5.984  -2.552  -1.042  0.00  0.00    +0.000 C 
ATOM     12  C   UNL     1      -7.223  -3.014  -1.290  0.00  0.00    +0.000 C 
ATOM     13  C   UNL     1      -8.163  -1.908  -1.258  0.00  0.00    +0.000 C 
ATOM     14  C   UNL     1      -7.502  -0.771  -0.992  0.00  0.00    +0.000 C 
ENDBRANCH   9  10
ENDBRANCH   1   8
TORSDOF 3
