REMARK  Name = *****
REMARK  4 active torsions:
REMARK  status: ('A' for Active; 'I' for Inactive)
REMARK    1  A    between atoms: C_4  and  C_7
REMARK    2  A    between atoms: C_7  and  C_8
REMARK    3  A    between atoms: C_8  and  C_9
REMARK    4  A    between atoms: C_9  and  C_10
REMARK                            x       y       z     vdW  Elec       q    Type
REMARK                         _______ _______ _______ _____ _____    ______ ____
ROOT
ATOM      1  C   UNL     1      -3.569  -0.864  -0.326  0.00  0.00    +0.000 C 
ENDROOT
BRANCH   1   2
ATOM      2  C   UNL     1      -2.826   0.463  -0.161  0.00  0.00    +0.000 C 
BRANCH   2   6
ATOM      3  C   UNL     1       1.389  -0.174   0.489  0.00  0.00    +0.000 A 
ATOM      4  C   UNL     1       0.896  -0.037  -0.807  0.00  0.00    +0.000 A 
ATOM      5  C   UNL     1      -0.467   0.173  -1.019  0.00  0.00    +0.000 A 
ATOM      6  C   UNL     1      -1.350   0.253   0.066  0.00  0.00    +0.000 A 
ATOM      7  C   UNL     1      -0.846   0.107   1.366  0.00  0.00    +0.000 A 
ATOM      8  C   UNL     1       0.518  -0.103   1.575  0.00  0.00    +0.000 A 
ENDBRANCH   2   6
ENDBRANCH   1   2
BRANCH   1   9
ATOM      9  C   UNL     1      -5.066  -0.632  -0.537  0.00  0.00    +0.000 C 
BRANCH   9  10
ATOM     10  C   UNL     1      -5.814  -1.929  -0.717  0.00  0.00    +0.000 A 
ATOM     11  C   UNL     1      -6.324  -2.615   0.397  0.00  0.00    +0.000 A 
ATOM     12  C   UNL     1      -7.002  -3.823   0.230  0.00  0.00    +0.000 A 
ATOM     13  C   UNL     1      -7.167  -4.346  -1.047  0.00  0.00    +0.000 A 
ATOM     14  C   UNL     1      -6.664  -3.686  -2.161  0.00  0.00    +0.000 A 
ATOM     15  C   UNL     1      -5.985  -2.478  -1.997  0.00  0.00    +0.000 A 
ATOM     16  F   UNL     1      -7.819  -5.506  -1.206  0.00  0.00    +0.000 F 
ENDBRANCH   9  10
ENDBRANCH   1   9
TORSDOF 4
