REMARK  Name = *****
REMARK  3 active torsions:
REMARK  status: ('A' for Active; 'I' for Inactive)
REMARK    1  A    between atoms: C_1  and  C_2
REMARK    2  A    between atoms: C_5  and  S_8
REMARK    3  A    between atoms: S_8  and  C_10
REMARK                            x       y       z     vdW  Elec       q    Type
REMARK                         _______ _______ _______ _____ _____    ______ ____
ROOT
ATOM      1  S   UNL     1      -3.827  -0.065  -0.480  0.00  0.00    +0.000 S 
ATOM      2  O   UNL     1      -4.211  -0.648   0.848  0.00  0.00    +0.000 OA
ENDROOT
BRANCH   1   7
ATOM      3  C   UNL     1       2.278   0.391  -0.391  0.00  0.00    +0.000 C 
ATOM      4  C   UNL     1       0.780   0.311  -0.408  0.00  0.00    +0.000 A 
ATOM      5  C   UNL     1       0.084   0.284  -1.622  0.00  0.00    +0.000 A 
ATOM      6  C   UNL     1      -1.309   0.174  -1.639  0.00  0.00    +0.000 A 
ATOM      7  C   UNL     1      -2.023   0.084  -0.439  0.00  0.00    +0.000 A 
ATOM      8  C   UNL     1      -1.329   0.087   0.774  0.00  0.00    +0.000 A 
ATOM      9  C   UNL     1       0.064   0.197   0.790  0.00  0.00    +0.000 A 
ENDBRANCH   1   7
BRANCH   1  10
ATOM     10  C   UNL     1      -4.266   1.666  -0.500  0.00  0.00    +0.000 C 
ATOM     11  C   UNL     1      -4.683   2.379   0.561  0.00  0.00    +0.000 C 
ATOM     12  C   UNL     1      -5.007   3.856   0.517  0.00  0.00    +0.000 C 
ATOM     13  C   UNL     1      -4.959   4.278   1.978  0.00  0.00    +0.000 C 
ATOM     14  C   UNL     1      -5.493   3.063   2.712  0.00  0.00    +0.000 C 
ATOM     15  C   UNL     1      -4.868   1.882   1.976  0.00  0.00    +0.000 C 
ATOM     16 CL   UNL     1      -4.148   2.365  -2.082  0.00  0.00    +0.000 Cl
ENDBRANCH   1  10
TORSDOF 2
