REMARK  Name = *****
REMARK  2 active torsions:
REMARK  status: ('A' for Active; 'I' for Inactive)
REMARK    1  A    between atoms: C_5  and  C_6
REMARK    2  A    between atoms: C_6  and  C_7
REMARK                            x       y       z     vdW  Elec       q    Type
REMARK                         _______ _______ _______ _____ _____    ______ ____
ROOT
ATOM      1  C   UNL     1      -1.423  -0.144   0.246  0.00  0.00    +0.000 C 
ATOM      2  C   UNL     1      -0.223  -0.122   1.192  0.00  0.00    +0.000 C 
ATOM      3  C   UNL     1       0.120   1.374   1.304  0.00  0.00    +0.000 C 
ATOM      4  C   UNL     1      -0.391   1.973   0.012  0.00  0.00    +0.000 C 
ATOM      5  C   UNL     1      -0.351   3.274  -0.326  0.00  0.00    +0.000 C 
ATOM      6  C   UNL     1      -1.064   0.896  -0.813  0.00  0.00    +0.000 C 
ATOM      7  C   UNL     1      -0.146   0.373  -1.887  0.00  0.00    +0.000 C 
ATOM      8  C   UNL     1       0.861  -0.505  -1.761  0.00  0.00    +0.000 C 
ATOM      9  C   UNL     1       1.366  -1.120  -0.555  0.00  0.00    +0.000 C 
ATOM     10  C   UNL     1       0.944  -0.948   0.707  0.00  0.00    +0.000 C 
ENDROOT
BRANCH   5  11
ATOM     11  C   UNL     1       0.291   4.376   0.470  0.00  0.00    +0.000 C 
BRANCH  11  12
ATOM     12  C   UNL     1      -0.713   5.196   1.244  0.00  0.00    +0.000 A 
ATOM     13  C   UNL     1      -0.855   5.021   2.628  0.00  0.00    +0.000 A 
ATOM     14  C   UNL     1      -1.789   5.770   3.345  0.00  0.00    +0.000 A 
ATOM     15  C   UNL     1      -2.595   6.697   2.687  0.00  0.00    +0.000 A 
ATOM     16  C   UNL     1      -2.467   6.876   1.311  0.00  0.00    +0.000 A 
ATOM     17  C   UNL     1      -1.531   6.130   0.592  0.00  0.00    +0.000 A 
ENDBRANCH  11  12
ENDBRANCH   5  11
TORSDOF 2
