REMARK  Name = *****
REMARK  5 active torsions:
REMARK  status: ('A' for Active; 'I' for Inactive)
REMARK    1  A    between atoms: C_1  and  C_2
REMARK    2  A    between atoms: C_2  and  O_4
REMARK    3  A    between atoms: O_4  and  C_5
REMARK    4  A    between atoms: C_5  and  C_13
REMARK    5  A    between atoms: N_6  and  C_7
REMARK                            x       y       z     vdW  Elec       q    Type
REMARK                         _______ _______ _______ _____ _____    ______ ____
ROOT
ATOM      1  C   UNL     1       4.745   0.621   1.492  0.00  0.00    +0.000 C 
ATOM      2  N   UNL     1       5.331   0.299   0.378  0.00  0.00    +0.000 NA
ENDROOT
BRANCH   2   3
ATOM      3  C   UNL     1       4.568   0.001  -0.758  0.00  0.00    +0.000 A 
ATOM      4  C   UNL     1       3.845   0.994  -1.429  0.00  0.00    +0.000 A 
ATOM      5  C   UNL     1       3.117   0.687  -2.580  0.00  0.00    +0.000 A 
ATOM      6  C   UNL     1       3.120  -0.615  -3.079  0.00  0.00    +0.000 A 
ATOM      7  C   UNL     1       3.858  -1.606  -2.432  0.00  0.00    +0.000 A 
ATOM      8  C   UNL     1       4.585  -1.294  -1.281  0.00  0.00    +0.000 A 
ENDBRANCH   2   3
BRANCH   1   9
ATOM      9  C   UNL     1       5.506   1.077   2.690  0.00  0.00    +0.000 A 
ATOM     10  C   UNL     1       6.907   1.094   2.633  0.00  0.00    +0.000 A 
ATOM     11  C   UNL     1       7.656   1.511   3.735  0.00  0.00    +0.000 A 
ATOM     12  C   UNL     1       7.011   1.916   4.903  0.00  0.00    +0.000 A 
ATOM     13  C   UNL     1       5.619   1.904   4.970  0.00  0.00    +0.000 A 
ATOM     14  C   UNL     1       4.866   1.486   3.869  0.00  0.00    +0.000 A 
ENDBRANCH   1   9
BRANCH   1  15
ATOM     15  O   UNL     1       3.399   0.655   1.723  0.00  0.00    +0.000 OA
BRANCH  15  17
ATOM     16  C   UNL     1       1.232  -0.347   1.238  0.00  0.00    +0.000 C 
ATOM     17  C   UNL     1       2.654  -0.549   1.659  0.00  0.00    +0.000 C 
ATOM     18  C   UNL     1       3.152  -1.748   2.001  0.00  0.00    +0.000 C 
ENDBRANCH  15  17
ENDBRANCH   1  15
TORSDOF 4
