REMARK  Name = *****
REMARK  4 active torsions:
REMARK  status: ('A' for Active; 'I' for Inactive)
REMARK    1  A    between atoms: C_1  and  C_2
REMARK    2  A    between atoms: C_2  and  C_5
REMARK    3  A    between atoms: C_6  and  C_10
REMARK    4  A    between atoms: C_11  and  C_12
REMARK                            x       y       z     vdW  Elec       q    Type
REMARK                         _______ _______ _______ _____ _____    ______ ____
ROOT
ATOM      1  C   UNL     1       3.333   1.088  -0.418  0.00  0.00    +0.000 C 
ATOM      2  C   UNL     1       2.984   2.382  -0.284  0.00  0.00    +0.000 C 
ATOM      3  C   UNL     1       3.977   3.302  -0.932  0.00  0.00    +0.000 C 
ATOM      4  C   UNL     1       5.186   2.402  -1.141  0.00  0.00    +0.000 C 
ATOM      5  C   UNL     1       4.636   0.981  -1.177  0.00  0.00    +0.000 C 
ENDROOT
BRANCH   1   7
ATOM      6  C   UNL     1       1.146  -0.122   0.148  0.00  0.00    +0.000 C 
ATOM      7  C   UNL     1       2.643  -0.118   0.025  0.00  0.00    +0.000 C 
ATOM      8  C   UNL     1       3.326  -1.203   0.274  0.00  0.00    +0.000 C 
ATOM      9  O   UNL     1       3.941  -2.181   0.492  0.00  0.00    +0.000 OA
ENDBRANCH   1   7
BRANCH   2  10
ATOM     10  C   UNL     1       1.847   2.889   0.395  0.00  0.00    +0.000 C 
ATOM     11  C   UNL     1       0.894   3.343   0.968  0.00  0.00    +0.000 C 
BRANCH  11  12
ATOM     12  C   UNL     1      -0.240   3.886   1.651  0.00  0.00    +0.000 A 
ATOM     13  C   UNL     1      -1.214   3.034   2.179  0.00  0.00    +0.000 A 
ATOM     14  C   UNL     1      -2.319   3.565   2.846  0.00  0.00    +0.000 A 
ATOM     15  C   UNL     1      -2.452   4.946   2.986  0.00  0.00    +0.000 A 
ATOM     16  C   UNL     1      -1.481   5.798   2.460  0.00  0.00    +0.000 A 
ATOM     17  C   UNL     1      -0.375   5.269   1.793  0.00  0.00    +0.000 A 
ENDBRANCH  11  12
ENDBRANCH   2  10
TORSDOF 3
