REMARK  Name = *****
REMARK  3 active torsions:
REMARK  status: ('A' for Active; 'I' for Inactive)
REMARK    1  A    between atoms: C_3  and  N_8
REMARK    2  A    between atoms: N_8  and  C_9
REMARK    3  A    between atoms: C_9  and  C_11
REMARK                            x       y       z     vdW  Elec       q    Type
REMARK                         _______ _______ _______ _____ _____    ______ ____
ROOT
ATOM      1  N   UNL     1       1.875   2.694   0.240  0.00  0.00    +0.000 N 
ATOM      2  H   UNL     1       2.814   2.743   0.532  0.00  0.00    +0.000 HD
ENDROOT
BRANCH   1   5
ATOM      3  C   UNL     1       1.992  -0.989  -0.058  0.00  0.00    +0.000 A 
ATOM      4  C   UNL     1       2.359   0.354   0.071  0.00  0.00    +0.000 A 
ATOM      5  C   UNL     1       1.395   1.374   0.065  0.00  0.00    +0.000 A 
ATOM      6  C   UNL     1       0.050   1.018  -0.041  0.00  0.00    +0.000 A 
ATOM      7  C   UNL     1      -0.315  -0.326  -0.168  0.00  0.00    +0.000 A 
ATOM      8  C   UNL     1       0.649  -1.330  -0.181  0.00  0.00    +0.000 A 
ATOM      9 CL   UNL     1      -1.980  -0.750  -0.286  0.00  0.00    +0.000 Cl
ENDBRANCH   1   5
BRANCH   1  10
ATOM     10  C   UNL     1       1.269   3.937   0.077  0.00  0.00    +0.000 C 
ATOM     11  S   UNL     1      -0.152   4.292  -0.745  0.00  0.00    +0.000 S 
BRANCH  10  12
ATOM     12  C   UNL     1       2.078   5.039   0.693  0.00  0.00    +0.000 A 
ATOM     13  C   UNL     1       2.430   6.184  -0.038  0.00  0.00    +0.000 A 
ATOM     14  C   UNL     1       3.181   7.193   0.569  0.00  0.00    +0.000 A 
ATOM     15  C   UNL     1       3.580   7.053   1.894  0.00  0.00    +0.000 A 
ATOM     16  C   UNL     1       3.241   5.922   2.630  0.00  0.00    +0.000 A 
ATOM     17  C   UNL     1       2.487   4.912   2.031  0.00  0.00    +0.000 A 
ATOM     18  F   UNL     1       4.299   8.023   2.472  0.00  0.00    +0.000 F 
ENDBRANCH  10  12
ENDBRANCH   1  10
TORSDOF 3
