REMARK  Name = *****
REMARK  5 active torsions:
REMARK  status: ('A' for Active; 'I' for Inactive)
REMARK    1  A    between atoms: C_1  and  C_2
REMARK    2  A    between atoms: C_7  and  C_8
REMARK    3  A    between atoms: C_9  and  C_10
REMARK    4  A    between atoms: C_9  and  C_12
REMARK    5  A    between atoms: C_17  and  C_18
REMARK                            x       y       z     vdW  Elec       q    Type
REMARK                         _______ _______ _______ _____ _____    ______ ____
ROOT
ATOM      1  C   UNL     1       1.271  -2.289  -0.161  0.00  0.00    +0.000 C 
ATOM      2  C   UNL     1       2.575  -2.482   0.113  0.00  0.00    +0.000 C 
ENDROOT
BRANCH   1   9
ATOM      3  C   UNL     1      -0.072  -1.256   2.288  0.00  0.00    +0.000 C 
ATOM      4  C   UNL     1      -0.110  -0.521   0.978  0.00  0.00    +0.000 A 
ATOM      5  C   UNL     1      -0.795   0.702   0.896  0.00  0.00    +0.000 A 
ATOM      6  C   UNL     1      -0.836   1.420  -0.300  0.00  0.00    +0.000 A 
ATOM      7  C   UNL     1      -0.188   0.928  -1.429  0.00  0.00    +0.000 A 
ATOM      8  C   UNL     1       0.501  -0.282  -1.363  0.00  0.00    +0.000 A 
ATOM      9  C   UNL     1       0.548  -1.012  -0.166  0.00  0.00    +0.000 A 
ENDBRANCH   1   9
BRANCH   2  10
ATOM     10  C   UNL     1       3.094  -3.863   0.034  0.00  0.00    +0.000 A 
ATOM     11  C   UNL     1       3.554  -4.330  -1.209  0.00  0.00    +0.000 A 
ATOM     12  C   UNL     1       4.056  -5.624  -1.339  0.00  0.00    +0.000 A 
ATOM     13  C   UNL     1       4.099  -6.465  -0.231  0.00  0.00    +0.000 A 
ATOM     14  C   UNL     1       3.642  -6.014   1.008  0.00  0.00    +0.000 A 
ATOM     15  C   UNL     1       3.138  -4.712   1.159  0.00  0.00    +0.000 A 
ATOM     16  C   UNL     1       2.639  -4.270   2.508  0.00  0.00    +0.000 C 
ENDBRANCH   2  10
BRANCH   2  17
ATOM     17  C   UNL     1       3.540  -1.399   0.480  0.00  0.00    +0.000 C 
ATOM     18  O   UNL     1       3.260  -0.220   0.650  0.00  0.00    +0.000 OA
ENDBRANCH   2  17
TORSDOF 3
