REMARK  Name = *****
REMARK  2 active torsions:
REMARK  status: ('A' for Active; 'I' for Inactive)
REMARK    1  A    between atoms: C_5  and  N_7
REMARK    2  A    between atoms: C_8  and  C_9
REMARK                            x       y       z     vdW  Elec       q    Type
REMARK                         _______ _______ _______ _____ _____    ______ ____
ROOT
ATOM      1  N   UNL     1       0.888  -2.440  -0.291  0.00  0.00    +0.000 NA
ATOM      2  C   UNL     1       2.075  -2.536   0.219  0.00  0.00    +0.000 C 
ENDROOT
BRANCH   1   7
ATOM      3  C   UNL     1      -1.803  -0.013   0.453  0.00  0.00    +0.000 A 
ATOM      4  C   UNL     1      -1.228   1.197   0.063  0.00  0.00    +0.000 A 
ATOM      5  C   UNL     1       0.068   1.214  -0.450  0.00  0.00    +0.000 A 
ATOM      6  C   UNL     1       0.779   0.021  -0.567  0.00  0.00    +0.000 A 
ATOM      7  C   UNL     1       0.225  -1.204  -0.167  0.00  0.00    +0.000 A 
ATOM      8  C   UNL     1      -1.081  -1.205   0.332  0.00  0.00    +0.000 A 
ATOM      9  F   UNL     1       2.025   0.069  -1.068  0.00  0.00    +0.000 F 
ENDBRANCH   1   7
BRANCH   2  10
ATOM     10  C   UNL     1       2.861  -3.782   0.130  0.00  0.00    +0.000 A 
ATOM     11  C   UNL     1       2.344  -4.911  -0.514  0.00  0.00    +0.000 A 
ATOM     12  C   UNL     1       3.105  -6.080  -0.585  0.00  0.00    +0.000 A 
ATOM     13  C   UNL     1       4.377  -6.114  -0.014  0.00  0.00    +0.000 A 
ATOM     14  C   UNL     1       4.896  -4.989   0.628  0.00  0.00    +0.000 A 
ATOM     15  C   UNL     1       4.137  -3.818   0.702  0.00  0.00    +0.000 A 
ATOM     16 CL   UNL     1       5.314  -7.554  -0.101  0.00  0.00    +0.000 Cl
ENDBRANCH   2  10
TORSDOF 2
