REMARK  Name = *****
REMARK  5 active torsions:
REMARK  status: ('A' for Active; 'I' for Inactive)
REMARK    1  A    between atoms: C_1  and  C_2
REMARK    2  A    between atoms: C_3  and  C_5
REMARK    3  A    between atoms: C_8  and  O_11
REMARK    4  A    between atoms: O_11  and  C_12
REMARK    5  A    between atoms: C_12  and  C_13
REMARK                            x       y       z     vdW  Elec       q    Type
REMARK                         _______ _______ _______ _____ _____    ______ ____
ROOT
ATOM      1  C   UNL     1       4.456   1.400  -0.826  0.00  0.00    +0.000 A 
ATOM      2  C   UNL     1       5.603   0.745  -0.347  0.00  0.00    +0.000 A 
ATOM      3  C   UNL     1       6.854   1.371  -0.343  0.00  0.00    +0.000 A 
ATOM      4  C   UNL     1       7.003   2.667  -0.832  0.00  0.00    +0.000 A 
ATOM      5  C   UNL     1       5.883   3.337  -1.316  0.00  0.00    +0.000 A 
ATOM      6  C   UNL     1       4.631   2.707  -1.316  0.00  0.00    +0.000 A 
ENDROOT
BRANCH   1   9
ATOM      7  C   UNL     1       0.564   1.241  -1.025  0.00  0.00    +0.000 C 
ATOM      8  C   UNL     1       1.877   1.418  -0.344  0.00  0.00    +0.000 C 
ATOM      9  C   UNL     1       3.107   0.718  -0.872  0.00  0.00    +0.000 C 
ATOM     10  S   UNL     1       2.462   0.142   0.643  0.00  0.00    +0.000 S 
ENDBRANCH   1   9
BRANCH   4  11
ATOM     11  O   UNL     1       8.277   3.157  -0.779  0.00  0.00    +0.000 OA
BRANCH  11  12
ATOM     12  C   UNL     1       8.520   4.407  -1.427  0.00  0.00    +0.000 C 
BRANCH  12  13
ATOM     13  C   UNL     1       9.999   4.725  -1.423  0.00  0.00    +0.000 A 
ATOM     14  C   UNL     1      10.965   3.712  -1.522  0.00  0.00    +0.000 A 
ATOM     15  C   UNL     1      12.325   4.026  -1.563  0.00  0.00    +0.000 A 
ATOM     16  C   UNL     1      12.736   5.356  -1.520  0.00  0.00    +0.000 A 
ATOM     17  C   UNL     1      11.787   6.374  -1.438  0.00  0.00    +0.000 A 
ATOM     18  C   UNL     1      10.427   6.061  -1.394  0.00  0.00    +0.000 A 
ENDBRANCH  12  13
ENDBRANCH  11  12
ENDBRANCH   4  11
TORSDOF 4
