REMARK  Name = *****
REMARK  2 active torsions:
REMARK  status: ('A' for Active; 'I' for Inactive)
REMARK    1  A    between atoms: C_4  and  C_7
REMARK    2  A    between atoms: C_8  and  C_10
REMARK                            x       y       z     vdW  Elec       q    Type
REMARK                         _______ _______ _______ _____ _____    ______ ____
ROOT
ATOM      1  C   UNL     1      -2.825   0.526  -0.150  0.00  0.00    +0.000 C 
ATOM      2  C   UNL     1      -3.779   0.041   0.931  0.00  0.00    +0.000 C 
ATOM      3  O   UNL     1      -3.668  -0.621  -0.340  0.00  0.00    +0.000 OA
ENDROOT
BRANCH   2   4
ATOM      4  C   UNL     1      -5.074   0.775   1.204  0.00  0.00    +0.000 A 
ATOM      5  C   UNL     1      -5.132   1.999   1.901  0.00  0.00    +0.000 A 
ATOM      6  C   UNL     1      -6.347   2.650   2.144  0.00  0.00    +0.000 A 
ATOM      7  C   UNL     1      -7.533   2.080   1.698  0.00  0.00    +0.000 A 
ATOM      8  C   UNL     1      -7.517   0.870   1.016  0.00  0.00    +0.000 A 
ATOM      9  C   UNL     1      -6.299   0.227   0.776  0.00  0.00    +0.000 A 
ATOM     10 CL   UNL     1      -9.029   2.875   1.995  0.00  0.00    +0.000 Cl
ATOM     11 CL   UNL     1      -3.693   2.749   2.496  0.00  0.00    +0.000 Cl
ENDBRANCH   2   4
BRANCH   1  15
ATOM     12  C   UNL     1       1.438  -0.202   0.152  0.00  0.00    +0.000 A 
ATOM     13  C   UNL     1       0.689  -0.829  -0.839  0.00  0.00    +0.000 A 
ATOM     14  C   UNL     1      -0.685  -0.593  -0.930  0.00  0.00    +0.000 A 
ATOM     15  C   UNL     1      -1.344   0.269  -0.036  0.00  0.00    +0.000 A 
ATOM     16  C   UNL     1      -0.562   0.893   0.950  0.00  0.00    +0.000 A 
ATOM     17  C   UNL     1       0.813   0.661   1.047  0.00  0.00    +0.000 A 
ENDBRANCH   1  15
TORSDOF 2
