REMARK  Name = *****
REMARK  5 active torsions:
REMARK  status: ('A' for Active; 'I' for Inactive)
REMARK    1  A    between atoms: C_1  and  C_2
REMARK    2  A    between atoms: C_3  and  O_9
REMARK    3  A    between atoms: O_9  and  C_10
REMARK    4  A    between atoms: C_10  and  C_12
REMARK    5  A    between atoms: C_12  and  C_13
REMARK                            x       y       z     vdW  Elec       q    Type
REMARK                         _______ _______ _______ _____ _____    ______ ____
ROOT
ATOM      1  O   UNL     1      -3.171  -1.435  -1.028  0.00  0.00    +0.000 OA
ENDROOT
BRANCH   1   4
ATOM      2  C   UNL     1      -2.887   1.363  -0.442  0.00  0.00    +0.000 C 
ATOM      3  C   UNL     1      -1.779   0.374  -0.230  0.00  0.00    +0.000 A 
ATOM      4  C   UNL     1      -1.958  -0.991  -0.492  0.00  0.00    +0.000 A 
ATOM      5  C   UNL     1      -0.929  -1.916  -0.307  0.00  0.00    +0.000 A 
ATOM      6  C   UNL     1       0.299  -1.482   0.190  0.00  0.00    +0.000 A 
ATOM      7  C   UNL     1       0.487  -0.132   0.482  0.00  0.00    +0.000 A 
ATOM      8  C   UNL     1      -0.541   0.793   0.276  0.00  0.00    +0.000 A 
ATOM      9 CL   UNL     1       2.003   0.403   1.097  0.00  0.00    +0.000 Cl
ENDBRANCH   1   4
BRANCH   1  10
ATOM     10  C   UNL     1      -4.037  -1.976  -0.074  0.00  0.00    +0.000 C 
ATOM     11  O   UNL     1      -3.788  -2.134   1.114  0.00  0.00    +0.000 OA
BRANCH  10  12
ATOM     12  C   UNL     1      -5.304  -2.401  -0.789  0.00  0.00    +0.000 C 
BRANCH  12  13
ATOM     13  C   UNL     1      -6.461  -2.485   0.159  0.00  0.00    +0.000 A 
ATOM     14  C   UNL     1      -6.873  -3.563   0.918  0.00  0.00    +0.000 A 
ATOM     15  C   UNL     1      -8.025  -3.266   1.700  0.00  0.00    +0.000 A 
ATOM     16  C   UNL     1      -8.458  -1.973   1.511  0.00  0.00    +0.000 A 
ATOM     17  S   UNL     1      -7.479  -1.125   0.397  0.00  0.00    +0.000 S 
ENDBRANCH  12  13
ENDBRANCH  10  12
ENDBRANCH   1  10
TORSDOF 4
