REMARK  Name = *****
REMARK  2 active torsions:
REMARK  status: ('A' for Active; 'I' for Inactive)
REMARK    1  A    between atoms: C_1  and  C_2
REMARK    2  A    between atoms: C_7  and  C_8
REMARK                            x       y       z     vdW  Elec       q    Type
REMARK                         _______ _______ _______ _____ _____    ______ ____
ROOT
ATOM      1  C   UNL     1       1.211  -2.378   0.476  0.00  0.00    +0.000 C 
ATOM      2  C   UNL     1       2.549  -2.539   0.414  0.00  0.00    +0.000 C 
ATOM      3  C   UNL     1       3.520  -1.384   0.287  0.00  0.00    +0.000 C 
ATOM      4  C   UNL     1       4.465  -1.624  -0.883  0.00  0.00    +0.000 C 
ATOM      5  C   UNL     1       5.294  -2.879  -0.644  0.00  0.00    +0.000 C 
ATOM      6  C   UNL     1       4.476  -4.052  -0.158  0.00  0.00    +0.000 A 
ATOM      7  C   UNL     1       5.073  -5.326  -0.189  0.00  0.00    +0.000 A 
ATOM      8  C   UNL     1       4.397  -6.442   0.298  0.00  0.00    +0.000 A 
ATOM      9  C   UNL     1       3.125  -6.294   0.836  0.00  0.00    +0.000 A 
ATOM     10  C   UNL     1       2.525  -5.032   0.879  0.00  0.00    +0.000 A 
ATOM     11  C   UNL     1       3.177  -3.893   0.373  0.00  0.00    +0.000 A 
ENDROOT
BRANCH   1  18
ATOM     12  C   UNL     1       0.005  -1.248  -1.988  0.00  0.00    +0.000 C 
ATOM     13  C   UNL     1      -0.065  -0.538  -0.664  0.00  0.00    +0.000 A 
ATOM     14  C   UNL     1      -0.711   0.706  -0.580  0.00  0.00    +0.000 A 
ATOM     15  C   UNL     1      -0.782   1.394   0.632  0.00  0.00    +0.000 A 
ATOM     16  C   UNL     1      -0.207   0.850   1.777  0.00  0.00    +0.000 A 
ATOM     17  C   UNL     1       0.439  -0.384   1.710  0.00  0.00    +0.000 A 
ATOM     18  C   UNL     1       0.517  -1.083   0.497  0.00  0.00    +0.000 A 
ENDBRANCH   1  18
TORSDOF 1
