REMARK  Name = *****
REMARK  3 active torsions:
REMARK  status: ('A' for Active; 'I' for Inactive)
REMARK    1  A    between atoms: C_4  and  C_6
REMARK    2  A    between atoms: C_6  and  O_8
REMARK    3  A    between atoms: O_8  and  C_9
REMARK                            x       y       z     vdW  Elec       q    Type
REMARK                         _______ _______ _______ _____ _____    ______ ____
ROOT
ATOM      1  C   UNL     1       0.070  -5.012  -0.062  0.00  0.00    +0.000 A 
ATOM      2  C   UNL     1       1.189  -5.615   0.505  0.00  0.00    +0.000 A 
ATOM      3  C   UNL     1       1.347  -6.993   0.423  0.00  0.00    +0.000 A 
ATOM      4  C   UNL     1       0.385  -7.766  -0.217  0.00  0.00    +0.000 A 
ATOM      5  C   UNL     1      -0.740  -7.165  -0.771  0.00  0.00    +0.000 A 
ATOM      6  C   UNL     1      -0.901  -5.787  -0.691  0.00  0.00    +0.000 A 
ATOM      7  F   UNL     1      -1.989  -5.204  -1.213  0.00  0.00    +0.000 F 
ATOM      8  F   UNL     1      -1.673  -7.915  -1.374  0.00  0.00    +0.000 F 
ATOM      9  F   UNL     1       0.535  -9.096  -0.288  0.00  0.00    +0.000 F 
ATOM     10  F   UNL     1       2.422  -7.577   0.970  0.00  0.00    +0.000 F 
ATOM     11  F   UNL     1       2.108  -4.866   1.131  0.00  0.00    +0.000 F 
ENDROOT
BRANCH   1  12
ATOM     12  O   UNL     1      -0.096  -3.631   0.030  0.00  0.00    +0.000 OA
BRANCH  12  13
ATOM     13  C   UNL     1       0.458  -2.975  -1.069  0.00  0.00    +0.000 C 
ATOM     14  O   UNL     1       1.024  -3.546  -1.997  0.00  0.00    +0.000 OA
BRANCH  13  18
ATOM     15  C   UNL     1      -0.358   0.573  -0.147  0.00  0.00    +0.000 A 
ATOM     16  C   UNL     1       0.261   0.894  -1.333  0.00  0.00    +0.000 A 
ATOM     17  S   UNL     1       0.833  -0.492  -2.153  0.00  0.00    +0.000 S 
ATOM     18  C   UNL     1       0.255  -1.545  -0.927  0.00  0.00    +0.000 A 
ATOM     19  C   UNL     1      -0.362  -0.833   0.088  0.00  0.00    +0.000 A 
ENDBRANCH  13  18
ENDBRANCH  12  13
ENDBRANCH   1  12
TORSDOF 3
