REMARK  Name = *****
REMARK  5 active torsions:
REMARK  status: ('A' for Active; 'I' for Inactive)
REMARK    1  A    between atoms: C_1  and  C_2
REMARK    2  A    between atoms: C_4  and  C_16
REMARK    3  A    between atoms: C_5  and  C_8
REMARK    4  A    between atoms: C_9  and  C_10
REMARK    5  A    between atoms: C_16  and  C_18
REMARK                            x       y       z     vdW  Elec       q    Type
REMARK                         _______ _______ _______ _____ _____    ______ ____
ROOT
ATOM      1  C   UNL     1       1.092   0.069   0.513  0.00  0.00    +0.000 C 
ATOM      2  C   UNL     1       2.543   0.265   0.073  0.00  0.00    +0.000 C 
ATOM      3  C   UNL     1       2.670   1.179  -1.153  0.00  0.00    +0.000 C 
ATOM      4  C   UNL     1       2.354   0.490  -2.501  0.00  0.00    +0.000 C 
ATOM      5  C   UNL     1       3.074  -0.892  -2.578  0.00  0.00    +0.000 C 
ATOM      6  O   UNL     1       2.806  -1.679  -1.404  0.00  0.00    +0.000 OA
ATOM      7  C   UNL     1       3.233  -1.073  -0.185  0.00  0.00    +0.000 C 
ENDROOT
BRANCH   4   8
ATOM      8  C   UNL     1       0.844   0.477  -2.812  0.00  0.00    +0.000 C 
ATOM      9  C   UNL     1       0.156   1.629  -2.932  0.00  0.00    +0.000 C 
ATOM     10  C   UNL     1       0.137  -0.832  -3.050  0.00  0.00    +0.000 C 
ENDBRANCH   4   8
BRANCH   5  11
ATOM     11  C   UNL     1       4.567  -0.928  -2.841  0.00  0.00    +0.000 C 
ATOM     12  C   UNL     1       5.385   0.098  -3.129  0.00  0.00    +0.000 C 
BRANCH  12  13
ATOM     13  C   UNL     1       6.831  -0.043  -3.358  0.00  0.00    +0.000 A 
ATOM     14  C   UNL     1       7.380  -1.135  -4.044  0.00  0.00    +0.000 A 
ATOM     15  C   UNL     1       8.757  -1.215  -4.268  0.00  0.00    +0.000 A 
ATOM     16  C   UNL     1       9.598  -0.199  -3.819  0.00  0.00    +0.000 A 
ATOM     17  C   UNL     1       9.063   0.899  -3.151  0.00  0.00    +0.000 A 
ATOM     18  C   UNL     1       7.686   0.979  -2.927  0.00  0.00    +0.000 A 
ENDBRANCH  12  13
ENDBRANCH   5  11
TORSDOF 3
