REMARK  Name = *****
REMARK  3 active torsions:
REMARK  status: ('A' for Active; 'I' for Inactive)
REMARK    1  A    between atoms: C_4  and  C_7
REMARK    2  A    between atoms: C_7  and  C_8
REMARK    3  A    between atoms: C_7  and  P_18
REMARK                            x       y       z     vdW  Elec       q    Type
REMARK                         _______ _______ _______ _____ _____    ______ ____
ROOT
ATOM      1  C   UNL     1      -2.721   1.126  -0.184  0.00  0.00    +0.000 C 
ENDROOT
BRANCH   1   2
ATOM      2  C   UNL     1      -3.090   1.473  -1.628  0.00  0.00    +0.000 A 
ATOM      3  C   UNL     1      -2.632   0.655  -2.693  0.00  0.00    +0.000 A 
ATOM      4  C   UNL     1      -2.935   0.941  -4.018  0.00  0.00    +0.000 A 
ATOM      5  C   UNL     1      -3.701   2.058  -4.322  0.00  0.00    +0.000 A 
ATOM      6  C   UNL     1      -4.177   2.902  -3.311  0.00  0.00    +0.000 A 
ATOM      7  C   UNL     1      -4.943   4.024  -3.669  0.00  0.00    +0.000 A 
ATOM      8  C   UNL     1      -5.440   4.894  -2.704  0.00  0.00    +0.000 A 
ATOM      9  C   UNL     1      -5.179   4.649  -1.366  0.00  0.00    +0.000 A 
ATOM     10  C   UNL     1      -4.418   3.536  -0.995  0.00  0.00    +0.000 A 
ATOM     11  C   UNL     1      -3.886   2.627  -1.946  0.00  0.00    +0.000 A 
ENDBRANCH   1   2
BRANCH   1  15
ATOM     12  C   UNL     1       1.447   0.481   0.929  0.00  0.00    +0.000 A 
ATOM     13  C   UNL     1       1.129   1.045  -0.301  0.00  0.00    +0.000 A 
ATOM     14  C   UNL     1      -0.208   1.235  -0.665  0.00  0.00    +0.000 A 
ATOM     15  C   UNL     1      -1.267   0.833   0.172  0.00  0.00    +0.000 A 
ATOM     16  C   UNL     1      -0.909   0.312   1.435  0.00  0.00    +0.000 A 
ATOM     17  C   UNL     1       0.427   0.124   1.803  0.00  0.00    +0.000 A 
ENDBRANCH   1  15
BRANCH   1  18
ATOM     18  P   UNL     1      -3.712  -0.396   0.160  0.00  0.00    +0.000 P 
ATOM     19  H   UNL     1      -3.311  -1.406  -0.690  0.00  0.00    +0.000 HD
ATOM     20  H   UNL     1      -5.050  -0.128  -0.042  0.00  0.00    +0.000 HD
ENDBRANCH   1  18
TORSDOF 3
