REMARK  Name = *****
REMARK  4 active torsions:
REMARK  status: ('A' for Active; 'I' for Inactive)
REMARK    1  A    between atoms: C_1  and  C_2
REMARK    2  A    between atoms: C_5  and  C_8
REMARK    3  A    between atoms: C_8  and  C_9
REMARK    4  A    between atoms: C_9  and  C_10
REMARK                            x       y       z     vdW  Elec       q    Type
REMARK                         _______ _______ _______ _____ _____    ______ ____
ROOT
ATOM      1  C   UNL     1       6.000  -0.222  -0.837  0.00  0.00    +0.000 C 
ENDROOT
BRANCH   1   6
ATOM      2  C   UNL     1       5.664   3.354   2.399  0.00  0.00    +0.000 C 
ATOM      3  C   UNL     1       5.367   1.973   1.878  0.00  0.00    +0.000 C 
ATOM      4  C   UNL     1       5.964   0.898   2.420  0.00  0.00    +0.000 C 
ATOM      5  S   UNL     1       5.730  -0.733   1.910  0.00  0.00    +0.000 S 
ATOM      6  C   UNL     1       4.968  -0.518   0.266  0.00  0.00    +0.000 C 
ATOM      7  C   UNL     1       3.873   0.546   0.355  0.00  0.00    +0.000 C 
ATOM      8  C   UNL     1       4.386   1.934   0.732  0.00  0.00    +0.000 C 
ENDBRANCH   1   6
BRANCH   1   9
ATOM      9  C   UNL     1       6.968  -1.386  -1.089  0.00  0.00    +0.000 C 
BRANCH   9  10
ATOM     10  C   UNL     1       7.842  -1.124  -2.292  0.00  0.00    +0.000 A 
ATOM     11  C   UNL     1       9.013  -0.365  -2.166  0.00  0.00    +0.000 A 
ATOM     12  C   UNL     1       9.813  -0.109  -3.281  0.00  0.00    +0.000 A 
ATOM     13  C   UNL     1       9.448  -0.605  -4.531  0.00  0.00    +0.000 A 
ATOM     14  C   UNL     1       8.282  -1.357  -4.668  0.00  0.00    +0.000 A 
ATOM     15  C   UNL     1       7.481  -1.614  -3.554  0.00  0.00    +0.000 A 
ENDBRANCH   9  10
ENDBRANCH   1   9
TORSDOF 3
