REMARK  Name = *****
REMARK  3 active torsions:
REMARK  status: ('A' for Active; 'I' for Inactive)
REMARK    1  A    between atoms: C_4  and  C_7
REMARK    2  A    between atoms: C_7  and  O_9
REMARK    3  A    between atoms: O_9  and  C_10
REMARK                            x       y       z     vdW  Elec       q    Type
REMARK                         _______ _______ _______ _____ _____    ______ ____
ROOT
ATOM      1  C   UNL     1       2.872  -0.627  -0.478  0.00  0.00    +0.000 C 
ATOM      2  O   UNL     1       3.449   0.077  -1.297  0.00  0.00    +0.000 OA
ENDROOT
BRANCH   1   6
ATOM      3  C   UNL     1      -1.347   0.416  -0.184  0.00  0.00    +0.000 C 
ATOM      4  C   UNL     1      -0.932  -1.022   0.109  0.00  0.00    +0.000 C 
ATOM      5  C   UNL     1       0.469  -1.326  -0.416  0.00  0.00    +0.000 C 
ATOM      6  C   UNL     1       1.503  -0.327   0.114  0.00  0.00    +0.000 C 
ATOM      7  C   UNL     1       1.077   1.116  -0.188  0.00  0.00    +0.000 C 
ATOM      8  C   UNL     1      -0.321   1.414   0.345  0.00  0.00    +0.000 C 
ENDBRANCH   1   6
BRANCH   1   9
ATOM      9  O   UNL     1       3.345  -1.800   0.061  0.00  0.00    +0.000 OA
BRANCH   9  10
ATOM     10  C   UNL     1       4.599  -2.228  -0.380  0.00  0.00    +0.000 C 
ATOM     11  C   UNL     1       5.101  -3.432  -0.068  0.00  0.00    +0.000 C 
ATOM     12  C   UNL     1       6.466  -3.866  -0.541  0.00  0.00    +0.000 C 
ATOM     13  C   UNL     1       7.335  -4.307   0.637  0.00  0.00    +0.000 C 
ATOM     14  C   UNL     1       6.636  -5.363   1.494  0.00  0.00    +0.000 C 
ATOM     15  C   UNL     1       5.259  -4.888   1.959  0.00  0.00    +0.000 C 
ATOM     16  C   UNL     1       4.382  -4.448   0.785  0.00  0.00    +0.000 C 
ENDBRANCH   9  10
ENDBRANCH   1   9
TORSDOF 3
