REMARK  Name = *****
REMARK  5 active torsions:
REMARK  status: ('A' for Active; 'I' for Inactive)
REMARK    1  A    between atoms: C_1  and  C_2
REMARK    2  A    between atoms: C_5  and  S_8
REMARK    3  A    between atoms: S_8  and  N_9
REMARK    4  A    between atoms: N_9  and  C_10
REMARK    5  A    between atoms: C_10  and  C_11
REMARK                            x       y       z     vdW  Elec       q    Type
REMARK                         _______ _______ _______ _____ _____    ______ ____
ROOT
ATOM      1  S   UNL     1      -3.516  -0.592  -0.501  0.00  0.00    +0.000 S 
ATOM      2  O   UNL     1      -4.006  -1.230   0.702  0.00  0.00    +0.000 OA
ATOM      3  F   UNL     1      -4.164   0.858  -0.487  0.00  0.00    +0.000 F 
ENDROOT
BRANCH   1   8
ATOM      4  C   UNL     1       2.441   0.224   0.282  0.00  0.00    +0.000 C 
ATOM      5  C   UNL     1       0.968   0.031   0.064  0.00  0.00    +0.000 A 
ATOM      6  C   UNL     1       0.462  -1.240  -0.243  0.00  0.00    +0.000 A 
ATOM      7  C   UNL     1      -0.910  -1.433  -0.410  0.00  0.00    +0.000 A 
ATOM      8  C   UNL     1      -1.774  -0.348  -0.257  0.00  0.00    +0.000 A 
ATOM      9  C   UNL     1      -1.292   0.922   0.062  0.00  0.00    +0.000 A 
ATOM     10  C   UNL     1       0.081   1.106   0.228  0.00  0.00    +0.000 A 
ENDBRANCH   1   8
BRANCH   1  11
ATOM     11  N   UNL     1      -3.690  -1.093  -1.944  0.00  0.00    +0.000 NA
BRANCH  11  12
ATOM     12  C   UNL     1      -3.507  -0.169  -3.055  0.00  0.00    +0.000 C 
BRANCH  12  13
ATOM     13  C   UNL     1      -4.844   0.343  -3.552  0.00  0.00    +0.000 A 
ATOM     14  C   UNL     1      -5.095   1.721  -3.639  0.00  0.00    +0.000 A 
ATOM     15  C   UNL     1      -6.319   2.191  -4.120  0.00  0.00    +0.000 A 
ATOM     16  C   UNL     1      -7.305   1.292  -4.522  0.00  0.00    +0.000 A 
ATOM     17  C   UNL     1      -7.069  -0.079  -4.444  0.00  0.00    +0.000 A 
ATOM     18  C   UNL     1      -5.846  -0.551  -3.964  0.00  0.00    +0.000 A 
ENDBRANCH  12  13
ENDBRANCH  11  12
ENDBRANCH   1  11
TORSDOF 4
