REMARK  Name = *****
REMARK  3 active torsions:
REMARK  status: ('A' for Active; 'I' for Inactive)
REMARK    1  A    between atoms: C_6  and  C_7
REMARK    2  A    between atoms: C_7  and  N_9
REMARK    3  A    between atoms: N_9  and  C_10
REMARK                            x       y       z     vdW  Elec       q    Type
REMARK                         _______ _______ _______ _____ _____    ______ ____
ROOT
ATOM      1  C   UNL     1       3.829  -0.395  -0.560  0.00  0.00    +0.000 C 
ATOM      2  S   UNL     1       4.273  -1.912  -1.119  0.00  0.00    +0.000 S 
ENDROOT
BRANCH   1   8
ATOM      3  C   UNL     1       1.704   0.854  -0.942  0.00  0.00    +0.000 A 
ATOM      4  C   UNL     1       0.372   1.131  -0.626  0.00  0.00    +0.000 A 
ATOM      5  C   UNL     1      -0.257   0.429   0.403  0.00  0.00    +0.000 A 
ATOM      6  C   UNL     1       0.432  -0.549   1.121  0.00  0.00    +0.000 A 
ATOM      7  C   UNL     1       1.764  -0.831   0.809  0.00  0.00    +0.000 A 
ATOM      8  C   UNL     1       2.397  -0.131  -0.226  0.00  0.00    +0.000 A 
ATOM      9 CL   UNL     1      -1.897   0.776   0.792  0.00  0.00    +0.000 Cl
ENDBRANCH   1   8
BRANCH   1  10
ATOM     10  N   UNL     1       4.623   0.716  -0.300  0.00  0.00    +0.000 N 
ATOM     11  H   UNL     1       4.142   1.449   0.148  0.00  0.00    +0.000 HD
BRANCH  10  12
ATOM     12  C   UNL     1       5.985   1.003  -0.552  0.00  0.00    +0.000 A 
ATOM     13  C   UNL     1       6.833   0.258  -1.374  0.00  0.00    +0.000 A 
ATOM     14  C   UNL     1       8.165   0.646  -1.566  0.00  0.00    +0.000 A 
ATOM     15  C   UNL     1       8.650   1.786  -0.942  0.00  0.00    +0.000 A 
ATOM     16  C   UNL     1       7.825   2.553  -0.134  0.00  0.00    +0.000 A 
ATOM     17  C   UNL     1       6.496   2.164   0.055  0.00  0.00    +0.000 A 
ATOM     18  F   UNL     1       9.923   2.155  -1.130  0.00  0.00    +0.000 F 
ENDBRANCH  10  12
ENDBRANCH   1  10
TORSDOF 3
