REMARK  Name = *****
REMARK  4 active torsions:
REMARK  status: ('A' for Active; 'I' for Inactive)
REMARK    1  A    between atoms: C_6  and  C_7
REMARK    2  A    between atoms: C_7  and  O_8
REMARK    3  A    between atoms: O_8  and  C_9
REMARK    4  A    between atoms: C_9  and  C_11
REMARK                            x       y       z     vdW  Elec       q    Type
REMARK                         _______ _______ _______ _____ _____    ______ ____
ROOT
ATOM      1  O   UNL     1      -0.391  -2.933   1.886  0.00  0.00    +0.000 OA
ENDROOT
BRANCH   1   2
ATOM      2  C   UNL     1       0.959  -3.047   1.939  0.00  0.00    +0.000 C 
ATOM      3  O   UNL     1       1.760  -2.141   1.770  0.00  0.00    +0.000 OA
BRANCH   2   4
ATOM      4  C   UNL     1       1.355  -4.453   2.223  0.00  0.00    +0.000 A 
ATOM      5  C   UNL     1       0.415  -5.471   2.436  0.00  0.00    +0.000 A 
ATOM      6  C   UNL     1       0.841  -6.776   2.697  0.00  0.00    +0.000 A 
ATOM      7  C   UNL     1       2.203  -7.070   2.747  0.00  0.00    +0.000 A 
ATOM      8  C   UNL     1       3.144  -6.063   2.536  0.00  0.00    +0.000 A 
ATOM      9  C   UNL     1       2.722  -4.758   2.275  0.00  0.00    +0.000 A 
ENDBRANCH   2   4
ENDBRANCH   1   2
BRANCH   1  10
ATOM     10  C   UNL     1      -0.895  -1.612   1.606  0.00  0.00    +0.000 C 
BRANCH  10  16
ATOM     11  C   UNL     1      -1.213   0.178  -0.170  0.00  0.00    +0.000 C 
ATOM     12  C   UNL     1      -2.665   0.449  -0.457  0.00  0.00    +0.000 C 
ATOM     13  C   UNL     1      -3.497  -0.520  -0.867  0.00  0.00    +0.000 C 
ATOM     14  C   UNL     1      -3.027  -1.868  -1.068  0.00  0.00    +0.000 C 
ATOM     15  C   UNL     1      -1.822  -2.257  -0.627  0.00  0.00    +0.000 C 
ATOM     16  C   UNL     1      -0.878  -1.312   0.094  0.00  0.00    +0.000 C 
ENDBRANCH  10  16
ENDBRANCH   1  10
TORSDOF 4
