REMARK  Name = *****
REMARK  5 active torsions:
REMARK  status: ('A' for Active; 'I' for Inactive)
REMARK    1  A    between atoms: C_1  and  N_2
REMARK    2  A    between atoms: N_2  and  C_3
REMARK    3  A    between atoms: N_2  and  C_9
REMARK    4  A    between atoms: C_9  and  S_10
REMARK    5  A    between atoms: C_9  and  C_12
REMARK                            x       y       z     vdW  Elec       q    Type
REMARK                         _______ _______ _______ _____ _____    ______ ____
ROOT
ATOM      1  C   UNL     1       3.149   1.385  -0.608  0.00  0.00    +0.000 C 
ENDROOT
BRANCH   1   2
ATOM      2  C   UNL     1       4.614   1.005  -0.837  0.00  0.00    +0.000 C 
ATOM      3  C   UNL     1       5.576   2.194  -0.704  0.00  0.00    +0.000 C 
ATOM      4  C   UNL     1       7.024   1.761  -0.922  0.00  0.00    +0.000 C 
ATOM      5  C   UNL     1       7.201   1.057  -2.265  0.00  0.00    +0.000 C 
ATOM      6  C   UNL     1       6.241  -0.120  -2.417  0.00  0.00    +0.000 C 
ATOM      7  C   UNL     1       4.790   0.301  -2.192  0.00  0.00    +0.000 C 
ENDBRANCH   1   2
BRANCH   1   9
ATOM      8  C   UNL     1       2.968   0.753   1.741  0.00  0.00    +0.000 C 
ATOM      9  N   UNL     1       2.470   0.666   0.374  0.00  0.00    +0.000 N 
BRANCH   9  10
ATOM     10  C   UNL     1       1.297  -0.122   0.104  0.00  0.00    +0.000 A 
ATOM     11  C   UNL     1       0.521  -0.655   1.146  0.00  0.00    +0.000 A 
ATOM     12  C   UNL     1      -0.600  -1.452   0.885  0.00  0.00    +0.000 A 
ATOM     13  C   UNL     1      -0.962  -1.740  -0.426  0.00  0.00    +0.000 A 
ATOM     14  C   UNL     1      -0.202  -1.234  -1.473  0.00  0.00    +0.000 A 
ATOM     15  C   UNL     1       0.919  -0.438  -1.210  0.00  0.00    +0.000 A 
ENDBRANCH   9  10
ENDBRANCH   1   9
BRANCH   1  16
ATOM     16  S   UNL     1       2.441   2.607  -1.463  0.00  0.00    +0.000 S 
ATOM     17  O   UNL     1       1.026   2.901  -1.099  0.00  0.00    +0.000 OA
ENDBRANCH   1  16
TORSDOF 4
