REMARK  Name = *****
REMARK  4 active torsions:
REMARK  status: ('A' for Active; 'I' for Inactive)
REMARK    1  A    between atoms: C_1  and  C_2
REMARK    2  A    between atoms: C_2  and  C_11
REMARK    3  A    between atoms: N_3  and  C_4
REMARK    4  A    between atoms: C_4  and  C_5
REMARK                            x       y       z     vdW  Elec       q    Type
REMARK                         _______ _______ _______ _____ _____    ______ ____
ROOT
ATOM      1  C   UNL     1       0.873   0.053  -0.111  0.00  0.00    +0.000 C 
ATOM      2  C   UNL     1       2.386   0.116  -0.048  0.00  0.00    +0.000 C 
ATOM      3  N   UNL     1       3.046   0.436   1.016  0.00  0.00    +0.000 NA
ENDROOT
BRANCH   2   4
ATOM      4  C   UNL     1       3.156  -0.224  -1.285  0.00  0.00    +0.000 A 
ATOM      5  C   UNL     1       2.636  -1.080  -2.263  0.00  0.00    +0.000 A 
ATOM      6  C   UNL     1       3.387  -1.380  -3.404  0.00  0.00    +0.000 A 
ATOM      7  C   UNL     1       4.659  -0.835  -3.568  0.00  0.00    +0.000 A 
ATOM      8  C   UNL     1       5.189   0.007  -2.592  0.00  0.00    +0.000 A 
ATOM      9  C   UNL     1       4.442   0.308  -1.451  0.00  0.00    +0.000 A 
ENDBRANCH   2   4
BRANCH   3  10
ATOM     10  C   UNL     1       2.326   0.737   2.251  0.00  0.00    +0.000 C 
BRANCH  10  11
ATOM     11  C   UNL     1       3.342   0.877   3.398  0.00  0.00    +0.000 C 
ATOM     12  C   UNL     1       4.044  -0.459   3.696  0.00  0.00    +0.000 C 
ATOM     13  C   UNL     1       5.006  -0.343   4.877  0.00  0.00    +0.000 C 
ATOM     14  C   UNL     1       4.309   0.198   6.121  0.00  0.00    +0.000 C 
ATOM     15  C   UNL     1       3.609   1.523   5.838  0.00  0.00    +0.000 C 
ATOM     16  C   UNL     1       2.644   1.409   4.660  0.00  0.00    +0.000 C 
ENDBRANCH  10  11
ENDBRANCH   3  10
TORSDOF 3
