REMARK  Name = *****
REMARK  7 active torsions:
REMARK  status: ('A' for Active; 'I' for Inactive)
REMARK    1  A    between atoms: C_1  and  C_2
REMARK    2  A    between atoms: C_3  and  S_9
REMARK    3  A    between atoms: C_4  and  C_8
REMARK    4  A    between atoms: S_9  and  C_10
REMARK    5  A    between atoms: C_10  and  C_11
REMARK    6  A    between atoms: C_14  and  O_17
REMARK    7  A    between atoms: O_17  and  C_18
REMARK                            x       y       z     vdW  Elec       q    Type
REMARK                         _______ _______ _______ _____ _____    ______ ____
ROOT
ATOM      1  S   UNL     1       0.067   2.696   0.849  0.00  0.00    +0.000 S 
ENDROOT
BRANCH   1   4
ATOM      2  C   UNL     1       2.135   0.560   1.846  0.00  0.00    +0.000 C 
ATOM      3  C   UNL     1       1.162   0.130   0.779  0.00  0.00    +0.000 A 
ATOM      4  C   UNL     1       0.173   0.999   0.259  0.00  0.00    +0.000 A 
ATOM      5  C   UNL     1      -0.738   0.525  -0.715  0.00  0.00    +0.000 A 
ATOM      6  C   UNL     1      -0.623  -0.796  -1.177  0.00  0.00    +0.000 A 
ATOM      7  C   UNL     1       0.363  -1.643  -0.680  0.00  0.00    +0.000 A 
ATOM      8  C   UNL     1       1.245  -1.185   0.294  0.00  0.00    +0.000 A 
ATOM      9  C   UNL     1      -1.840   1.384  -1.280  0.00  0.00    +0.000 C 
ENDBRANCH   1   4
BRANCH   1  10
ATOM     10  C   UNL     1       1.153   3.480  -0.387  0.00  0.00    +0.000 C 
BRANCH  10  11
ATOM     11  C   UNL     1       1.354   4.945  -0.095  0.00  0.00    +0.000 A 
ATOM     12  C   UNL     1       0.394   5.890  -0.481  0.00  0.00    +0.000 A 
ATOM     13  C   UNL     1       0.573   7.250  -0.201  0.00  0.00    +0.000 A 
ATOM     14  C   UNL     1       1.714   7.683   0.473  0.00  0.00    +0.000 A 
ATOM     15  C   UNL     1       2.672   6.744   0.863  0.00  0.00    +0.000 A 
ATOM     16  C   UNL     1       2.495   5.386   0.588  0.00  0.00    +0.000 A 
BRANCH  14  17
ATOM     17  O   UNL     1       2.012   8.975   0.808  0.00  0.00    +0.000 OA
ATOM     18  C   UNL     1       1.038   9.960   0.488  0.00  0.00    +0.000 C 
ENDBRANCH  14  17
ENDBRANCH  10  11
ENDBRANCH   1  10
TORSDOF 4
