REMARK  Name = *****
REMARK  5 active torsions:
REMARK  status: ('A' for Active; 'I' for Inactive)
REMARK    1  A    between atoms: C_1  and  O_2
REMARK    2  A    between atoms: O_2  and  C_3
REMARK    3  A    between atoms: C_3  and  C_5
REMARK    4  A    between atoms: C_8  and  C_11
REMARK    5  A    between atoms: C_12  and  C_13
REMARK                            x       y       z     vdW  Elec       q    Type
REMARK                         _______ _______ _______ _____ _____    ______ ____
ROOT
ATOM      1  C   UNL     1       4.737   0.726   0.862  0.00  0.00    +0.000 A 
ATOM      2  C   UNL     1       5.409   0.757  -0.368  0.00  0.00    +0.000 A 
ATOM      3  C   UNL     1       6.788   0.524  -0.422  0.00  0.00    +0.000 A 
ATOM      4  C   UNL     1       7.501   0.259   0.749  0.00  0.00    +0.000 A 
ATOM      5  C   UNL     1       6.837   0.228   1.977  0.00  0.00    +0.000 A 
ATOM      6  C   UNL     1       5.459   0.461   2.034  0.00  0.00    +0.000 A 
ENDROOT
BRANCH   1   7
ATOM      7  C   UNL     1       3.272   0.964   0.979  0.00  0.00    +0.000 C 
ATOM      8  O   UNL     1       2.666   0.935   2.039  0.00  0.00    +0.000 OA
BRANCH   7  10
ATOM      9  C   UNL     1       1.319   1.450  -0.207  0.00  0.00    +0.000 C 
ATOM     10  O   UNL     1       2.727   1.212  -0.239  0.00  0.00    +0.000 OA
ENDBRANCH   7  10
ENDBRANCH   1   7
BRANCH   4  11
ATOM     11  C   UNL     1       8.909   0.018   0.690  0.00  0.00    +0.000 C 
ATOM     12  C   UNL     1      10.092  -0.188   0.639  0.00  0.00    +0.000 C 
BRANCH  12  13
ATOM     13  C   UNL     1      11.499  -0.436   0.578  0.00  0.00    +0.000 A 
ATOM     14  C   UNL     1      12.397   0.632   0.520  0.00  0.00    +0.000 A 
ATOM     15  C   UNL     1      13.771   0.388   0.458  0.00  0.00    +0.000 A 
ATOM     16  C   UNL     1      14.247  -0.923   0.455  0.00  0.00    +0.000 A 
ATOM     17  C   UNL     1      13.352  -1.991   0.514  0.00  0.00    +0.000 A 
ATOM     18  C   UNL     1      11.978  -1.748   0.575  0.00  0.00    +0.000 A 
ENDBRANCH  12  13
ENDBRANCH   4  11
TORSDOF 4
