REMARK  Name = *****
REMARK  4 active torsions:
REMARK  status: ('A' for Active; 'I' for Inactive)
REMARK    1  A    between atoms: C_6  and  C_7
REMARK    2  A    between atoms: C_7  and  C_8
REMARK    3  A    between atoms: C_8  and  C_9
REMARK    4  A    between atoms: C_8  and  C_11
REMARK                            x       y       z     vdW  Elec       q    Type
REMARK                         _______ _______ _______ _____ _____    ______ ____
ROOT
ATOM      1  C   UNL     1      -4.001   1.425  -0.353  0.00  0.00    +0.000 C 
ENDROOT
BRANCH   1   2
ATOM      2  C   UNL     1      -5.513   1.370  -0.152  0.00  0.00    +0.000 A 
ATOM      3  C   UNL     1      -6.097   2.022   0.949  0.00  0.00    +0.000 A 
ATOM      4  C   UNL     1      -7.478   1.976   1.150  0.00  0.00    +0.000 A 
ATOM      5  C   UNL     1      -8.280   1.281   0.254  0.00  0.00    +0.000 A 
ATOM      6  C   UNL     1      -7.728   0.630  -0.841  0.00  0.00    +0.000 A 
ATOM      7  C   UNL     1      -6.347   0.673  -1.046  0.00  0.00    +0.000 A 
ATOM      8  F   UNL     1      -9.604   1.238   0.450  0.00  0.00    +0.000 F 
ENDBRANCH   1   2
BRANCH   1   9
ATOM      9  C   UNL     1      -3.653   2.067  -1.640  0.00  0.00    +0.000 C 
ATOM     10  N   UNL     1      -3.376   2.552  -2.658  0.00  0.00    +0.000 NA
ENDBRANCH   1   9
BRANCH   1  11
ATOM     11  C   UNL     1      -3.388   0.011  -0.257  0.00  0.00    +0.000 C 
BRANCH  11  17
ATOM     12  C   UNL     1      -1.024  -0.059  -1.165  0.00  0.00    +0.000 A 
ATOM     13  C   UNL     1       0.359  -0.028  -0.982  0.00  0.00    +0.000 A 
ATOM     14  C   UNL     1       0.879   0.085   0.302  0.00  0.00    +0.000 A 
ATOM     15  C   UNL     1       0.041   0.171   1.407  0.00  0.00    +0.000 A 
ATOM     16  C   UNL     1      -1.343   0.142   1.227  0.00  0.00    +0.000 A 
ATOM     17  C   UNL     1      -1.887   0.024  -0.061  0.00  0.00    +0.000 A 
ATOM     18  F   UNL     1       2.206   0.113   0.477  0.00  0.00    +0.000 F 
ENDBRANCH  11  17
ENDBRANCH   1  11
TORSDOF 4
