REMARK  Name = *****
REMARK  4 active torsions:
REMARK  status: ('A' for Active; 'I' for Inactive)
REMARK    1  A    between atoms: C_6  and  C_7
REMARK    2  A    between atoms: C_7  and  O_8
REMARK    3  A    between atoms: O_8  and  C_9
REMARK    4  A    between atoms: C_12  and  C_15
REMARK                            x       y       z     vdW  Elec       q    Type
REMARK                         _______ _______ _______ _____ _____    ______ ____
ROOT
ATOM      1  O   UNL     1      -3.964   1.364  -0.186  0.00  0.00    +0.000 OA
ENDROOT
BRANCH   1   2
ATOM      2  C   UNL     1      -5.304   1.559  -0.000  0.00  0.00    +0.000 A 
ATOM      3  C   UNL     1      -6.247   0.575   0.297  0.00  0.00    +0.000 A 
ATOM      4  C   UNL     1      -7.594   0.918   0.460  0.00  0.00    +0.000 A 
ATOM      5  C   UNL     1      -8.018   2.247   0.323  0.00  0.00    +0.000 A 
ATOM      6  C   UNL     1      -7.065   3.231   0.036  0.00  0.00    +0.000 A 
ATOM      7  C   UNL     1      -5.721   2.886  -0.128  0.00  0.00    +0.000 A 
BRANCH   5   8
ATOM      8  C   UNL     1      -9.464   2.614   0.512  0.00  0.00    +0.000 C 
ATOM      9 CL   UNL     1      -9.811   2.918   2.225  0.00  0.00    +0.000 Cl
ENDBRANCH   5   8
ENDBRANCH   1   2
BRANCH   1  10
ATOM     10  C   UNL     1      -3.475   0.031  -0.049  0.00  0.00    +0.000 C 
BRANCH  10  16
ATOM     11  C   UNL     1      -1.390  -0.693  -1.295  0.00  0.00    +0.000 A 
ATOM     12  C   UNL     1      -0.005  -0.682  -1.470  0.00  0.00    +0.000 A 
ATOM     13  C   UNL     1       0.791   0.064  -0.610  0.00  0.00    +0.000 A 
ATOM     14  C   UNL     1       0.230   0.802   0.425  0.00  0.00    +0.000 A 
ATOM     15  C   UNL     1      -1.154   0.793   0.603  0.00  0.00    +0.000 A 
ATOM     16  C   UNL     1      -1.978   0.045  -0.256  0.00  0.00    +0.000 A 
ATOM     17  F   UNL     1       2.120   0.073  -0.781  0.00  0.00    +0.000 F 
ENDBRANCH  10  16
ENDBRANCH   1  10
TORSDOF 4
