REMARK  Name = *****
REMARK  9 active torsions:
REMARK  status: ('A' for Active; 'I' for Inactive)
REMARK    1  A    between atoms: C_1  and  C_2
REMARK    2  A    between atoms: C_5  and  O_8
REMARK    3  A    between atoms: C_5  and  O_10
REMARK    4  A    between atoms: O_8  and  O_9
REMARK    5  A    between atoms: O_10  and  O_11
REMARK    6  A    between atoms: O_11  and  C_12
REMARK    7  A    between atoms: C_12  and  O_19
REMARK    8  A    between atoms: C_15  and  C_18
REMARK    9  A    between atoms: O_19  and  O_20
REMARK                            x       y       z     vdW  Elec       q    Type
REMARK                         _______ _______ _______ _____ _____    ______ ____
ROOT
ATOM      1  O   UNL     1      -1.782   0.111  -1.354  0.00  0.00    +0.000 OA
ENDROOT
BRANCH   1   6
ATOM      2  C   UNL     1      -4.306  -3.680  -0.125  0.00  0.00    +0.000 C 
ATOM      3  C   UNL     1      -3.695  -2.385   0.406  0.00  0.00    +0.000 C 
ATOM      4  C   UNL     1      -2.172  -2.395   0.236  0.00  0.00    +0.000 C 
ATOM      5  C   UNL     1      -1.546  -1.090   0.725  0.00  0.00    +0.000 C 
ATOM      6  C   UNL     1      -2.148   0.149   0.043  0.00  0.00    +0.000 C 
ATOM      7  C   UNL     1      -3.678   0.138   0.183  0.00  0.00    +0.000 C 
ATOM      8  C   UNL     1      -4.310  -1.169  -0.295  0.00  0.00    +0.000 C 
BRANCH   6   9
ATOM      9  O   UNL     1      -1.661   1.328   0.719  0.00  0.00    +0.000 OA
BRANCH   9  10
ATOM     10  O   UNL     1      -0.253   1.488   0.350  0.00  0.00    +0.000 OA
ATOM     11  H   UNL     1       0.108   2.275   0.789  0.00  0.00    +0.000 HD
ENDBRANCH   9  10
ENDBRANCH   6   9
ENDBRANCH   1   6
BRANCH   1  12
ATOM     12  O   UNL     1      -1.970   1.465  -1.890  0.00  0.00    +0.000 OA
BRANCH  12  13
ATOM     13  C   UNL     1      -2.471   1.331  -3.242  0.00  0.00    +0.000 C 
ATOM     14  C   UNL     1      -1.346   0.774  -4.134  0.00  0.00    +0.000 C 
ATOM     15  C   UNL     1      -0.136   1.708  -4.184  0.00  0.00    +0.000 C 
ATOM     16  C   UNL     1      -0.535   3.120  -4.636  0.00  0.00    +0.000 C 
ATOM     17  C   UNL     1      -1.652   3.691  -3.751  0.00  0.00    +0.000 C 
ATOM     18  C   UNL     1      -2.859   2.752  -3.685  0.00  0.00    +0.000 C 
ATOM     19  C   UNL     1       0.679   4.048  -4.635  0.00  0.00    +0.000 C 
BRANCH  13  20
ATOM     20  O   UNL     1      -3.636   0.486  -3.249  0.00  0.00    +0.000 OA
BRANCH  20  21
ATOM     21  O   UNL     1      -4.093   0.337  -4.628  0.00  0.00    +0.000 OA
ATOM     22  H   UNL     1      -4.878  -0.231  -4.649  0.00  0.00    +0.000 HD
ENDBRANCH  20  21
ENDBRANCH  13  20
ENDBRANCH  12  13
ENDBRANCH   1  12
TORSDOF 7
