REMARK  Name = *****
REMARK  2 active torsions:
REMARK  status: ('A' for Active; 'I' for Inactive)
REMARK    1  A    between atoms: C_1  and  C_2
REMARK    2  A    between atoms: C_12  and  C_13
REMARK                            x       y       z     vdW  Elec       q    Type
REMARK                         _______ _______ _______ _____ _____    ______ ____
ROOT
ATOM      1  C   UNL     1       0.873  -0.422  -0.141  0.00  0.00    +0.000 C 
ATOM      2  C   UNL     1       2.360  -0.242  -0.027  0.00  0.00    +0.000 A 
ATOM      3  C   UNL     1       2.922   1.047  -0.063  0.00  0.00    +0.000 A 
ATOM      4  C   UNL     1       4.300   1.175   0.013  0.00  0.00    +0.000 A 
ATOM      5  C   UNL     1       5.098   0.059   0.107  0.00  0.00    +0.000 A 
ATOM      6  C   UNL     1       4.587  -1.228   0.130  0.00  0.00    +0.000 A 
ATOM      7  C   UNL     1       3.200  -1.373   0.057  0.00  0.00    +0.000 A 
ATOM      8  C   UNL     1       6.493   0.478   0.163  0.00  0.00    +0.000 C 
ATOM      9  O   UNL     1       7.454  -0.266   0.242  0.00  0.00    +0.000 OA
ATOM     10  O   UNL     1       6.525   1.850   0.105  0.00  0.00    +0.000 OA
ATOM     11  C   UNL     1       5.201   2.302   0.010  0.00  0.00    +0.000 C 
ATOM     12  C   UNL     1       4.853   3.597  -0.048  0.00  0.00    +0.000 C 
ENDROOT
BRANCH  12  13
ATOM     13  C   UNL     1       5.786   4.733  -0.036  0.00  0.00    +0.000 A 
ATOM     14  C   UNL     1       6.949   4.754  -0.815  0.00  0.00    +0.000 A 
ATOM     15  C   UNL     1       7.791   5.870  -0.805  0.00  0.00    +0.000 A 
ATOM     16  C   UNL     1       7.471   6.979  -0.026  0.00  0.00    +0.000 A 
ATOM     17  C   UNL     1       6.308   6.977   0.740  0.00  0.00    +0.000 A 
ATOM     18  C   UNL     1       5.466   5.862   0.730  0.00  0.00    +0.000 A 
ENDBRANCH  12  13
TORSDOF 1
