REMARK  Name = *****
REMARK  2 active torsions:
REMARK  status: ('A' for Active; 'I' for Inactive)
REMARK    1  A    between atoms: C_3  and  C_10
REMARK    2  A    between atoms: C_10  and  C_11
REMARK                            x       y       z     vdW  Elec       q    Type
REMARK                         _______ _______ _______ _____ _____    ______ ____
ROOT
ATOM      1  C   UNL     1      -1.736   1.219   0.497  0.00  0.00    +0.000 C 
ATOM      2  C   UNL     1      -2.478  -0.091   0.565  0.00  0.00    +0.000 C 
ATOM      3  C   UNL     1      -1.728  -1.142   0.183  0.00  0.00    +0.000 C 
ATOM      4  C   UNL     1      -0.398  -0.629  -0.153  0.00  0.00    +0.000 A 
ATOM      5  C   UNL     1       0.745  -1.287  -0.574  0.00  0.00    +0.000 A 
ATOM      6  C   UNL     1       1.896  -0.533  -0.825  0.00  0.00    +0.000 A 
ATOM      7  C   UNL     1       1.894   0.860  -0.650  0.00  0.00    +0.000 A 
ATOM      8  C   UNL     1       0.742   1.520  -0.220  0.00  0.00    +0.000 A 
ATOM      9  C   UNL     1      -0.392   0.762   0.024  0.00  0.00    +0.000 A 
ENDROOT
BRANCH   3  10
ATOM     10  C   UNL     1      -2.117  -2.584   0.141  0.00  0.00    +0.000 C 
BRANCH  10  11
ATOM     11  C   UNL     1      -2.319  -3.125  -1.254  0.00  0.00    +0.000 A 
ATOM     12  C   UNL     1      -3.341  -2.628  -2.079  0.00  0.00    +0.000 A 
ATOM     13  C   UNL     1      -3.529  -3.139  -3.366  0.00  0.00    +0.000 A 
ATOM     14  C   UNL     1      -2.701  -4.154  -3.844  0.00  0.00    +0.000 A 
ATOM     15  C   UNL     1      -1.686  -4.659  -3.034  0.00  0.00    +0.000 A 
ATOM     16  C   UNL     1      -1.504  -4.145  -1.753  0.00  0.00    +0.000 A 
ATOM     17  F   UNL     1      -0.521  -4.651  -0.994  0.00  0.00    +0.000 F 
ENDBRANCH  10  11
ENDBRANCH   3  10
TORSDOF 2
