REMARK  Name = *****
REMARK  5 active torsions:
REMARK  status: ('A' for Active; 'I' for Inactive)
REMARK    1  A    between atoms: C_1  and  C_2
REMARK    2  A    between atoms: C_2  and  S_4
REMARK    3  A    between atoms: S_4  and  C_5
REMARK    4  A    between atoms: C_8  and  C_11
REMARK    5  A    between atoms: C_12  and  C_13
REMARK                            x       y       z     vdW  Elec       q    Type
REMARK                         _______ _______ _______ _____ _____    ______ ____
ROOT
ATOM      1  C   UNL     1       5.175  -0.660   0.961  0.00  0.00    +0.000 A 
ATOM      2  C   UNL     1       5.887  -1.626   0.242  0.00  0.00    +0.000 A 
ATOM      3  C   UNL     1       7.248  -1.449  -0.019  0.00  0.00    +0.000 A 
ATOM      4  C   UNL     1       7.904  -0.302   0.431  0.00  0.00    +0.000 A 
ATOM      5  C   UNL     1       7.198   0.667   1.146  0.00  0.00    +0.000 A 
ATOM      6  C   UNL     1       5.835   0.489   1.407  0.00  0.00    +0.000 A 
ENDROOT
BRANCH   4   7
ATOM      7  C   UNL     1       9.294  -0.116   0.149  0.00  0.00    +0.000 C 
ATOM      8  C   UNL     1      10.457   0.040  -0.108  0.00  0.00    +0.000 C 
BRANCH   8   9
ATOM      9  C   UNL     1      11.835   0.218  -0.434  0.00  0.00    +0.000 A 
ATOM     10  C   UNL     1      12.789  -0.717  -0.059  0.00  0.00    +0.000 A 
ATOM     11  C   UNL     1      14.112  -0.488  -0.428  0.00  0.00    +0.000 A 
ATOM     12  C   UNL     1      14.429   0.658  -1.151  0.00  0.00    +0.000 A 
ATOM     13  C   UNL     1      13.404   1.534  -1.475  0.00  0.00    +0.000 A 
ATOM     14  N   UNL     1      12.113   1.340  -1.133  0.00  0.00    +0.000 NA
ENDBRANCH   8   9
ENDBRANCH   4   7
BRANCH   1  15
ATOM     15  S   UNL     1       3.432  -0.866   1.255  0.00  0.00    +0.000 S 
BRANCH  15  17
ATOM     16  C   UNL     1       2.051  -2.020   3.316  0.00  0.00    +0.000 C 
ATOM     17  C   UNL     1       3.429  -1.701   2.808  0.00  0.00    +0.000 C 
ATOM     18  O   UNL     1       4.449  -1.997   3.418  0.00  0.00    +0.000 OA
ENDBRANCH  15  17
ENDBRANCH   1  15
TORSDOF 4
