REMARK  Name = *****
REMARK  2 active torsions:
REMARK  status: ('A' for Active; 'I' for Inactive)
REMARK    1  A    between atoms: C_7  and  S_9
REMARK    2  A    between atoms: S_9  and  C_10
REMARK                            x       y       z     vdW  Elec       q    Type
REMARK                         _______ _______ _______ _____ _____    ______ ____
ROOT
ATOM      1  C   UNL     1      -1.384   0.188  -0.565  0.00  0.00    +0.000 C 
ATOM      2  C   UNL     1      -0.599   1.352   0.026  0.00  0.00    +0.000 C 
ATOM      3  C   UNL     1       0.900   1.070   0.015  0.00  0.00    +0.000 C 
ATOM      4  N   UNL     1       1.235  -0.210   0.640  0.00  0.00    +0.000 N 
ATOM      5  C   UNL     1       0.462  -1.367   0.172  0.00  0.00    +0.000 C 
ATOM      6  C   UNL     1      -1.042  -1.100   0.171  0.00  0.00    +0.000 C 
ATOM      7  C   UNL     1       2.492  -0.289   1.250  0.00  0.00    +0.000 C 
ATOM      8  O   UNL     1       3.222   0.686   1.407  0.00  0.00    +0.000 OA
ENDROOT
BRANCH   7   9
ATOM      9  S   UNL     1       3.016  -1.881   1.797  0.00  0.00    +0.000 S 
BRANCH   9  10
ATOM     10  C   UNL     1       4.002  -1.470   3.222  0.00  0.00    +0.000 A 
ATOM     11  C   UNL     1       3.436  -0.836   4.335  0.00  0.00    +0.000 A 
ATOM     12  C   UNL     1       4.216  -0.547   5.457  0.00  0.00    +0.000 A 
ATOM     13  C   UNL     1       5.564  -0.901   5.471  0.00  0.00    +0.000 A 
ATOM     14  C   UNL     1       6.137  -1.542   4.374  0.00  0.00    +0.000 A 
ATOM     15  C   UNL     1       5.354  -1.829   3.252  0.00  0.00    +0.000 A 
ATOM     16 BR   UNL     1       6.621  -0.514   6.989  0.00  0.00    +0.000 Br
ENDBRANCH   9  10
ENDBRANCH   7   9
TORSDOF 2
