REMARK  Name = *****
REMARK  4 active torsions:
REMARK  status: ('A' for Active; 'I' for Inactive)
REMARK    1  A    between atoms: C_1  and  C_2
REMARK    2  A    between atoms: C_3  and  C_8
REMARK    3  A    between atoms: C_4  and  C_7
REMARK    4  A    between atoms: C_8  and  C_9
REMARK                            x       y       z     vdW  Elec       q    Type
REMARK                         _______ _______ _______ _____ _____    ______ ____
ROOT
ATOM      1  C   UNL     1       1.226   2.861   0.522  0.00  0.00    +0.000 C 
ATOM      2  C   UNL     1       0.252   3.159   1.404  0.00  0.00    +0.000 C 
ATOM      3  C   UNL     1      -1.006   3.665   0.747  0.00  0.00    +0.000 C 
ATOM      4  C   UNL     1      -0.608   3.637  -0.694  0.00  0.00    +0.000 A 
ATOM      5  C   UNL     1      -1.354   4.001  -1.803  0.00  0.00    +0.000 A 
ATOM      6  C   UNL     1      -0.759   3.890  -3.061  0.00  0.00    +0.000 A 
ATOM      7  C   UNL     1       0.558   3.422  -3.189  0.00  0.00    +0.000 A 
ATOM      8  C   UNL     1       1.301   3.058  -2.061  0.00  0.00    +0.000 A 
ATOM      9  C   UNL     1       0.709   3.167  -0.814  0.00  0.00    +0.000 A 
ENDROOT
BRANCH   1  10
ATOM     10  C   UNL     1       2.604   2.359   0.818  0.00  0.00    +0.000 C 
BRANCH  10  13
ATOM     11  C   UNL     1       0.925  -0.448   0.762  0.00  0.00    +0.000 C 
ATOM     12  C   UNL     1       2.245  -0.117   0.163  0.00  0.00    +0.000 C 
ATOM     13  C   UNL     1       2.956   1.033   0.197  0.00  0.00    +0.000 C 
ATOM     14  C   UNL     1       4.215   0.812  -0.514  0.00  0.00    +0.000 C 
ATOM     15  C   UNL     1       4.249  -0.445  -0.984  0.00  0.00    +0.000 C 
ATOM     16  C   UNL     1       2.996  -1.168  -0.608  0.00  0.00    +0.000 C 
ATOM     17  C   UNL     1       5.286   1.833  -0.668  0.00  0.00    +0.000 C 
ENDBRANCH  10  13
ENDBRANCH   1  10
TORSDOF 2
