REMARK  Name = *****
REMARK  3 active torsions:
REMARK  status: ('A' for Active; 'I' for Inactive)
REMARK    1  A    between atoms: C_4  and  C_8
REMARK    2  A    between atoms: C_8  and  S_9
REMARK    3  A    between atoms: S_9  and  C_12
REMARK                            x       y       z     vdW  Elec       q    Type
REMARK                         _______ _______ _______ _____ _____    ______ ____
ROOT
ATOM      1  C   UNL     1      -0.185   2.405  -0.033  0.00  0.00    +0.000 C 
ENDROOT
BRANCH   1   5
ATOM      2  C   UNL     1      -0.807  -1.869   0.195  0.00  0.00    +0.000 A 
ATOM      3  C   UNL     1      -0.492  -1.254  -1.012  0.00  0.00    +0.000 A 
ATOM      4  C   UNL     1      -0.284   0.122  -1.049  0.00  0.00    +0.000 A 
ATOM      5  C   UNL     1      -0.381   0.919   0.098  0.00  0.00    +0.000 A 
ATOM      6  C   UNL     1      -0.695   0.283   1.307  0.00  0.00    +0.000 A 
ATOM      7  C   UNL     1      -0.906  -1.100   1.354  0.00  0.00    +0.000 A 
ATOM      8 CL   UNL     1      -0.811   1.156   2.793  0.00  0.00    +0.000 Cl
ATOM      9  F   UNL     1       0.033   0.689  -2.221  0.00  0.00    +0.000 F 
ENDBRANCH   1   5
BRANCH   1  10
ATOM     10  S   UNL     1      -1.756   3.151  -0.469  0.00  0.00    +0.000 S 
ATOM     11  O   UNL     1      -2.066   2.919  -1.865  0.00  0.00    +0.000 OA
ATOM     12  O   UNL     1      -2.731   2.903   0.576  0.00  0.00    +0.000 OA
BRANCH  10  13
ATOM     13  C   UNL     1      -1.432   4.901  -0.340  0.00  0.00    +0.000 A 
ATOM     14  C   UNL     1      -1.973   5.878   0.474  0.00  0.00    +0.000 A 
ATOM     15  C   UNL     1      -1.404   7.162   0.233  0.00  0.00    +0.000 A 
ATOM     16  C   UNL     1      -0.450   7.122  -0.759  0.00  0.00    +0.000 A 
ATOM     17  S   UNL     1      -0.247   5.546  -1.392  0.00  0.00    +0.000 S 
ENDBRANCH  10  13
ENDBRANCH   1  10
TORSDOF 3
