REMARK  Name = *****
REMARK  3 active torsions:
REMARK  status: ('A' for Active; 'I' for Inactive)
REMARK    1  A    between atoms: C_6  and  O_8
REMARK    2  A    between atoms: O_8  and  C_9
REMARK    3  A    between atoms: C_9  and  C_10
REMARK                            x       y       z     vdW  Elec       q    Type
REMARK                         _______ _______ _______ _____ _____    ______ ____
ROOT
ATOM      1  O   UNL     1       0.223   0.734  -1.837  0.00  0.00    +0.000 OA
ENDROOT
BRANCH   1   7
ATOM      2  C   UNL     1       1.508  -1.062   0.447  0.00  0.00    +0.000 C 
ATOM      3  C   UNL     1       0.124  -1.447   1.042  0.00  0.00    +0.000 C 
ATOM      4  C   UNL     1      -0.890  -0.836   0.144  0.00  0.00    +0.000 C 
ATOM      5  C   UNL     1      -2.093   0.057   0.206  0.00  0.00    +0.000 C 
ATOM      6  C   UNL     1      -0.741   0.673   0.362  0.00  0.00    +0.000 C 
ATOM      7  C   UNL     1       0.408   1.129  -0.481  0.00  0.00    +0.000 C 
ATOM      8  C   UNL     1       1.670   0.459   0.147  0.00  0.00    +0.000 C 
ENDBRANCH   1   7
BRANCH   1   9
ATOM      9  C   UNL     1       0.944   1.550  -2.757  0.00  0.00    +0.000 C 
BRANCH   9  10
ATOM     10  C   UNL     1       0.771   1.027  -4.162  0.00  0.00    +0.000 A 
ATOM     11  C   UNL     1       0.721   1.918  -5.244  0.00  0.00    +0.000 A 
ATOM     12  C   UNL     1       0.601   1.443  -6.552  0.00  0.00    +0.000 A 
ATOM     13  C   UNL     1       0.542   0.073  -6.795  0.00  0.00    +0.000 A 
ATOM     14  C   UNL     1       0.605  -0.825  -5.731  0.00  0.00    +0.000 A 
ATOM     15  C   UNL     1       0.725  -0.351  -4.423  0.00  0.00    +0.000 A 
ENDBRANCH   9  10
ENDBRANCH   1   9
TORSDOF 3
