REMARK  Name = *****
REMARK  5 active torsions:
REMARK  status: ('A' for Active; 'I' for Inactive)
REMARK    1  A    between atoms: C_1  and  C_2
REMARK    2  A    between atoms: C_3  and  C_19
REMARK    3  A    between atoms: C_4  and  C_8
REMARK    4  A    between atoms: C_8  and  C_10
REMARK    5  A    between atoms: C_10  and  C_11
REMARK                            x       y       z     vdW  Elec       q    Type
REMARK                         _______ _______ _______ _____ _____    ______ ____
ROOT
ATOM      1  C   UNL     1      -0.921  -2.591   0.018  0.00  0.00    +0.000 C 
ATOM      2  O   UNL     1      -0.326  -3.262  -0.823  0.00  0.00    +0.000 OA
ENDROOT
BRANCH   1   6
ATOM      3  C   UNL     1       2.052   1.529   0.044  0.00  0.00    +0.000 C 
ATOM      4  C   UNL     1       0.707   0.851   0.052  0.00  0.00    +0.000 A 
ATOM      5  C   UNL     1       0.577  -0.557   0.084  0.00  0.00    +0.000 A 
ATOM      6  C   UNL     1      -0.720  -1.118   0.055  0.00  0.00    +0.000 A 
ATOM      7  C   UNL     1      -1.856  -0.299   0.030  0.00  0.00    +0.000 A 
ATOM      8  C   UNL     1      -1.718   1.085   0.034  0.00  0.00    +0.000 A 
ATOM      9  C   UNL     1      -0.447   1.654   0.044  0.00  0.00    +0.000 A 
ATOM     10  C   UNL     1       1.797  -1.445   0.098  0.00  0.00    +0.000 C 
ENDBRANCH   1   6
BRANCH   1  11
ATOM     11  C   UNL     1      -1.833  -3.210   1.061  0.00  0.00    +0.000 C 
BRANCH  11  12
ATOM     12  C   UNL     1      -3.027  -3.911   0.465  0.00  0.00    +0.000 A 
ATOM     13  C   UNL     1      -4.311  -3.368   0.592  0.00  0.00    +0.000 A 
ATOM     14  C   UNL     1      -5.424  -3.997   0.048  0.00  0.00    +0.000 A 
ATOM     15  C   UNL     1      -5.251  -5.189  -0.640  0.00  0.00    +0.000 A 
ATOM     16  C   UNL     1      -3.988  -5.754  -0.789  0.00  0.00    +0.000 A 
ATOM     17  C   UNL     1      -2.876  -5.116  -0.237  0.00  0.00    +0.000 A 
ATOM     18  F   UNL     1      -6.315  -5.804  -1.170  0.00  0.00    +0.000 F 
ATOM     19  F   UNL     1      -4.483  -2.213   1.251  0.00  0.00    +0.000 F 
ENDBRANCH  11  12
ENDBRANCH   1  11
TORSDOF 3
