REMARK  Name = *****
REMARK  2 active torsions:
REMARK  status: ('A' for Active; 'I' for Inactive)
REMARK    1  A    between atoms: C_4  and  C_7
REMARK    2  A    between atoms: N_8  and  C_9
REMARK                            x       y       z     vdW  Elec       q    Type
REMARK                         _______ _______ _______ _____ _____    ______ ____
ROOT
ATOM      1  C   UNL     1      -5.027  -0.326  -0.715  0.00  0.00    +0.000 A 
ATOM      2  C   UNL     1      -5.538   0.697  -1.530  0.00  0.00    +0.000 A 
ATOM      3  C   UNL     1      -6.905   0.939  -1.631  0.00  0.00    +0.000 A 
ATOM      4  C   UNL     1      -7.785   0.140  -0.914  0.00  0.00    +0.000 A 
ATOM      5  C   UNL     1      -7.322  -0.889  -0.105  0.00  0.00    +0.000 A 
ATOM      6  C   UNL     1      -5.951  -1.115  -0.017  0.00  0.00    +0.000 A 
ATOM      7  F   UNL     1      -5.523  -2.115   0.770  0.00  0.00    +0.000 F 
ATOM      8  F   UNL     1      -9.101   0.365  -1.005  0.00  0.00    +0.000 F 
ATOM      9  F   UNL     1      -4.701   1.480  -2.230  0.00  0.00    +0.000 F 
ENDROOT
BRANCH   1  11
ATOM     10  C   UNL     1      -2.865   0.337  -0.230  0.00  0.00    +0.000 C 
ATOM     11  N   UNL     1      -3.649  -0.614  -0.627  0.00  0.00    +0.000 NA
BRANCH  10  15
ATOM     12  C   UNL     1       1.352  -0.172   0.144  0.00  0.00    +0.000 A 
ATOM     13  C   UNL     1       0.561  -1.250  -0.254  0.00  0.00    +0.000 A 
ATOM     14  C   UNL     1      -0.820  -1.093  -0.380  0.00  0.00    +0.000 A 
ATOM     15  C   UNL     1      -1.406   0.146  -0.106  0.00  0.00    +0.000 A 
ATOM     16  C   UNL     1      -0.615   1.227   0.293  0.00  0.00    +0.000 A 
ATOM     17  C   UNL     1       0.766   1.065   0.417  0.00  0.00    +0.000 A 
ENDBRANCH  10  15
ENDBRANCH   1  11
TORSDOF 2
