REMARK  Name = *****
REMARK  3 active torsions:
REMARK  status: ('A' for Active; 'I' for Inactive)
REMARK    1  A    between atoms: C_5  and  S_7
REMARK    2  A    between atoms: S_7  and  C_8
REMARK    3  A    between atoms: C_8  and  C_10
REMARK                            x       y       z     vdW  Elec       q    Type
REMARK                         _______ _______ _______ _____ _____    ______ ____
ROOT
ATOM      1  C   UNL     1      -3.173   0.466   1.554  0.00  0.00    +0.000 C 
ATOM      2  O   UNL     1      -3.765   0.240   0.505  0.00  0.00    +0.000 OA
ENDROOT
BRANCH   1   3
ATOM      3  C   UNL     1      -3.843   1.226   2.654  0.00  0.00    +0.000 A 
ATOM      4  C   UNL     1      -3.240   1.510   3.888  0.00  0.00    +0.000 A 
ATOM      5  C   UNL     1      -3.932   2.231   4.866  0.00  0.00    +0.000 A 
ATOM      6  C   UNL     1      -5.230   2.675   4.624  0.00  0.00    +0.000 A 
ATOM      7  C   UNL     1      -5.842   2.400   3.403  0.00  0.00    +0.000 A 
ATOM      8  C   UNL     1      -5.153   1.680   2.425  0.00  0.00    +0.000 A 
ENDBRANCH   1   3
BRANCH   1   9
ATOM      9  S   UNL     1      -1.525  -0.097   1.806  0.00  0.00    +0.000 S 
BRANCH   9  14
ATOM     10  C   UNL     1       0.531   1.376  -0.520  0.00  0.00    +0.000 C 
ATOM     11  C   UNL     1       1.676   0.390  -0.756  0.00  0.00    +0.000 C 
ATOM     12  C   UNL     1       1.393  -0.985  -0.226  0.00  0.00    +0.000 C 
ATOM     13  C   UNL     1       0.174  -1.387   0.167  0.00  0.00    +0.000 C 
ATOM     14  C   UNL     1      -1.064  -0.526   0.088  0.00  0.00    +0.000 C 
ATOM     15  C   UNL     1      -0.831   0.728  -0.777  0.00  0.00    +0.000 C 
ENDBRANCH   9  14
ENDBRANCH   1   9
TORSDOF 3
