REMARK  Name = *****
REMARK  2 active torsions:
REMARK  status: ('A' for Active; 'I' for Inactive)
REMARK    1  A    between atoms: C_2  and  C_11
REMARK    2  A    between atoms: C_11  and  C_12
REMARK                            x       y       z     vdW  Elec       q    Type
REMARK                         _______ _______ _______ _____ _____    ______ ____
ROOT
ATOM      1  C   UNL     1       1.248   1.362   0.186  0.00  0.00    +0.000 C 
ATOM      2  C   UNL     1       2.364   0.493  -0.441  0.00  0.00    +0.000 C 
ATOM      3  C   UNL     1       2.194  -0.967  -0.078  0.00  0.00    +0.000 C 
ATOM      4  C   UNL     1       1.004  -1.508   0.223  0.00  0.00    +0.000 C 
ATOM      5  C   UNL     1      -0.212  -0.691   0.191  0.00  0.00    +0.000 A 
ATOM      6  C   UNL     1      -1.473  -1.295   0.221  0.00  0.00    +0.000 A 
ATOM      7  C   UNL     1      -2.629  -0.512   0.193  0.00  0.00    +0.000 A 
ATOM      8  C   UNL     1      -2.531   0.878   0.146  0.00  0.00    +0.000 A 
ATOM      9  C   UNL     1      -1.278   1.490   0.127  0.00  0.00    +0.000 A 
ATOM     10  C   UNL     1      -0.114   0.711   0.139  0.00  0.00    +0.000 A 
ENDROOT
BRANCH   2  11
ATOM     11  C   UNL     1       2.414   0.693  -1.974  0.00  0.00    +0.000 C 
BRANCH  11  12
ATOM     12  C   UNL     1       3.617   0.057  -2.633  0.00  0.00    +0.000 A 
ATOM     13  C   UNL     1       3.481  -1.135  -3.358  0.00  0.00    +0.000 A 
ATOM     14  C   UNL     1       4.592  -1.730  -3.957  0.00  0.00    +0.000 A 
ATOM     15  C   UNL     1       5.849  -1.140  -3.838  0.00  0.00    +0.000 A 
ATOM     16  C   UNL     1       5.996   0.045  -3.119  0.00  0.00    +0.000 A 
ATOM     17  C   UNL     1       4.886   0.641  -2.519  0.00  0.00    +0.000 A 
ENDBRANCH  11  12
ENDBRANCH   2  11
TORSDOF 2
