REMARK  Name = *****
REMARK  1 active torsions:
REMARK  status: ('A' for Active; 'I' for Inactive)
REMARK    1  A    between atoms: C_2  and  C_11
REMARK                            x       y       z     vdW  Elec       q    Type
REMARK                         _______ _______ _______ _____ _____    ______ ____
ROOT
ATOM      1  C   UNL     1      -2.495   0.645  -0.596  0.00  0.00    +0.000 C 
ATOM      2  C   UNL     1      -2.563  -0.650   0.211  0.00  0.00    +0.000 C 
ATOM      3  S   UNL     1      -1.172  -1.758  -0.232  0.00  0.00    +0.000 S 
ATOM      4  C   UNL     1       0.246  -0.681  -0.056  0.00  0.00    +0.000 A 
ATOM      5  C   UNL     1       1.485  -1.349  -0.040  0.00  0.00    +0.000 A 
ATOM      6  C   UNL     1       2.686  -0.652   0.094  0.00  0.00    +0.000 A 
ATOM      7  C   UNL     1       2.668   0.730   0.213  0.00  0.00    +0.000 A 
ATOM      8  C   UNL     1       1.449   1.408   0.192  0.00  0.00    +0.000 A 
ATOM      9  C   UNL     1       0.229   0.721   0.050  0.00  0.00    +0.000 A 
ATOM     10  S   UNL     1      -1.220   1.772   0.043  0.00  0.00    +0.000 S 
ENDROOT
BRANCH   2  11
ATOM     11  C   UNL     1      -3.888  -1.374   0.001  0.00  0.00    +0.000 A 
ATOM     12  C   UNL     1      -4.361  -1.702  -1.282  0.00  0.00    +0.000 A 
ATOM     13  C   UNL     1      -5.583  -2.357  -1.446  0.00  0.00    +0.000 A 
ATOM     14  C   UNL     1      -6.348  -2.696  -0.333  0.00  0.00    +0.000 A 
ATOM     15  C   UNL     1      -5.892  -2.385   0.945  0.00  0.00    +0.000 A 
ATOM     16  C   UNL     1      -4.670  -1.730   1.112  0.00  0.00    +0.000 A 
ENDBRANCH   2  11
TORSDOF 1
