REMARK  Name = *****
REMARK  3 active torsions:
REMARK  status: ('A' for Active; 'I' for Inactive)
REMARK    1  A    between atoms: C_2  and  C_3
REMARK    2  A    between atoms: C_2  and  S_9
REMARK    3  A    between atoms: S_9  and  C_11
REMARK                            x       y       z     vdW  Elec       q    Type
REMARK                         _______ _______ _______ _____ _____    ______ ____
ROOT
ATOM      1  C   UNL     1       0.755   0.370   0.621  0.00  0.00    +0.000 C 
ATOM      2  C   UNL     1       2.057   0.094   0.449  0.00  0.00    +0.000 C 
ENDROOT
BRANCH   2   3
ATOM      3  C   UNL     1       2.776   0.485  -0.756  0.00  0.00    +0.000 C 
ATOM      4  C   UNL     1       2.453  -0.014  -1.964  0.00  0.00    +0.000 C 
ATOM      5  C   UNL     1       3.170   0.344  -3.233  0.00  0.00    +0.000 C 
ATOM      6  C   UNL     1       4.480   1.094  -2.995  0.00  0.00    +0.000 C 
ATOM      7  C   UNL     1       4.322   2.143  -1.900  0.00  0.00    +0.000 C 
ATOM      8  C   UNL     1       3.884   1.499  -0.581  0.00  0.00    +0.000 C 
ENDBRANCH   2   3
BRANCH   2   9
ATOM      9  S   UNL     1       2.959  -0.763   1.756  0.00  0.00    +0.000 S 
ATOM     10  O   UNL     1       1.952  -1.163   2.796  0.00  0.00    +0.000 OA
BRANCH   9  11
ATOM     11  C   UNL     1       3.397  -2.286   0.880  0.00  0.00    +0.000 A 
ATOM     12  C   UNL     1       4.606  -2.363   0.180  0.00  0.00    +0.000 A 
ATOM     13  C   UNL     1       4.950  -3.532  -0.500  0.00  0.00    +0.000 A 
ATOM     14  C   UNL     1       4.092  -4.631  -0.479  0.00  0.00    +0.000 A 
ATOM     15  C   UNL     1       2.889  -4.563   0.224  0.00  0.00    +0.000 A 
ATOM     16  C   UNL     1       2.543  -3.394   0.903  0.00  0.00    +0.000 A 
ENDBRANCH   9  11
ENDBRANCH   2   9
TORSDOF 3
