REMARK  Name = *****
REMARK  2 active torsions:
REMARK  status: ('A' for Active; 'I' for Inactive)
REMARK    1  A    between atoms: C_3  and  C_6
REMARK    2  A    between atoms: C_8  and  C_12
REMARK                            x       y       z     vdW  Elec       q    Type
REMARK                         _______ _______ _______ _____ _____    ______ ____
ROOT
ATOM      1  C   UNL     1       0.108  -2.184   1.133  0.00  0.00    +0.000 A 
ATOM      2  C   UNL     1      -0.066  -1.573   2.387  0.00  0.00    +0.000 A 
ATOM      3  C   UNL     1      -0.115  -2.328   3.574  0.00  0.00    +0.000 A 
ATOM      4  C   UNL     1       0.012  -3.721   3.485  0.00  0.00    +0.000 A 
ATOM      5  C   UNL     1       0.183  -4.343   2.249  0.00  0.00    +0.000 A 
ATOM      6  C   UNL     1       0.229  -3.581   1.082  0.00  0.00    +0.000 A 
ENDROOT
BRANCH   1   9
ATOM      7  C   UNL     1      -0.436  -1.968  -2.291  0.00  0.00    +0.000 C 
ATOM      8  C   UNL     1      -0.958  -1.641  -1.098  0.00  0.00    +0.000 C 
ATOM      9  C   UNL     1       0.148  -1.329  -0.119  0.00  0.00    +0.000 C 
ATOM     10  C   UNL     1       1.371  -1.552  -0.976  0.00  0.00    +0.000 C 
ATOM     11  C   UNL     1       1.003  -1.912  -2.215  0.00  0.00    +0.000 C 
ENDBRANCH   1   9
BRANCH   3  12
ATOM     12  C   UNL     1      -0.307  -1.675   4.929  0.00  0.00    +0.000 C 
ATOM     13  C   UNL     1      -1.588  -0.883   5.043  0.00  0.00    +0.000 C 
ATOM     14  C   UNL     1      -1.313   0.388   5.381  0.00  0.00    +0.000 C 
ATOM     15  C   UNL     1       0.114   0.550   5.508  0.00  0.00    +0.000 C 
ATOM     16  C   UNL     1       0.722  -0.618   5.250  0.00  0.00    +0.000 C 
ENDBRANCH   3  12
TORSDOF 2
