REMARK  Name = *****
REMARK  2 active torsions:
REMARK  status: ('A' for Active; 'I' for Inactive)
REMARK    1  A    between atoms: C_1  and  C_2
REMARK    2  A    between atoms: C_10  and  C_12
REMARK                            x       y       z     vdW  Elec       q    Type
REMARK                         _______ _______ _______ _____ _____    ______ ____
ROOT
ATOM      1  C   UNL     1       1.199   0.255   0.149  0.00  0.00    +0.000 C 
ATOM      2  C   UNL     1       2.680  -0.053  -0.037  0.00  0.00    +0.000 C 
ATOM      3  C   UNL     1       3.137  -1.294   0.725  0.00  0.00    +0.000 C 
ATOM      4  C   UNL     1       2.460  -2.591   0.268  0.00  0.00    +0.000 C 
ATOM      5  C   UNL     1       3.050  -3.807   0.983  0.00  0.00    +0.000 C 
ATOM      6  C   UNL     1       4.568  -3.876   0.836  0.00  0.00    +0.000 C 
ATOM      7  C   UNL     1       5.237  -2.575   1.273  0.00  0.00    +0.000 C 
ATOM      8  C   UNL     1       4.649  -1.374   0.528  0.00  0.00    +0.000 C 
ATOM      9  N   UNL     1       5.298  -0.161   1.015  0.00  0.00    +0.000 NA
ATOM     10  C   UNL     1       4.657   0.950   0.914  0.00  0.00    +0.000 C 
ATOM     11  O   UNL     1       3.405   1.105   0.423  0.00  0.00    +0.000 OA
ENDROOT
BRANCH  10  12
ATOM     12  C   UNL     1       5.224   2.253   1.352  0.00  0.00    +0.000 A 
ATOM     13  C   UNL     1       6.534   2.286   1.851  0.00  0.00    +0.000 A 
ATOM     14  C   UNL     1       7.100   3.492   2.270  0.00  0.00    +0.000 A 
ATOM     15  C   UNL     1       6.362   4.672   2.196  0.00  0.00    +0.000 A 
ATOM     16  C   UNL     1       5.058   4.649   1.703  0.00  0.00    +0.000 A 
ATOM     17  C   UNL     1       4.489   3.444   1.282  0.00  0.00    +0.000 A 
ENDBRANCH  10  12
TORSDOF 1
