REMARK  Name = *****
REMARK  5 active torsions:
REMARK  status: ('A' for Active; 'I' for Inactive)
REMARK    1  A    between atoms: C_2  and  C_3
REMARK    2  A    between atoms: C_3  and  O_4
REMARK    3  A    between atoms: O_4  and  C_5
REMARK    4  A    between atoms: C_5  and  C_14
REMARK    5  A    between atoms: N_6  and  C_7
REMARK                            x       y       z     vdW  Elec       q    Type
REMARK                         _______ _______ _______ _____ _____    ______ ____
ROOT
ATOM      1  C   UNL     1       5.158   2.067   0.889  0.00  0.00    +0.000 C 
ATOM      2  N   UNL     1       4.755   3.180   1.420  0.00  0.00    +0.000 NA
ENDROOT
BRANCH   2   3
ATOM      3  C   UNL     1       3.400   3.495   1.539  0.00  0.00    +0.000 A 
ATOM      4  C   UNL     1       2.850   3.686   2.810  0.00  0.00    +0.000 A 
ATOM      5  C   UNL     1       1.506   4.036   2.957  0.00  0.00    +0.000 A 
ATOM      6  C   UNL     1       0.711   4.213   1.826  0.00  0.00    +0.000 A 
ATOM      7  C   UNL     1       1.252   4.052   0.552  0.00  0.00    +0.000 A 
ATOM      8  C   UNL     1       2.597   3.702   0.411  0.00  0.00    +0.000 A 
ATOM      9 CL   UNL     1      -0.945   4.642   2.003  0.00  0.00    +0.000 Cl
ENDBRANCH   2   3
BRANCH   1  10
ATOM     10  C   UNL     1       6.598   1.803   0.621  0.00  0.00    +0.000 A 
ATOM     11  C   UNL     1       7.018   0.788  -0.248  0.00  0.00    +0.000 A 
ATOM     12  C   UNL     1       8.379   0.573  -0.477  0.00  0.00    +0.000 A 
ATOM     13  C   UNL     1       9.329   1.373   0.157  0.00  0.00    +0.000 A 
ATOM     14  C   UNL     1       8.921   2.391   1.017  0.00  0.00    +0.000 A 
ATOM     15  C   UNL     1       7.561   2.608   1.247  0.00  0.00    +0.000 A 
ENDBRANCH   1  10
BRANCH   1  16
ATOM     16  O   UNL     1       4.394   1.015   0.497  0.00  0.00    +0.000 OA
BRANCH  16  17
ATOM     17  C   UNL     1       3.501   0.475   1.482  0.00  0.00    +0.000 C 
BRANCH  17  19
ATOM     18  C   UNL     1       3.929  -1.800   0.412  0.00  0.00    +0.000 C 
ATOM     19  C   UNL     1       3.398  -1.021   1.364  0.00  0.00    +0.000 C 
ENDBRANCH  17  19
ENDBRANCH  16  17
ENDBRANCH   1  16
TORSDOF 5
