REMARK  Name = *****
REMARK  5 active torsions:
REMARK  status: ('A' for Active; 'I' for Inactive)
REMARK    1  A    between atoms: C_4  and  C_7
REMARK    2  A    between atoms: C_7  and  C_8
REMARK    3  A    between atoms: C_7  and  C_11
REMARK    4  A    between atoms: C_8  and  C_9
REMARK    5  A    between atoms: C_11  and  C_13
REMARK                            x       y       z     vdW  Elec       q    Type
REMARK                         _______ _______ _______ _____ _____    ______ ____
ROOT
ATOM      1  C   UNL     1       2.606  -0.845  -0.305  0.00  0.00    +0.000 C 
ENDROOT
BRANCH   1   5
ATOM      2  C   UNL     1      -1.680   0.194  -0.019  0.00  0.00    +0.000 C 
ATOM      3  C   UNL     1      -1.221  -1.150   0.526  0.00  0.00    +0.000 C 
ATOM      4  C   UNL     1       0.163  -1.524   0.004  0.00  0.00    +0.000 C 
ATOM      5  C   UNL     1       1.224  -0.438   0.298  0.00  0.00    +0.000 C 
ATOM      6  C   UNL     1       0.729   0.926  -0.225  0.00  0.00    +0.000 C 
ATOM      7  C   UNL     1      -0.664   1.284   0.290  0.00  0.00    +0.000 C 
ENDBRANCH   1   5
BRANCH   1   8
ATOM      8  C   UNL     1       3.081  -2.132   0.377  0.00  0.00    +0.000 C 
ATOM      9  O   UNL     1       3.315  -2.153   1.586  0.00  0.00    +0.000 OA
BRANCH   8  10
ATOM     10  C   UNL     1       3.214  -3.394  -0.409  0.00  0.00    +0.000 A 
ATOM     11  C   UNL     1       3.504  -3.407  -1.777  0.00  0.00    +0.000 A 
ATOM     12  C   UNL     1       3.610  -4.623  -2.458  0.00  0.00    +0.000 A 
ATOM     13  C   UNL     1       3.432  -5.827  -1.777  0.00  0.00    +0.000 A 
ATOM     14  C   UNL     1       3.157  -5.821  -0.412  0.00  0.00    +0.000 A 
ATOM     15  C   UNL     1       3.053  -4.608   0.272  0.00  0.00    +0.000 A 
ENDBRANCH   8  10
ENDBRANCH   1   8
BRANCH   1  16
ATOM     16  C   UNL     1       3.701   0.217  -0.089  0.00  0.00    +0.000 C 
BRANCH  16  17
ATOM     17  C   UNL     1       4.943  -0.144  -0.792  0.00  0.00    +0.000 C 
ATOM     18  N   UNL     1       5.894  -0.442  -1.384  0.00  0.00    +0.000 NA
ENDBRANCH  16  17
ENDBRANCH   1  16
TORSDOF 5
