REMARK  Name = *****
REMARK  6 active torsions:
REMARK  status: ('A' for Active; 'I' for Inactive)
REMARK    1  A    between atoms: C_1  and  C_2
REMARK    2  A    between atoms: C_5  and  C_8
REMARK    3  A    between atoms: C_8  and  O_10
REMARK    4  A    between atoms: O_10  and  C_11
REMARK    5  A    between atoms: C_11  and  C_12
REMARK    6  A    between atoms: C_16  and  C_18
REMARK                            x       y       z     vdW  Elec       q    Type
REMARK                         _______ _______ _______ _____ _____    ______ ____
ROOT
ATOM      1  C   UNL     1      -3.444   0.026   0.091  0.00  0.00    +0.000 C 
ATOM      2  O   UNL     1      -4.025  -1.018   0.342  0.00  0.00    +0.000 OA
ENDROOT
BRANCH   1   7
ATOM      3  C   UNL     1       2.346   0.380   0.168  0.00  0.00    +0.000 C 
ATOM      4  C   UNL     1       0.849   0.299   0.115  0.00  0.00    +0.000 A 
ATOM      5  C   UNL     1       0.201  -0.931   0.275  0.00  0.00    +0.000 A 
ATOM      6  C   UNL     1      -1.195  -1.003   0.261  0.00  0.00    +0.000 A 
ATOM      7  C   UNL     1      -1.962   0.157   0.095  0.00  0.00    +0.000 A 
ATOM      8  C   UNL     1      -1.315   1.392  -0.046  0.00  0.00    +0.000 A 
ATOM      9  C   UNL     1       0.081   1.460  -0.031  0.00  0.00    +0.000 A 
ENDBRANCH   1   7
BRANCH   1  10
ATOM     10  O   UNL     1      -4.021   1.205  -0.240  0.00  0.00    +0.000 OA
BRANCH  10  11
ATOM     11  C   UNL     1      -5.454   1.222  -0.243  0.00  0.00    +0.000 C 
BRANCH  11  12
ATOM     12  C   UNL     1      -5.941   1.891   1.016  0.00  0.00    +0.000 A 
ATOM     13  C   UNL     1      -6.174   1.135   2.172  0.00  0.00    +0.000 A 
ATOM     14  C   UNL     1      -6.596   1.756   3.347  0.00  0.00    +0.000 A 
ATOM     15  C   UNL     1      -6.787   3.137   3.380  0.00  0.00    +0.000 A 
ATOM     16  C   UNL     1      -6.562   3.910   2.235  0.00  0.00    +0.000 A 
ATOM     17  C   UNL     1      -6.122   3.281   1.063  0.00  0.00    +0.000 A 
ATOM     18  C   UNL     1      -6.726   5.401   2.279  0.00  0.00    +0.000 C 
ENDBRANCH  11  12
ENDBRANCH  10  11
ENDBRANCH   1  10
TORSDOF 4
