REMARK  Name = *****
REMARK  6 active torsions:
REMARK  status: ('A' for Active; 'I' for Inactive)
REMARK    1  A    between atoms: C_1  and  O_2
REMARK    2  A    between atoms: O_2  and  C_3
REMARK    3  A    between atoms: C_5  and  C_11
REMARK    4  A    between atoms: C_6  and  O_9
REMARK    5  A    between atoms: O_9  and  C_10
REMARK    6  A    between atoms: C_12  and  C_13
REMARK                            x       y       z     vdW  Elec       q    Type
REMARK                         _______ _______ _______ _____ _____    ______ ____
ROOT
ATOM      1  C   UNL     1       3.032   0.105   1.180  0.00  0.00    +0.000 A 
ATOM      2  C   UNL     1       2.471  -0.845   2.040  0.00  0.00    +0.000 A 
ATOM      3  C   UNL     1       3.190  -1.325   3.148  0.00  0.00    +0.000 A 
ATOM      4  C   UNL     1       4.470  -0.804   3.399  0.00  0.00    +0.000 A 
ATOM      5  C   UNL     1       5.043   0.127   2.532  0.00  0.00    +0.000 A 
ATOM      6  C   UNL     1       4.320   0.583   1.431  0.00  0.00    +0.000 A 
ENDROOT
BRANCH   1   8
ATOM      7  C   UNL     1       1.142   0.149  -0.265  0.00  0.00    +0.000 C 
ATOM      8  O   UNL     1       2.435   0.637   0.070  0.00  0.00    +0.000 OA
ENDBRANCH   1   8
BRANCH   4   9
ATOM      9  O   UNL     1       5.223  -1.231   4.463  0.00  0.00    +0.000 OA
ATOM     10  C   UNL     1       4.990  -0.391   5.594  0.00  0.00    +0.000 C 
ENDBRANCH   4   9
BRANCH   3  11
ATOM     11  C   UNL     1       2.535  -2.326   4.007  0.00  0.00    +0.000 C 
ATOM     12  C   UNL     1       3.123  -3.483   4.353  0.00  0.00    +0.000 C 
BRANCH  12  13
ATOM     13  C   UNL     1       2.507  -4.501   5.214  0.00  0.00    +0.000 A 
ATOM     14  C   UNL     1       1.135  -4.785   5.183  0.00  0.00    +0.000 A 
ATOM     15  C   UNL     1       0.596  -5.783   6.001  0.00  0.00    +0.000 A 
ATOM     16  C   UNL     1       1.429  -6.511   6.846  0.00  0.00    +0.000 A 
ATOM     17  C   UNL     1       2.797  -6.253   6.878  0.00  0.00    +0.000 A 
ATOM     18  C   UNL     1       3.334  -5.254   6.060  0.00  0.00    +0.000 A 
ATOM     19 CL   UNL     1       0.766  -7.739   7.851  0.00  0.00    +0.000 Cl
ENDBRANCH  12  13
ENDBRANCH   3  11
TORSDOF 4
