REMARK  Name = *****
REMARK  3 active torsions:
REMARK  status: ('A' for Active; 'I' for Inactive)
REMARK    1  A    between atoms: C_4  and  C_6
REMARK    2  A    between atoms: C_6  and  C_7
REMARK    3  A    between atoms: C_7  and  C_8
REMARK                            x       y       z     vdW  Elec       q    Type
REMARK                         _______ _______ _______ _____ _____    ______ ____
ROOT
ATOM      1  C   UNL     1       5.308  -1.022  -2.827  0.00  0.00    +0.000 C 
ENDROOT
BRANCH   1   2
ATOM      2  C   UNL     1       5.210  -1.093  -4.330  0.00  0.00    +0.000 A 
ATOM      3  C   UNL     1       6.011  -0.268  -5.131  0.00  0.00    +0.000 A 
ATOM      4  C   UNL     1       5.909  -0.318  -6.522  0.00  0.00    +0.000 A 
ATOM      5  C   UNL     1       5.002  -1.188  -7.125  0.00  0.00    +0.000 A 
ATOM      6  C   UNL     1       4.196  -2.008  -6.337  0.00  0.00    +0.000 A 
ATOM      7  C   UNL     1       4.297  -1.960  -4.945  0.00  0.00    +0.000 A 
ENDBRANCH   1   2
BRANCH   1   8
ATOM      8  C   UNL     1       4.387   0.059  -2.255  0.00  0.00    +0.000 C 
BRANCH   8  12
ATOM      9  C   UNL     1       4.845   3.375   0.151  0.00  0.00    +0.000 C 
ATOM     10  C   UNL     1       4.736   2.050   0.035  0.00  0.00    +0.000 C 
ATOM     11  C   UNL     1       3.541   1.128  -0.033  0.00  0.00    +0.000 C 
ATOM     12  C   UNL     1       4.440   0.077  -0.723  0.00  0.00    +0.000 C 
ATOM     13  S   UNL     1       5.964   0.837  -0.048  0.00  0.00    +0.000 S 
ENDBRANCH   8  12
ENDBRANCH   1   8
TORSDOF 3
