REMARK  Name = *****
REMARK  5 active torsions:
REMARK  status: ('A' for Active; 'I' for Inactive)
REMARK    1  A    between atoms: C_1  and  O_2
REMARK    2  A    between atoms: O_2  and  C_3
REMARK    3  A    between atoms: C_6  and  C_9
REMARK    4  A    between atoms: C_9  and  C_10
REMARK    5  A    between atoms: C_10  and  C_11
REMARK                            x       y       z     vdW  Elec       q    Type
REMARK                         _______ _______ _______ _____ _____    ______ ____
ROOT
ATOM      1  C   UNL     1       5.165  -1.025   4.741  0.00  0.00    +0.000 C 
ENDROOT
BRANCH   1   5
ATOM      2  C   UNL     1       2.995  -0.512   1.037  0.00  0.00    +0.000 A 
ATOM      3  C   UNL     1       2.367  -0.272   2.259  0.00  0.00    +0.000 A 
ATOM      4  C   UNL     1       3.074  -0.433   3.456  0.00  0.00    +0.000 A 
ATOM      5  C   UNL     1       4.416  -0.831   3.446  0.00  0.00    +0.000 A 
ATOM      6  C   UNL     1       5.040  -1.075   2.218  0.00  0.00    +0.000 A 
ATOM      7  C   UNL     1       4.332  -0.913   1.025  0.00  0.00    +0.000 A 
BRANCH   2   9
ATOM      8  C   UNL     1       1.059   0.008  -0.240  0.00  0.00    +0.000 C 
ATOM      9  O   UNL     1       2.422  -0.394  -0.200  0.00  0.00    +0.000 OA
ENDBRANCH   2   9
ENDBRANCH   1   5
BRANCH   1  10
ATOM     10  C   UNL     1       4.908  -2.412   5.338  0.00  0.00    +0.000 C 
BRANCH  10  11
ATOM     11  C   UNL     1       5.656  -2.615   6.636  0.00  0.00    +0.000 A 
ATOM     12  C   UNL     1       6.912  -3.246   6.601  0.00  0.00    +0.000 A 
ATOM     13  C   UNL     1       7.649  -3.442   7.771  0.00  0.00    +0.000 A 
ATOM     14  C   UNL     1       7.145  -3.007   8.993  0.00  0.00    +0.000 A 
ATOM     15  C   UNL     1       5.904  -2.374   9.046  0.00  0.00    +0.000 A 
ATOM     16  C   UNL     1       5.163  -2.176   7.876  0.00  0.00    +0.000 A 
ATOM     17 CL   UNL     1       3.637  -1.377   8.022  0.00  0.00    +0.000 Cl
ENDBRANCH  10  11
ENDBRANCH   1  10
TORSDOF 4
