REMARK  Name = *****
REMARK  4 active torsions:
REMARK  status: ('A' for Active; 'I' for Inactive)
REMARK    1  A    between atoms: C_4  and  N_7
REMARK    2  A    between atoms: N_7  and  C_8
REMARK    3  A    between atoms: C_8  and  C_9
REMARK    4  A    between atoms: C_10  and  S_14
REMARK                            x       y       z     vdW  Elec       q    Type
REMARK                         _______ _______ _______ _____ _____    ______ ____
ROOT
ATOM      1  C   UNL     1       3.533  -1.289   0.326  0.00  0.00    +0.000 C 
ENDROOT
BRANCH   1   2
ATOM      2  C   UNL     1       4.873  -1.603  -0.150  0.00  0.00    +0.000 A 
ATOM      3  C   UNL     1       5.471  -1.169  -1.327  0.00  0.00    +0.000 A 
ATOM      4  S   UNL     1       7.067  -1.774  -1.505  0.00  0.00    +0.000 S 
ATOM      5  C   UNL     1       6.990  -2.617  -0.028  0.00  0.00    +0.000 A 
ATOM      6  C   UNL     1       5.775  -2.446   0.594  0.00  0.00    +0.000 A 
BRANCH   3   7
ATOM      7  S   UNL     1       4.807  -0.127  -2.584  0.00  0.00    +0.000 S 
ATOM      8  H   UNL     1       3.540   0.237  -2.249  0.00  0.00    +0.000 HD
ENDBRANCH   3   7
ENDBRANCH   1   2
BRANCH   1   9
ATOM      9  N   UNL     1       2.744  -0.538  -0.359  0.00  0.00    +0.000 NA
BRANCH   9  13
ATOM     10  C   UNL     1      -1.437   0.296  -0.176  0.00  0.00    +0.000 C 
ATOM     11  C   UNL     1      -0.975  -1.101   0.225  0.00  0.00    +0.000 C 
ATOM     12  C   UNL     1       0.450  -1.380  -0.246  0.00  0.00    +0.000 C 
ATOM     13  C   UNL     1       1.427  -0.308   0.249  0.00  0.00    +0.000 C 
ATOM     14  C   UNL     1       0.959   1.091  -0.166  0.00  0.00    +0.000 C 
ATOM     15  C   UNL     1      -0.466   1.370   0.306  0.00  0.00    +0.000 C 
ENDBRANCH   9  13
ENDBRANCH   1   9
TORSDOF 4
