REMARK  Name = *****
REMARK  2 active torsions:
REMARK  status: ('A' for Active; 'I' for Inactive)
REMARK    1  A    between atoms: C_6  and  C_7
REMARK    2  A    between atoms: C_8  and  C_9
REMARK                            x       y       z     vdW  Elec       q    Type
REMARK                         _______ _______ _______ _____ _____    ______ ____
ROOT
ATOM      1  C   UNL     1      -0.634   0.003   0.002  0.00  0.00    +0.000 A 
ATOM      2  C   UNL     1      -1.352   1.201  -0.001  0.00  0.00    +0.000 A 
ATOM      3  C   UNL     1      -2.744   1.191  -0.002  0.00  0.00    +0.000 A 
ATOM      4  C   UNL     1      -3.431  -0.015  -0.000  0.00  0.00    +0.000 A 
ATOM      5  C   UNL     1      -2.729  -1.212   0.003  0.00  0.00    +0.000 A 
ATOM      6  C   UNL     1      -1.337  -1.204   0.004  0.00  0.00    +0.000 A 
ATOM      7  F   UNL     1      -0.675  -2.371   0.007  0.00  0.00    +0.000 F 
ATOM      8  F   UNL     1      -3.391  -2.377   0.005  0.00  0.00    +0.000 F 
ATOM      9  F   UNL     1      -4.771  -0.023  -0.001  0.00  0.00    +0.000 F 
ATOM     10  F   UNL     1      -3.420   2.348  -0.005  0.00  0.00    +0.000 F 
ATOM     11  F   UNL     1      -0.705   2.376  -0.003  0.00  0.00    +0.000 F 
ENDROOT
BRANCH   1  13
ATOM     12  C   UNL     1       1.997   0.014   0.004  0.00  0.00    +0.000 C 
ATOM     13  C   UNL     1       0.795   0.011   0.003  0.00  0.00    +0.000 C 
BRANCH  12  19
ATOM     14  C   UNL     1       4.124  -1.190  -0.029  0.00  0.00    +0.000 A 
ATOM     15  C   UNL     1       5.507  -1.139  -0.026  0.00  0.00    +0.000 A 
ATOM     16  N   UNL     1       6.215   0.011   0.009  0.00  0.00    +0.000 NA
ATOM     17  C   UNL     1       5.509   1.161   0.042  0.00  0.00    +0.000 A 
ATOM     18  C   UNL     1       4.126   1.216   0.042  0.00  0.00    +0.000 A 
ATOM     19  C   UNL     1       3.426   0.013   0.006  0.00  0.00    +0.000 A 
ENDBRANCH  12  19
ENDBRANCH   1  13
TORSDOF 2
