REMARK  Name = *****
REMARK  4 active torsions:
REMARK  status: ('A' for Active; 'I' for Inactive)
REMARK    1  A    between atoms: C_1  and  C_2
REMARK    2  A    between atoms: C_2  and  C_11
REMARK    3  A    between atoms: N_3  and  C_4
REMARK    4  A    between atoms: C_4  and  C_5
REMARK                            x       y       z     vdW  Elec       q    Type
REMARK                         _______ _______ _______ _____ _____    ______ ____
ROOT
ATOM      1  C   UNL     1       0.910   0.050  -0.140  0.00  0.00    +0.000 C 
ATOM      2  C   UNL     1       2.423   0.058  -0.065  0.00  0.00    +0.000 C 
ATOM      3  N   UNL     1       3.120   1.080   0.299  0.00  0.00    +0.000 NA
ENDROOT
BRANCH   2   4
ATOM      4  C   UNL     1       3.133  -1.244  -0.431  0.00  0.00    +0.000 C 
ATOM      5  C   UNL     1       2.908  -2.324   0.640  0.00  0.00    +0.000 C 
ATOM      6  C   UNL     1       4.283  -2.910   0.954  0.00  0.00    +0.000 C 
ATOM      7  C   UNL     1       5.141  -2.543  -0.244  0.00  0.00    +0.000 C 
ATOM      8  C   UNL     1       4.652  -1.147  -0.592  0.00  0.00    +0.000 C 
ENDBRANCH   2   4
BRANCH   3   9
ATOM      9  C   UNL     1       2.433   2.323   0.655  0.00  0.00    +0.000 C 
BRANCH   9  10
ATOM     10  C   UNL     1       3.393   3.431   1.030  0.00  0.00    +0.000 A 
ATOM     11  C   UNL     1       3.066   4.767   0.752  0.00  0.00    +0.000 A 
ATOM     12  C   UNL     1       3.923   5.803   1.130  0.00  0.00    +0.000 A 
ATOM     13  C   UNL     1       5.111   5.517   1.800  0.00  0.00    +0.000 A 
ATOM     14  C   UNL     1       5.442   4.196   2.094  0.00  0.00    +0.000 A 
ATOM     15  C   UNL     1       4.585   3.160   1.717  0.00  0.00    +0.000 A 
ENDBRANCH   9  10
ENDBRANCH   3   9
TORSDOF 3
