REMARK  Name = *****
REMARK  4 active torsions:
REMARK  status: ('A' for Active; 'I' for Inactive)
REMARK    1  A    between atoms: C_3  and  C_8
REMARK    2  A    between atoms: C_8  and  O_9
REMARK    3  A    between atoms: O_9  and  C_10
REMARK    4  A    between atoms: C_11  and  C_17
REMARK                            x       y       z     vdW  Elec       q    Type
REMARK                         _______ _______ _______ _____ _____    ______ ____
ROOT
ATOM      1  C   UNL     1      -1.760   4.845  -0.045  0.00  0.00    +0.000 A 
ATOM      2  C   UNL     1      -1.096   5.910   0.588  0.00  0.00    +0.000 A 
ATOM      3  C   UNL     1      -1.640   7.204   0.569  0.00  0.00    +0.000 A 
ATOM      4  C   UNL     1      -2.830   7.442  -0.110  0.00  0.00    +0.000 A 
ATOM      5  C   UNL     1      -3.484   6.401  -0.761  0.00  0.00    +0.000 A 
ATOM      6  C   UNL     1      -2.955   5.106  -0.727  0.00  0.00    +0.000 A 
ATOM      7 CL   UNL     1      -3.494   9.027  -0.149  0.00  0.00    +0.000 Cl
ENDROOT
BRANCH   2   8
ATOM      8  C   UNL     1       0.187   5.727   1.321  0.00  0.00    +0.000 C 
ATOM      9  O   UNL     1       0.280   6.301   2.406  0.00  0.00    +0.000 OA
ATOM     10 CL   UNL     1       1.486   4.822   0.583  0.00  0.00    +0.000 Cl
ENDBRANCH   2   8
BRANCH   1  11
ATOM     11  O   UNL     1      -1.201   3.603   0.079  0.00  0.00    +0.000 OA
BRANCH  11  12
ATOM     12  C   UNL     1      -1.888   2.486  -0.488  0.00  0.00    +0.000 C 
BRANCH  12  15
ATOM     13  C   UNL     1       0.278  -0.164   1.235  0.00  0.00    +0.000 A 
ATOM     14  C   UNL     1      -0.398   1.034   0.980  0.00  0.00    +0.000 A 
ATOM     15  C   UNL     1      -1.120   1.214  -0.212  0.00  0.00    +0.000 A 
ATOM     16  C   UNL     1      -1.173   0.154  -1.129  0.00  0.00    +0.000 A 
ATOM     17  C   UNL     1      -0.499  -1.034  -0.864  0.00  0.00    +0.000 A 
ATOM     18  C   UNL     1       0.227  -1.202   0.308  0.00  0.00    +0.000 A 
ATOM     19  F   UNL     1      -0.558  -2.035  -1.752  0.00  0.00    +0.000 F 
ENDBRANCH  12  15
ENDBRANCH  11  12
ENDBRANCH   1  11
TORSDOF 4
