REMARK  Name = *****
REMARK  2 active torsions:
REMARK  status: ('A' for Active; 'I' for Inactive)
REMARK    1  A    between atoms: C_3  and  C_8
REMARK    2  A    between atoms: C_9  and  C_10
REMARK                            x       y       z     vdW  Elec       q    Type
REMARK                         _______ _______ _______ _____ _____    ______ ____
ROOT
ATOM      1  C   UNL     1      -1.283  -2.665  -0.299  0.00  0.00    +0.000 C 
ATOM      2  C   UNL     1      -1.800  -3.742  -0.425  0.00  0.00    +0.000 C 
ENDROOT
BRANCH   1   5
ATOM      3  C   UNL     1      -0.854   1.022   0.081  0.00  0.00    +0.000 A 
ATOM      4  C   UNL     1      -1.454  -0.232  -0.063  0.00  0.00    +0.000 A 
ATOM      5  C   UNL     1      -0.665  -1.384  -0.151  0.00  0.00    +0.000 A 
ATOM      6  C   UNL     1       0.725  -1.282  -0.094  0.00  0.00    +0.000 A 
ATOM      7  C   UNL     1       1.311  -0.029   0.050  0.00  0.00    +0.000 A 
ATOM      8  C   UNL     1       0.535   1.123   0.138  0.00  0.00    +0.000 A 
ATOM      9  F   UNL     1       2.645   0.072   0.105  0.00  0.00    +0.000 F 
ENDBRANCH   1   5
BRANCH   2  10
ATOM     10  C   UNL     1      -2.414  -5.025  -0.577  0.00  0.00    +0.000 A 
ATOM     11  C   UNL     1      -1.755  -6.173  -0.129  0.00  0.00    +0.000 A 
ATOM     12  C   UNL     1      -2.354  -7.427  -0.279  0.00  0.00    +0.000 A 
ATOM     13  C   UNL     1      -3.610  -7.527  -0.876  0.00  0.00    +0.000 A 
ATOM     14  C   UNL     1      -4.273  -6.385  -1.324  0.00  0.00    +0.000 A 
ATOM     15  C   UNL     1      -3.673  -5.131  -1.175  0.00  0.00    +0.000 A 
ATOM     16 CL   UNL     1      -4.348  -9.070  -1.060  0.00  0.00    +0.000 Cl
ENDBRANCH   2  10
TORSDOF 2
