REMARK  Name = *****
REMARK  3 active torsions:
REMARK  status: ('A' for Active; 'I' for Inactive)
REMARK    1  A    between atoms: C_1  and  C_2
REMARK    2  A    between atoms: C_8  and  C_18
REMARK    3  A    between atoms: C_10  and  C_12
REMARK                            x       y       z     vdW  Elec       q    Type
REMARK                         _______ _______ _______ _____ _____    ______ ____
ROOT
ATOM      1  C   UNL     1       2.799  -3.307  -1.701  0.00  0.00    +0.000 C 
ATOM      2  C   UNL     1       3.523  -2.211  -0.927  0.00  0.00    +0.000 C 
ATOM      3  C   UNL     1       4.551  -2.646   0.117  0.00  0.00    +0.000 C 
ATOM      4  C   UNL     1       5.471  -3.795  -0.310  0.00  0.00    +0.000 C 
ATOM      5  C   UNL     1       6.552  -4.045   0.742  0.00  0.00    +0.000 C 
ATOM      6  C   UNL     1       5.972  -4.233   2.142  0.00  0.00    +0.000 C 
ATOM      7  C   UNL     1       5.023  -3.096   2.528  0.00  0.00    +0.000 C 
ATOM      8  C   UNL     1       3.898  -2.882   1.487  0.00  0.00    +0.000 C 
ATOM      9  N   UNL     1       3.166  -1.675   1.875  0.00  0.00    +0.000 NA
ATOM     10  C   UNL     1       2.533  -1.033   0.956  0.00  0.00    +0.000 C 
ATOM     11  O   UNL     1       2.538  -1.315  -0.368  0.00  0.00    +0.000 OA
ATOM     12  C   UNL     1       2.907  -4.057   1.568  0.00  0.00    +0.000 C 
ENDROOT
BRANCH  10  13
ATOM     13  C   UNL     1       1.681   0.152   1.243  0.00  0.00    +0.000 A 
ATOM     14  C   UNL     1       1.609   0.630   2.559  0.00  0.00    +0.000 A 
ATOM     15  C   UNL     1       0.820   1.741   2.866  0.00  0.00    +0.000 A 
ATOM     16  C   UNL     1       0.095   2.380   1.862  0.00  0.00    +0.000 A 
ATOM     17  C   UNL     1       0.157   1.911   0.550  0.00  0.00    +0.000 A 
ATOM     18  C   UNL     1       0.947   0.801   0.239  0.00  0.00    +0.000 A 
ENDBRANCH  10  13
TORSDOF 1
