REMARK  Name = *****
REMARK  4 active torsions:
REMARK  status: ('A' for Active; 'I' for Inactive)
REMARK    1  A    between atoms: C_4  and  O_7
REMARK    2  A    between atoms: O_7  and  C_8
REMARK    3  A    between atoms: C_8  and  C_10
REMARK    4  A    between atoms: C_12  and  C_17
REMARK                            x       y       z     vdW  Elec       q    Type
REMARK                         _______ _______ _______ _____ _____    ______ ____
ROOT
ATOM      1  C   UNL     1       4.639  -2.084  -0.496  0.00  0.00    +0.000 A 
ATOM      2  C   UNL     1       5.151  -1.184  -1.446  0.00  0.00    +0.000 A 
ATOM      3  C   UNL     1       6.402  -1.409  -2.049  0.00  0.00    +0.000 A 
ATOM      4  C   UNL     1       7.140  -2.540  -1.674  0.00  0.00    +0.000 A 
ATOM      5  C   UNL     1       6.627  -3.425  -0.732  0.00  0.00    +0.000 A 
ATOM      6  C   UNL     1       5.388  -3.211  -0.142  0.00  0.00    +0.000 A 
ATOM      7  F   UNL     1       7.343  -4.503  -0.388  0.00  0.00    +0.000 F 
ENDROOT
BRANCH   3   8
ATOM      8  C   UNL     1       6.961  -0.428  -3.051  0.00  0.00    +0.000 C 
ATOM      9  F   UNL     1       5.994   0.223  -3.753  0.00  0.00    +0.000 F 
ATOM     10  F   UNL     1       7.713   0.538  -2.459  0.00  0.00    +0.000 F 
ATOM     11  F   UNL     1       7.765  -1.016  -3.979  0.00  0.00    +0.000 F 
ENDBRANCH   3   8
BRANCH   1  12
ATOM     12  C   UNL     1       3.319  -1.889   0.162  0.00  0.00    +0.000 C 
ATOM     13  O   UNL     1       2.865  -2.655   0.996  0.00  0.00    +0.000 OA
BRANCH  12  14
ATOM     14  O   UNL     1       2.722  -0.764  -0.301  0.00  0.00    +0.000 OA
BRANCH  14  18
ATOM     15  C   UNL     1      -1.271   0.665  -0.200  0.00  0.00    +0.000 C 
ATOM     16  C   UNL     1      -1.055  -0.839  -0.059  0.00  0.00    +0.000 C 
ATOM     17  C   UNL     1       0.347  -1.249  -0.497  0.00  0.00    +0.000 C 
ATOM     18  C   UNL     1       1.427  -0.461   0.250  0.00  0.00    +0.000 C 
ATOM     19  C   UNL     1       1.205   1.046   0.091  0.00  0.00    +0.000 C 
ATOM     20  C   UNL     1      -0.194   1.461   0.532  0.00  0.00    +0.000 C 
ENDBRANCH  14  18
ENDBRANCH  12  14
ENDBRANCH   1  12
TORSDOF 4
