REMARK  Name = *****
REMARK  5 active torsions:
REMARK  status: ('A' for Active; 'I' for Inactive)
REMARK    1  A    between atoms: C_1  and  O_2
REMARK    2  A    between atoms: O_2  and  C_3
REMARK    3  A    between atoms: C_6  and  C_9
REMARK    4  A    between atoms: C_10  and  C_11
REMARK    5  A    between atoms: C_16  and  N_17
REMARK                            x       y       z     vdW  Elec       q    Type
REMARK                         _______ _______ _______ _____ _____    ______ ____
ROOT
ATOM      1  C   UNL     1       5.106  -3.363   3.735  0.00  0.00    +0.000 C 
ATOM      2  C   UNL     1       5.687  -4.090   4.495  0.00  0.00    +0.000 C 
ENDROOT
BRANCH   1   6
ATOM      3  C   UNL     1       2.998  -0.868   1.040  0.00  0.00    +0.000 A 
ATOM      4  C   UNL     1       2.554  -2.167   1.290  0.00  0.00    +0.000 A 
ATOM      5  C   UNL     1       3.253  -2.989   2.181  0.00  0.00    +0.000 A 
ATOM      6  C   UNL     1       4.398  -2.517   2.826  0.00  0.00    +0.000 A 
ATOM      7  C   UNL     1       4.845  -1.220   2.578  0.00  0.00    +0.000 A 
ATOM      8  C   UNL     1       4.145  -0.401   1.688  0.00  0.00    +0.000 A 
BRANCH   3  10
ATOM      9  C   UNL     1       1.238  -0.390  -0.484  0.00  0.00    +0.000 C 
ATOM     10  O   UNL     1       2.411   0.036   0.197  0.00  0.00    +0.000 OA
ENDBRANCH   3  10
ENDBRANCH   1   6
BRANCH   2  11
ATOM     11  C   UNL     1       6.365  -4.973   5.394  0.00  0.00    +0.000 A 
ATOM     12  C   UNL     1       7.396  -4.475   6.196  0.00  0.00    +0.000 A 
ATOM     13  C   UNL     1       8.072  -5.321   7.082  0.00  0.00    +0.000 A 
ATOM     14  C   UNL     1       7.721  -6.670   7.173  0.00  0.00    +0.000 A 
ATOM     15  C   UNL     1       6.694  -7.177   6.378  0.00  0.00    +0.000 A 
ATOM     16  C   UNL     1       6.025  -6.325   5.496  0.00  0.00    +0.000 A 
BRANCH  16  17
ATOM     17  N   UNL     1       5.003  -6.860   4.718  0.00  0.00    +0.000 NA
ATOM     18  C   UNL     1       4.145  -7.330   4.073  0.00  0.00    +0.000 C 
ENDBRANCH  16  17
ENDBRANCH   2  11
TORSDOF 4
