REMARK  Name = *****
REMARK  5 active torsions:
REMARK  status: ('A' for Active; 'I' for Inactive)
REMARK    1  A    between atoms: C_1  and  C_2
REMARK    2  A    between atoms: C_2  and  C_3
REMARK    3  A    between atoms: C_2  and  C_11
REMARK    4  A    between atoms: C_3  and  C_4
REMARK    5  A    between atoms: C_4  and  C_5
REMARK                            x       y       z     vdW  Elec       q    Type
REMARK                         _______ _______ _______ _____ _____    ______ ____
ROOT
ATOM      1  C   UNL     1       2.782  -0.623   1.384  0.00  0.00    +0.000 C 
ENDROOT
BRANCH   1   3
ATOM      2  C   UNL     1       0.767  -0.052  -0.090  0.00  0.00    +0.000 C 
ATOM      3  C   UNL     1       2.295  -0.052   0.035  0.00  0.00    +0.000 C 
BRANCH   3   4
ATOM      4  C   UNL     1       2.943  -0.771  -1.129  0.00  0.00    +0.000 C 
ATOM      5  C   UNL     1       3.775  -0.204  -2.015  0.00  0.00    +0.000 C 
ATOM      6  C   UNL     1       4.281  -1.098  -3.104  0.00  0.00    +0.000 C 
ATOM      7  C   UNL     1       3.983  -2.541  -2.705  0.00  0.00    +0.000 C 
ATOM      8  S   UNL     1       2.645  -2.453  -1.473  0.00  0.00    +0.000 S 
ENDBRANCH   3   4
ENDBRANCH   1   3
BRANCH   1   9
ATOM      9  C   UNL     1       2.310   0.199   2.588  0.00  0.00    +0.000 C 
BRANCH   9  10
ATOM     10  C   UNL     1       2.926  -0.294   3.875  0.00  0.00    +0.000 A 
ATOM     11  C   UNL     1       4.058   0.335   4.410  0.00  0.00    +0.000 A 
ATOM     12  C   UNL     1       4.634  -0.132   5.593  0.00  0.00    +0.000 A 
ATOM     13  C   UNL     1       4.087  -1.233   6.249  0.00  0.00    +0.000 A 
ATOM     14  C   UNL     1       2.964  -1.870   5.722  0.00  0.00    +0.000 A 
ATOM     15  C   UNL     1       2.387  -1.404   4.540  0.00  0.00    +0.000 A 
ENDBRANCH   9  10
ENDBRANCH   1   9
TORSDOF 4
