REMARK  Name = *****
REMARK  2 active torsions:
REMARK  status: ('A' for Active; 'I' for Inactive)
REMARK    1  A    between atoms: C_4  and  N_7
REMARK    2  A    between atoms: C_8  and  C_9
REMARK                            x       y       z     vdW  Elec       q    Type
REMARK                         _______ _______ _______ _____ _____    ______ ____
ROOT
ATOM      1  N   UNL     1      -2.624   0.289  -0.828  0.00  0.00    +0.000 NA
ATOM      2  C   UNL     1      -3.454  -0.691  -0.636  0.00  0.00    +0.000 C 
ATOM      3 CL   UNL     1      -5.098  -0.321  -1.048  0.00  0.00    +0.000 Cl
ENDROOT
BRANCH   1   7
ATOM      4  C   UNL     1       1.500  -0.071  -0.119  0.00  0.00    +0.000 A 
ATOM      5  C   UNL     1       0.924  -0.746  -1.194  0.00  0.00    +0.000 A 
ATOM      6  C   UNL     1      -0.447  -0.631  -1.435  0.00  0.00    +0.000 A 
ATOM      7  C   UNL     1      -1.253   0.141  -0.592  0.00  0.00    +0.000 A 
ATOM      8  C   UNL     1      -0.661   0.836   0.465  0.00  0.00    +0.000 A 
ATOM      9  C   UNL     1       0.710   0.725   0.708  0.00  0.00    +0.000 A 
ENDBRANCH   1   7
BRANCH   2  10
ATOM     10  C   UNL     1      -3.168  -2.010  -0.097  0.00  0.00    +0.000 A 
ATOM     11  C   UNL     1      -2.396  -2.358   0.998  0.00  0.00    +0.000 A 
ATOM     12  C   UNL     1      -2.339  -3.767   1.207  0.00  0.00    +0.000 A 
ATOM     13  C   UNL     1      -3.070  -4.455   0.266  0.00  0.00    +0.000 A 
ATOM     14  S   UNL     1      -3.817  -3.407  -0.857  0.00  0.00    +0.000 S 
ENDBRANCH   2  10
TORSDOF 2
