REMARK  Name = *****
REMARK  4 active torsions:
REMARK  status: ('A' for Active; 'I' for Inactive)
REMARK    1  A    between atoms: C_1  and  C_2
REMARK    2  A    between atoms: C_1  and  C_9
REMARK    3  A    between atoms: C_2  and  C_3
REMARK    4  A    between atoms: C_9  and  C_10
REMARK                            x       y       z     vdW  Elec       q    Type
REMARK                         _______ _______ _______ _____ _____    ______ ____
ROOT
ATOM      1  C   UNL     1       2.019  -0.057  -0.211  0.00  0.00    +0.000 C 
ENDROOT
BRANCH   1   2
ATOM      2  C   UNL     1       2.315  -1.465  -0.731  0.00  0.00    +0.000 C 
BRANCH   2   3
ATOM      3  C   UNL     1       1.714  -2.526   0.156  0.00  0.00    +0.000 A 
ATOM      4  C   UNL     1       0.427  -3.019  -0.097  0.00  0.00    +0.000 A 
ATOM      5  C   UNL     1      -0.135  -3.989   0.735  0.00  0.00    +0.000 A 
ATOM      6  C   UNL     1       0.582  -4.471   1.828  0.00  0.00    +0.000 A 
ATOM      7  C   UNL     1       1.860  -3.982   2.093  0.00  0.00    +0.000 A 
ATOM      8  C   UNL     1       2.423  -3.013   1.263  0.00  0.00    +0.000 A 
ENDBRANCH   2   3
ENDBRANCH   1   2
BRANCH   1   9
ATOM      9  C   UNL     1       2.625   1.005  -1.130  0.00  0.00    +0.000 C 
BRANCH   9  10
ATOM     10  C   UNL     1       2.355   2.401  -0.626  0.00  0.00    +0.000 A 
ATOM     11  C   UNL     1       3.266   3.038   0.227  0.00  0.00    +0.000 A 
ATOM     12  C   UNL     1       3.007   4.323   0.706  0.00  0.00    +0.000 A 
ATOM     13  C   UNL     1       1.834   4.980   0.342  0.00  0.00    +0.000 A 
ATOM     14  C   UNL     1       0.917   4.353  -0.500  0.00  0.00    +0.000 A 
ATOM     15  C   UNL     1       1.175   3.068  -0.980  0.00  0.00    +0.000 A 
ENDBRANCH   9  10
ENDBRANCH   1   9
TORSDOF 4
