REMARK  Name = *****
REMARK  3 active torsions:
REMARK  status: ('A' for Active; 'I' for Inactive)
REMARK    1  A    between atoms: C_2  and  C_3
REMARK    2  A    between atoms: C_2  and  O_9
REMARK    3  A    between atoms: O_9  and  C_10
REMARK                            x       y       z     vdW  Elec       q    Type
REMARK                         _______ _______ _______ _____ _____    ______ ____
ROOT
ATOM      1  C   UNL     1       1.048   0.134   0.373  0.00  0.00    +0.000 C 
ATOM      2  C   UNL     1       2.341   0.059   0.013  0.00  0.00    +0.000 C 
ENDROOT
BRANCH   2   3
ATOM      3  C   UNL     1       3.031   1.189  -0.643  0.00  0.00    +0.000 A 
ATOM      4  C   UNL     1       4.326   1.553  -0.244  0.00  0.00    +0.000 A 
ATOM      5  C   UNL     1       4.995   2.612  -0.864  0.00  0.00    +0.000 A 
ATOM      6  C   UNL     1       4.381   3.317  -1.896  0.00  0.00    +0.000 A 
ATOM      7  C   UNL     1       3.100   2.961  -2.313  0.00  0.00    +0.000 A 
ATOM      8  C   UNL     1       2.431   1.902  -1.692  0.00  0.00    +0.000 A 
ENDBRANCH   2   3
BRANCH   2   9
ATOM      9  O   UNL     1       3.170  -1.011   0.331  0.00  0.00    +0.000 OA
BRANCH   9  10
ATOM     10  C   UNL     1       2.680  -2.289   0.196  0.00  0.00    +0.000 A 
ATOM     11  C   UNL     1       2.087  -2.736  -0.986  0.00  0.00    +0.000 A 
ATOM     12  C   UNL     1       1.642  -4.055  -1.080  0.00  0.00    +0.000 A 
ATOM     13  C   UNL     1       1.805  -4.926  -0.001  0.00  0.00    +0.000 A 
ATOM     14  C   UNL     1       2.420  -4.482   1.170  0.00  0.00    +0.000 A 
ATOM     15  C   UNL     1       2.866  -3.163   1.267  0.00  0.00    +0.000 A 
ENDBRANCH   9  10
ENDBRANCH   2   9
TORSDOF 3
