REMARK  Name = *****
REMARK  2 active torsions:
REMARK  status: ('A' for Active; 'I' for Inactive)
REMARK    1  A    between atoms: C_4  and  C_7
REMARK    2  A    between atoms: C_8  and  C_9
REMARK                            x       y       z     vdW  Elec       q    Type
REMARK                         _______ _______ _______ _____ _____    ______ ____
ROOT
ATOM      1  C   UNL     1      -1.655   1.682  -1.180  0.00  0.00    +0.000 C 
ATOM      2  C   UNL     1      -1.514   2.977  -1.514  0.00  0.00    +0.000 C 
ENDROOT
BRANCH   1   6
ATOM      3  C   UNL     1      -1.999  -2.002   0.703  0.00  0.00    +0.000 C 
ATOM      4  C   UNL     1      -2.650  -0.736   1.195  0.00  0.00    +0.000 C 
ATOM      5  C   UNL     1      -2.314   0.544   0.937  0.00  0.00    +0.000 C 
ATOM      6  C   UNL     1      -1.165   1.090   0.114  0.00  0.00    +0.000 C 
ATOM      7  S   UNL     1       0.126  -0.159  -0.208  0.00  0.00    +0.000 S 
ATOM      8  S   UNL     1      -1.017  -1.761  -0.798  0.00  0.00    +0.000 S 
ENDBRANCH   1   6
BRANCH   2   9
ATOM      9  C   UNL     1      -1.989   3.563  -2.776  0.00  0.00    +0.000 A 
ATOM     10  C   UNL     1      -3.182   3.158  -3.390  0.00  0.00    +0.000 A 
ATOM     11  C   UNL     1      -3.615   3.763  -4.573  0.00  0.00    +0.000 A 
ATOM     12  C   UNL     1      -2.865   4.787  -5.149  0.00  0.00    +0.000 A 
ATOM     13  C   UNL     1      -1.685   5.209  -4.540  0.00  0.00    +0.000 A 
ATOM     14  C   UNL     1      -1.253   4.604  -3.357  0.00  0.00    +0.000 A 
ENDBRANCH   2   9
TORSDOF 2
