REMARK  Name = *****
REMARK  2 active torsions:
REMARK  status: ('A' for Active; 'I' for Inactive)
REMARK    1  A    between atoms: C_1  and  C_2
REMARK    2  A    between atoms: C_9  and  C_11
REMARK                            x       y       z     vdW  Elec       q    Type
REMARK                         _______ _______ _______ _____ _____    ______ ____
ROOT
ATOM      1  C   UNL     1       1.103  -0.108  -0.187  0.00  0.00    +0.000 C 
ATOM      2  C   UNL     1       2.572   0.029  -0.128  0.00  0.00    +0.000 A 
ATOM      3  N   UNL     1       3.304   1.121  -0.231  0.00  0.00    +0.000 NA
ATOM      4  C   UNL     1       4.590   0.659  -0.102  0.00  0.00    +0.000 A 
ATOM      5  C   UNL     1       4.581  -0.713   0.076  0.00  0.00    +0.000 A 
ATOM      6  O   UNL     1       3.281  -1.128   0.059  0.00  0.00    +0.000 OA
ATOM      7  C   UNL     1       5.713  -1.496   0.239  0.00  0.00    +0.000 A 
ATOM      8  C   UNL     1       6.934  -0.804   0.220  0.00  0.00    +0.000 A 
ATOM      9  C   UNL     1       7.013   0.595   0.042  0.00  0.00    +0.000 A 
ATOM     10  C   UNL     1       5.819   1.333  -0.122  0.00  0.00    +0.000 A 
ENDROOT
BRANCH   9  11
ATOM     11  C   UNL     1       8.320   1.278   0.032  0.00  0.00    +0.000 A 
ATOM     12  C   UNL     1       9.364   0.837  -0.798  0.00  0.00    +0.000 A 
ATOM     13  C   UNL     1      10.603   1.483  -0.806  0.00  0.00    +0.000 A 
ATOM     14  C   UNL     1      10.820   2.585   0.018  0.00  0.00    +0.000 A 
ATOM     15  C   UNL     1       9.799   3.040   0.848  0.00  0.00    +0.000 A 
ATOM     16  C   UNL     1       8.561   2.392   0.854  0.00  0.00    +0.000 A 
ENDBRANCH   9  11
TORSDOF 1
