REMARK  Name = *****
REMARK  5 active torsions:
REMARK  status: ('A' for Active; 'I' for Inactive)
REMARK    1  A    between atoms: C_1  and  C_2
REMARK    2  A    between atoms: C_2  and  C_4
REMARK    3  A    between atoms: C_7  and  C_10
REMARK    4  A    between atoms: C_10  and  C_11
REMARK    5  A    between atoms: C_11  and  C_12
REMARK                            x       y       z     vdW  Elec       q    Type
REMARK                         _______ _______ _______ _____ _____    ______ ____
ROOT
ATOM      1  C   UNL     1       3.208  -1.174  -0.331  0.00  0.00    +0.000 A 
ATOM      2  C   UNL     1       2.524  -2.345   0.014  0.00  0.00    +0.000 A 
ATOM      3  C   UNL     1       3.193  -3.574   0.020  0.00  0.00    +0.000 A 
ATOM      4  C   UNL     1       4.551  -3.649  -0.316  0.00  0.00    +0.000 A 
ATOM      5  C   UNL     1       5.230  -2.476  -0.666  0.00  0.00    +0.000 A 
ATOM      6  C   UNL     1       4.564  -1.248  -0.671  0.00  0.00    +0.000 A 
ENDROOT
BRANCH   1   8
ATOM      7  C   UNL     1       1.082   0.256   0.011  0.00  0.00    +0.000 C 
ATOM      8  C   UNL     1       2.541   0.162  -0.354  0.00  0.00    +0.000 C 
ATOM      9  O   UNL     1       3.182   1.163  -0.668  0.00  0.00    +0.000 OA
ENDBRANCH   1   8
BRANCH   4  10
ATOM     10  C   UNL     1       5.264  -4.979  -0.330  0.00  0.00    +0.000 C 
BRANCH  10  11
ATOM     11  C   UNL     1       5.111  -5.687  -1.679  0.00  0.00    +0.000 C 
BRANCH  11  12
ATOM     12  C   UNL     1       5.843  -7.008  -1.701  0.00  0.00    +0.000 A 
ATOM     13  C   UNL     1       5.217  -8.173  -1.232  0.00  0.00    +0.000 A 
ATOM     14  C   UNL     1       5.901  -9.389  -1.236  0.00  0.00    +0.000 A 
ATOM     15  C   UNL     1       7.208  -9.440  -1.705  0.00  0.00    +0.000 A 
ATOM     16  C   UNL     1       7.846  -8.296  -2.169  0.00  0.00    +0.000 A 
ATOM     17  C   UNL     1       7.165  -7.078  -2.166  0.00  0.00    +0.000 A 
ATOM     18  F   UNL     1       7.863 -10.608  -1.707  0.00  0.00    +0.000 F 
ENDBRANCH  11  12
ENDBRANCH  10  11
ENDBRANCH   4  10
TORSDOF 4
