REMARK  Name = *****
REMARK  3 active torsions:
REMARK  status: ('A' for Active; 'I' for Inactive)
REMARK    1  A    between atoms: C_5  and  O_6
REMARK    2  A    between atoms: O_6  and  C_7
REMARK    3  A    between atoms: C_7  and  C_8
REMARK                            x       y       z     vdW  Elec       q    Type
REMARK                         _______ _______ _______ _____ _____    ______ ____
ROOT
ATOM      1  O   UNL     1      -2.862  -1.362   0.548  0.00  0.00    +0.000 OA
ENDROOT
BRANCH   1   6
ATOM      2  C   UNL     1       1.929   0.100  -0.042  0.00  0.00    +0.000 C 
ATOM      3  C   UNL     1       1.205  -1.235   0.142  0.00  0.00    +0.000 C 
ATOM      4  C   UNL     1      -0.159  -1.242  -0.549  0.00  0.00    +0.000 C 
ATOM      5  C   UNL     1      -0.985  -0.057  -0.112  0.00  0.00    +0.000 C 
ATOM      6  C   UNL     1      -2.221  -0.162   0.399  0.00  0.00    +0.000 C 
ATOM      7  C   UNL     1      -0.302   1.277  -0.275  0.00  0.00    +0.000 C 
ATOM      8  C   UNL     1       1.063   1.275   0.415  0.00  0.00    +0.000 C 
ENDBRANCH   1   6
BRANCH   1   9
ATOM      9  C   UNL     1      -3.886  -1.320   1.546  0.00  0.00    +0.000 C 
BRANCH   9  10
ATOM     10  C   UNL     1      -4.431  -2.710   1.765  0.00  0.00    +0.000 A 
ATOM     11  C   UNL     1      -3.563  -3.784   2.017  0.00  0.00    +0.000 A 
ATOM     12  C   UNL     1      -4.066  -5.065   2.250  0.00  0.00    +0.000 A 
ATOM     13  C   UNL     1      -5.441  -5.286   2.239  0.00  0.00    +0.000 A 
ATOM     14  C   UNL     1      -6.315  -4.228   1.997  0.00  0.00    +0.000 A 
ATOM     15  C   UNL     1      -5.813  -2.945   1.765  0.00  0.00    +0.000 A 
ENDBRANCH   9  10
ENDBRANCH   1   9
TORSDOF 3
