REMARK  Name = *****
REMARK  4 active torsions:
REMARK  status: ('A' for Active; 'I' for Inactive)
REMARK    1  A    between atoms: C_2  and  C_3
REMARK    2  A    between atoms: C_2  and  C_9
REMARK    3  A    between atoms: C_9  and  S_11
REMARK    4  A    between atoms: S_11  and  C_12
REMARK                            x       y       z     vdW  Elec       q    Type
REMARK                         _______ _______ _______ _____ _____    ______ ____
ROOT
ATOM      1  C   UNL     1       2.854   1.521   0.181  0.00  0.00    +0.000 C 
ATOM      2  O   UNL     1       3.856   1.880  -0.425  0.00  0.00    +0.000 OA
ENDROOT
BRANCH   1   4
ATOM      3  C   UNL     1       0.830   0.156  -0.211  0.00  0.00    +0.000 C 
ATOM      4  C   UNL     1       2.168   0.206  -0.077  0.00  0.00    +0.000 C 
BRANCH   4   5
ATOM      5  C   UNL     1       2.981  -1.000  -0.224  0.00  0.00    +0.000 C 
ATOM      6  C   UNL     1       2.809  -2.066   0.582  0.00  0.00    +0.000 C 
ATOM      7  C   UNL     1       3.607  -3.334   0.473  0.00  0.00    +0.000 C 
ATOM      8  C   UNL     1       4.816  -3.218  -0.456  0.00  0.00    +0.000 C 
ATOM      9  C   UNL     1       4.476  -2.417  -1.707  0.00  0.00    +0.000 C 
ATOM     10  C   UNL     1       4.004  -1.007  -1.339  0.00  0.00    +0.000 C 
ENDBRANCH   4   5
ENDBRANCH   1   4
BRANCH   1  11
ATOM     11  S   UNL     1       2.160   2.525   1.455  0.00  0.00    +0.000 S 
BRANCH  11  12
ATOM     12  C   UNL     1       2.543   1.531   2.885  0.00  0.00    +0.000 A 
ATOM     13  C   UNL     1       3.860   1.162   3.179  0.00  0.00    +0.000 A 
ATOM     14  C   UNL     1       4.138   0.382   4.304  0.00  0.00    +0.000 A 
ATOM     15  C   UNL     1       3.102  -0.026   5.143  0.00  0.00    +0.000 A 
ATOM     16  C   UNL     1       1.789   0.348   4.862  0.00  0.00    +0.000 A 
ATOM     17  C   UNL     1       1.510   1.127   3.737  0.00  0.00    +0.000 A 
ENDBRANCH  11  12
ENDBRANCH   1  11
TORSDOF 4
