REMARK  Name = *****
REMARK  4 active torsions:
REMARK  status: ('A' for Active; 'I' for Inactive)
REMARK    1  A    between atoms: C_4  and  C_8
REMARK    2  A    between atoms: C_8  and  O_10
REMARK    3  A    between atoms: O_10  and  C_11
REMARK    4  A    between atoms: C_11  and  C_12
REMARK                            x       y       z     vdW  Elec       q    Type
REMARK                         _______ _______ _______ _____ _____    ______ ____
ROOT
ATOM      1  C   UNL     1       1.081  -1.648  -1.976  0.00  0.00    +0.000 C 
ATOM      2  O   UNL     1       1.665  -1.176  -2.943  0.00  0.00    +0.000 OA
ENDROOT
BRANCH   1   6
ATOM      3  C   UNL     1       0.018  -0.105   1.287  0.00  0.00    +0.000 C 
ATOM      4  C   UNL     1       0.224   1.027   0.277  0.00  0.00    +0.000 C 
ATOM      5  C   UNL     1       1.400   0.478  -0.559  0.00  0.00    +0.000 C 
ATOM      6  C   UNL     1       1.122  -1.058  -0.582  0.00  0.00    +0.000 C 
ATOM      7  C   UNL     1      -0.211  -1.164   0.202  0.00  0.00    +0.000 C 
ATOM      8  C   UNL     1      -1.308  -0.461  -0.569  0.00  0.00    +0.000 C 
ATOM      9  C   UNL     1      -1.039   0.852  -0.533  0.00  0.00    +0.000 C 
ENDBRANCH   1   6
BRANCH   1  10
ATOM     10  O   UNL     1       0.395  -2.823  -1.974  0.00  0.00    +0.000 OA
BRANCH  10  11
ATOM     11  C   UNL     1       0.359  -3.530  -3.219  0.00  0.00    +0.000 C 
BRANCH  11  12
ATOM     12  C   UNL     1       1.387  -4.630  -3.194  0.00  0.00    +0.000 A 
ATOM     13  C   UNL     1       1.101  -5.859  -2.584  0.00  0.00    +0.000 A 
ATOM     14  C   UNL     1       2.063  -6.870  -2.545  0.00  0.00    +0.000 A 
ATOM     15  C   UNL     1       3.321  -6.659  -3.107  0.00  0.00    +0.000 A 
ATOM     16  C   UNL     1       3.620  -5.436  -3.704  0.00  0.00    +0.000 A 
ATOM     17  C   UNL     1       2.660  -4.424  -3.744  0.00  0.00    +0.000 A 
ENDBRANCH  11  12
ENDBRANCH  10  11
ENDBRANCH   1  10
TORSDOF 4
