REMARK  Name = *****
REMARK  5 active torsions:
REMARK  status: ('A' for Active; 'I' for Inactive)
REMARK    1  A    between atoms: C_1  and  C_2
REMARK    2  A    between atoms: C_5  and  C_8
REMARK    3  A    between atoms: C_8  and  O_10
REMARK    4  A    between atoms: O_10  and  C_11
REMARK    5  A    between atoms: C_11  and  C_12
REMARK                            x       y       z     vdW  Elec       q    Type
REMARK                         _______ _______ _______ _____ _____    ______ ____
ROOT
ATOM      1  C   UNL     1      -3.476   0.005   0.104  0.00  0.00    +0.000 C 
ATOM      2  O   UNL     1      -4.127  -0.982   0.408  0.00  0.00    +0.000 OA
ENDROOT
BRANCH   1   7
ATOM      3  C   UNL     1       2.326  -0.023   0.205  0.00  0.00    +0.000 C 
ATOM      4  C   UNL     1       0.826  -0.010   0.147  0.00  0.00    +0.000 A 
ATOM      5  C   UNL     1       0.140   1.169  -0.170  0.00  0.00    +0.000 A 
ATOM      6  C   UNL     1      -1.258   1.193  -0.192  0.00  0.00    +0.000 A 
ATOM      7  C   UNL     1      -1.988   0.037   0.112  0.00  0.00    +0.000 A 
ATOM      8  C   UNL     1      -1.302  -1.138   0.446  0.00  0.00    +0.000 A 
ATOM      9  C   UNL     1       0.095  -1.159   0.468  0.00  0.00    +0.000 A 
ENDBRANCH   1   7
BRANCH   1  10
ATOM     10  O   UNL     1      -3.973   1.202  -0.291  0.00  0.00    +0.000 OA
BRANCH  10  11
ATOM     11  C   UNL     1      -5.401   1.310  -0.298  0.00  0.00    +0.000 C 
BRANCH  11  12
ATOM     12  C   UNL     1      -5.859   1.982   0.970  0.00  0.00    +0.000 A 
ATOM     13  C   UNL     1      -5.830   3.378   1.087  0.00  0.00    +0.000 A 
ATOM     14  C   UNL     1      -6.235   3.997   2.271  0.00  0.00    +0.000 A 
ATOM     15  C   UNL     1      -6.664   3.226   3.350  0.00  0.00    +0.000 A 
ATOM     16  C   UNL     1      -6.683   1.836   3.249  0.00  0.00    +0.000 A 
ATOM     17  C   UNL     1      -6.278   1.216   2.066  0.00  0.00    +0.000 A 
ENDBRANCH  11  12
ENDBRANCH  10  11
ENDBRANCH   1  10
TORSDOF 4
