REMARK  Name = *****
REMARK  5 active torsions:
REMARK  status: ('A' for Active; 'I' for Inactive)
REMARK    1  A    between atoms: C_1  and  O_2
REMARK    2  A    between atoms: O_2  and  C_3
REMARK    3  A    between atoms: C_6  and  C_9
REMARK    4  A    between atoms: C_9  and  C_11
REMARK    5  A    between atoms: C_11  and  C_12
REMARK                            x       y       z     vdW  Elec       q    Type
REMARK                         _______ _______ _______ _____ _____    ______ ____
ROOT
ATOM      1  C   UNL     1       5.159   5.029  -0.655  0.00  0.00    +0.000 C 
ATOM      2  O   UNL     1       5.984   5.086  -1.568  0.00  0.00    +0.000 OA
ENDROOT
BRANCH   1   6
ATOM      3  C   UNL     1       3.133   1.280  -0.012  0.00  0.00    +0.000 A 
ATOM      4  C   UNL     1       3.085   2.265   0.975  0.00  0.00    +0.000 A 
ATOM      5  C   UNL     1       3.741   3.490   0.786  0.00  0.00    +0.000 A 
ATOM      6  C   UNL     1       4.449   3.740  -0.394  0.00  0.00    +0.000 A 
ATOM      7  C   UNL     1       4.505   2.744  -1.377  0.00  0.00    +0.000 A 
ATOM      8  C   UNL     1       3.847   1.526  -1.185  0.00  0.00    +0.000 A 
BRANCH   3  10
ATOM      9  C   UNL     1       1.799  -0.254   1.224  0.00  0.00    +0.000 C 
ATOM     10  O   UNL     1       2.536   0.052   0.046  0.00  0.00    +0.000 OA
ENDBRANCH   3  10
ENDBRANCH   1   6
BRANCH   1  11
ATOM     11  C   UNL     1       4.847   6.248   0.194  0.00  0.00    +0.000 C 
BRANCH  11  12
ATOM     12  C   UNL     1       5.679   6.359   1.450  0.00  0.00    +0.000 A 
ATOM     13  C   UNL     1       7.073   6.209   1.408  0.00  0.00    +0.000 A 
ATOM     14  C   UNL     1       7.838   6.342   2.570  0.00  0.00    +0.000 A 
ATOM     15  C   UNL     1       7.214   6.639   3.779  0.00  0.00    +0.000 A 
ATOM     16  C   UNL     1       5.833   6.810   3.835  0.00  0.00    +0.000 A 
ATOM     17  C   UNL     1       5.068   6.676   2.673  0.00  0.00    +0.000 A 
ATOM     18 CL   UNL     1       8.154   6.807   5.210  0.00  0.00    +0.000 Cl
ENDBRANCH  11  12
ENDBRANCH   1  11
TORSDOF 4
