REMARK  Name = *****
REMARK  4 active torsions:
REMARK  status: ('A' for Active; 'I' for Inactive)
REMARK    1  A    between atoms: C_4  and  C_7
REMARK    2  A    between atoms: C_7  and  C_8
REMARK    3  A    between atoms: C_8  and  C_9
REMARK    4  A    between atoms: C_14  and  C_15
REMARK                            x       y       z     vdW  Elec       q    Type
REMARK                         _______ _______ _______ _____ _____    ______ ____
ROOT
ATOM      1  C   UNL     1      -5.114  -0.422  -0.413  0.00  0.00    +0.000 A 
ATOM      2  C   UNL     1      -5.781  -0.197   0.805  0.00  0.00    +0.000 A 
ATOM      3  C   UNL     1      -7.114   0.212   0.830  0.00  0.00    +0.000 A 
ATOM      4  C   UNL     1      -7.801   0.406  -0.363  0.00  0.00    +0.000 A 
ATOM      5  C   UNL     1      -7.154   0.192  -1.580  0.00  0.00    +0.000 A 
ATOM      6  C   UNL     1      -5.809  -0.219  -1.627  0.00  0.00    +0.000 A 
ENDROOT
BRANCH   6   7
ATOM      7  C   UNL     1      -5.156  -0.434  -2.973  0.00  0.00    +0.000 C 
ATOM      8  F   UNL     1      -4.779  -1.727  -3.175  0.00  0.00    +0.000 F 
ATOM      9  F   UNL     1      -5.966  -0.124  -4.028  0.00  0.00    +0.000 F 
ENDBRANCH   6   7
BRANCH   1  10
ATOM     10  C   UNL     1      -3.659  -0.844  -0.362  0.00  0.00    +0.000 C 
BRANCH  10  11
ATOM     11  C   UNL     1      -2.720   0.366  -0.257  0.00  0.00    +0.000 C 
BRANCH  11  15
ATOM     12  C   UNL     1       1.551  -0.310  -0.098  0.00  0.00    +0.000 A 
ATOM     13  C   UNL     1       0.690  -1.404  -0.075  0.00  0.00    +0.000 A 
ATOM     14  C   UNL     1      -0.694  -1.213  -0.130  0.00  0.00    +0.000 A 
ATOM     15  C   UNL     1      -1.235   0.077  -0.212  0.00  0.00    +0.000 A 
ATOM     16  C   UNL     1      -0.351   1.169  -0.232  0.00  0.00    +0.000 A 
ATOM     17  C   UNL     1       1.031   0.978  -0.177  0.00  0.00    +0.000 A 
ENDBRANCH  11  15
ENDBRANCH  10  11
ENDBRANCH   1  10
TORSDOF 4
