REMARK  Name = *****
REMARK  3 active torsions:
REMARK  status: ('A' for Active; 'I' for Inactive)
REMARK    1  A    between atoms: C_1  and  C_2
REMARK    2  A    between atoms: C_7  and  C_8
REMARK    3  A    between atoms: N_9  and  C_10
REMARK                            x       y       z     vdW  Elec       q    Type
REMARK                         _______ _______ _______ _____ _____    ______ ____
ROOT
ATOM      1  C   UNL     1       1.060  -0.317  -0.237  0.00  0.00    +0.000 C 
ATOM      2  C   UNL     1       2.541  -0.098  -0.105  0.00  0.00    +0.000 A 
ATOM      3  C   UNL     1       3.392  -1.218  -0.157  0.00  0.00    +0.000 A 
ATOM      4  C   UNL     1       4.771  -1.070  -0.027  0.00  0.00    +0.000 A 
ATOM      5  C   UNL     1       5.341   0.178   0.157  0.00  0.00    +0.000 A 
ATOM      6  C   UNL     1       4.512   1.292   0.206  0.00  0.00    +0.000 A 
ATOM      7  C   UNL     1       3.121   1.176   0.070  0.00  0.00    +0.000 A 
ATOM      8  F   UNL     1       5.081   2.495   0.376  0.00  0.00    +0.000 F 
ATOM      9  F   UNL     1       5.556  -2.153  -0.078  0.00  0.00    +0.000 F 
ENDROOT
BRANCH   7  10
ATOM     10  C   UNL     1       2.358   2.444   0.125  0.00  0.00    +0.000 C 
ATOM     11  N   UNL     1       1.122   2.540  -0.251  0.00  0.00    +0.000 NA
BRANCH  11  12
ATOM     12  C   UNL     1       0.524   3.806  -0.154  0.00  0.00    +0.000 A 
ATOM     13  C   UNL     1       0.964   4.890  -0.922  0.00  0.00    +0.000 A 
ATOM     14  C   UNL     1       0.335   6.133  -0.819  0.00  0.00    +0.000 A 
ATOM     15  C   UNL     1      -0.750   6.295   0.041  0.00  0.00    +0.000 A 
ATOM     16  C   UNL     1      -1.209   5.215   0.793  0.00  0.00    +0.000 A 
ATOM     17  C   UNL     1      -0.575   3.975   0.691  0.00  0.00    +0.000 A 
ENDBRANCH  11  12
ENDBRANCH   7  10
TORSDOF 2
