REMARK  Name = *****
REMARK  4 active torsions:
REMARK  status: ('A' for Active; 'I' for Inactive)
REMARK    1  A    between atoms: C_1  and  C_2
REMARK    2  A    between atoms: C_5  and  C_8
REMARK    3  A    between atoms: C_8  and  C_9
REMARK    4  A    between atoms: C_9  and  C_11
REMARK                            x       y       z     vdW  Elec       q    Type
REMARK                         _______ _______ _______ _____ _____    ______ ____
ROOT
ATOM      1  C   UNL     1      -3.766   1.538  -0.211  0.00  0.00    +0.000 C 
ATOM      2  O   UNL     1      -4.268   2.196   0.702  0.00  0.00    +0.000 OA
ENDROOT
BRANCH   1   3
ATOM      3  C   UNL     1      -3.649   2.155  -1.571  0.00  0.00    +0.000 A 
ATOM      4  C   UNL     1      -3.108   1.475  -2.671  0.00  0.00    +0.000 A 
ATOM      5  C   UNL     1      -3.020   2.109  -3.914  0.00  0.00    +0.000 A 
ATOM      6  C   UNL     1      -3.473   3.415  -4.058  0.00  0.00    +0.000 A 
ATOM      7  C   UNL     1      -4.015   4.104  -2.981  0.00  0.00    +0.000 A 
ATOM      8  C   UNL     1      -4.103   3.474  -1.738  0.00  0.00    +0.000 A 
ATOM      9  F   UNL     1      -3.385   4.017  -5.251  0.00  0.00    +0.000 F 
ENDBRANCH   1   3
BRANCH   1  10
ATOM     10  C   UNL     1      -3.277   0.123   0.032  0.00  0.00    +0.000 C 
BRANCH  10  15
ATOM     11  C   UNL     1       2.510  -0.588   0.115  0.00  0.00    +0.000 C 
ATOM     12  C   UNL     1       1.024  -0.389   0.067  0.00  0.00    +0.000 A 
ATOM     13  C   UNL     1       0.445   0.743   0.649  0.00  0.00    +0.000 A 
ATOM     14  C   UNL     1      -0.941   0.917   0.639  0.00  0.00    +0.000 A 
ATOM     15  C   UNL     1      -1.775  -0.035   0.038  0.00  0.00    +0.000 A 
ATOM     16  C   UNL     1      -1.193  -1.187  -0.510  0.00  0.00    +0.000 A 
ATOM     17  C   UNL     1       0.193  -1.362  -0.496  0.00  0.00    +0.000 A 
ENDBRANCH  10  15
ENDBRANCH   1  10
TORSDOF 3
