REMARK  Name = *****
REMARK  4 active torsions:
REMARK  status: ('A' for Active; 'I' for Inactive)
REMARK    1  A    between atoms: C_1  and  C_2
REMARK    2  A    between atoms: C_3  and  O_9
REMARK    3  A    between atoms: O_9  and  C_10
REMARK    4  A    between atoms: C_10  and  C_12
REMARK                            x       y       z     vdW  Elec       q    Type
REMARK                         _______ _______ _______ _____ _____    ______ ____
ROOT
ATOM      1  O   UNL     1      -3.446  -1.038  -0.489  0.00  0.00    +0.000 OA
ENDROOT
BRANCH   1   4
ATOM      2  C   UNL     1      -2.683   1.615   0.253  0.00  0.00    +0.000 C 
ATOM      3  C   UNL     1      -1.677   0.538  -0.026  0.00  0.00    +0.000 A 
ATOM      4  C   UNL     1      -2.079  -0.763  -0.356  0.00  0.00    +0.000 A 
ATOM      5  C   UNL     1      -1.151  -1.769  -0.639  0.00  0.00    +0.000 A 
ATOM      6  C   UNL     1       0.211  -1.485  -0.554  0.00  0.00    +0.000 A 
ATOM      7  C   UNL     1       0.628  -0.201  -0.204  0.00  0.00    +0.000 A 
ATOM      8  C   UNL     1      -0.304   0.807   0.058  0.00  0.00    +0.000 A 
ATOM      9 CL   UNL     1       2.311   0.149  -0.101  0.00  0.00    +0.000 Cl
ENDBRANCH   1   4
BRANCH   1  10
ATOM     10  C   UNL     1      -3.971  -1.800   0.538  0.00  0.00    +0.000 C 
ATOM     11  O   UNL     1      -3.373  -2.248   1.505  0.00  0.00    +0.000 OA
BRANCH  10  12
ATOM     12  C   UNL     1      -5.425  -2.024   0.304  0.00  0.00    +0.000 A 
ATOM     13  C   UNL     1      -6.116  -2.851   1.201  0.00  0.00    +0.000 A 
ATOM     14  C   UNL     1      -7.480  -3.093   1.030  0.00  0.00    +0.000 A 
ATOM     15  C   UNL     1      -8.163  -2.509  -0.035  0.00  0.00    +0.000 A 
ATOM     16  C   UNL     1      -7.486  -1.682  -0.930  0.00  0.00    +0.000 A 
ATOM     17  C   UNL     1      -6.120  -1.439  -0.764  0.00  0.00    +0.000 A 
ENDBRANCH  10  12
ENDBRANCH   1  10
TORSDOF 3
