REMARK  Name = *****
REMARK  4 active torsions:
REMARK  status: ('A' for Active; 'I' for Inactive)
REMARK    1  A    between atoms: C_1  and  O_2
REMARK    2  A    between atoms: O_2  and  C_3
REMARK    3  A    between atoms: C_6  and  C_9
REMARK    4  A    between atoms: C_10  and  C_11
REMARK                            x       y       z     vdW  Elec       q    Type
REMARK                         _______ _______ _______ _____ _____    ______ ____
ROOT
ATOM      1  C   UNL     1       5.916  -6.889   2.062  0.00  0.00    +0.000 A 
ATOM      2  C   UNL     1       6.612  -6.908   3.280  0.00  0.00    +0.000 A 
ATOM      3  C   UNL     1       7.318  -8.038   3.690  0.00  0.00    +0.000 A 
ATOM      4  C   UNL     1       7.334  -9.177   2.900  0.00  0.00    +0.000 A 
ATOM      5  C   UNL     1       6.639  -9.191   1.702  0.00  0.00    +0.000 A 
ATOM      6  C   UNL     1       5.934  -8.062   1.291  0.00  0.00    +0.000 A 
ATOM      7  F   UNL     1       5.264  -8.110   0.129  0.00  0.00    +0.000 F 
ATOM      8  F   UNL     1       6.641 -10.293   0.939  0.00  0.00    +0.000 F 
ATOM      9  F   UNL     1       8.011 -10.263   3.298  0.00  0.00    +0.000 F 
ATOM     10  F   UNL     1       7.978  -8.025   4.857  0.00  0.00    +0.000 F 
ATOM     11  F   UNL     1       6.602  -5.839   4.091  0.00  0.00    +0.000 F 
ENDROOT
BRANCH   1  13
ATOM     12  C   UNL     1       5.388  -4.451   1.867  0.00  0.00    +0.000 C 
ATOM     13  C   UNL     1       5.129  -5.738   1.582  0.00  0.00    +0.000 C 
BRANCH  12  17
ATOM     14  C   UNL     1       3.143  -1.092   0.417  0.00  0.00    +0.000 A 
ATOM     15  C   UNL     1       2.482  -2.275   0.746  0.00  0.00    +0.000 A 
ATOM     16  C   UNL     1       3.205  -3.380   1.214  0.00  0.00    +0.000 A 
ATOM     17  C   UNL     1       4.598  -3.324   1.349  0.00  0.00    +0.000 A 
ATOM     18  C   UNL     1       5.252  -2.128   1.033  0.00  0.00    +0.000 A 
ATOM     19  C   UNL     1       4.529  -1.026   0.566  0.00  0.00    +0.000 A 
BRANCH  14  21
ATOM     20  C   UNL     1       1.150   0.036  -0.217  0.00  0.00    +0.000 C 
ATOM     21  O   UNL     1       2.561   0.055  -0.046  0.00  0.00    +0.000 OA
ENDBRANCH  14  21
ENDBRANCH  12  17
ENDBRANCH   1  13
TORSDOF 3
