REMARK  Name = *****
REMARK  4 active torsions:
REMARK  status: ('A' for Active; 'I' for Inactive)
REMARK    1  A    between atoms: C_1  and  N_2
REMARK    2  A    between atoms: N_2  and  C_3
REMARK    3  A    between atoms: N_2  and  C_11
REMARK    4  A    between atoms: C_4  and  C_5
REMARK                            x       y       z     vdW  Elec       q    Type
REMARK                         _______ _______ _______ _____ _____    ______ ____
ROOT
ATOM      1  C   UNL     1       1.146  -0.250  -0.277  0.00  0.00    +0.000 C 
ATOM      2  N   UNL     1       2.511   0.146   0.083  0.00  0.00    +0.000 N 
ENDROOT
BRANCH   2   3
ATOM      3  C   UNL     1       3.193  -0.748   0.955  0.00  0.00    +0.000 A 
ATOM      4  C   UNL     1       2.947  -2.132   0.960  0.00  0.00    +0.000 A 
ATOM      5  C   UNL     1       3.624  -2.991   1.834  0.00  0.00    +0.000 A 
ATOM      6  C   UNL     1       4.564  -2.484   2.725  0.00  0.00    +0.000 A 
ATOM      7  C   UNL     1       4.830  -1.120   2.741  0.00  0.00    +0.000 A 
ATOM      8  C   UNL     1       4.152  -0.265   1.866  0.00  0.00    +0.000 A 
ENDBRANCH   2   3
BRANCH   2   9
ATOM      9  C   UNL     1       3.165   1.218  -0.521  0.00  0.00    +0.000 C 
ATOM     10  C   UNL     1       2.663   2.241  -1.230  0.00  0.00    +0.000 C 
BRANCH  10  11
ATOM     11  C   UNL     1       3.421   3.328  -1.842  0.00  0.00    +0.000 C 
ATOM     12  C   UNL     1       2.764   4.307  -2.495  0.00  0.00    +0.000 C 
ATOM     13  C   UNL     1       3.435   5.452  -3.197  0.00  0.00    +0.000 C 
ATOM     14  C   UNL     1       4.930   5.230  -3.411  0.00  0.00    +0.000 C 
ATOM     15  C   UNL     1       5.578   4.668  -2.153  0.00  0.00    +0.000 C 
ATOM     16  C   UNL     1       4.932   3.341  -1.736  0.00  0.00    +0.000 C 
ENDBRANCH  10  11
ENDBRANCH   2   9
TORSDOF 3
