REMARK  Name = *****
REMARK  6 active torsions:
REMARK  status: ('A' for Active; 'I' for Inactive)
REMARK    1  A    between atoms: C_1  and  C_2
REMARK    2  A    between atoms: C_2  and  C_3
REMARK    3  A    between atoms: C_2  and  C_10
REMARK    4  A    between atoms: C_2  and  N_17
REMARK    5  A    between atoms: C_3  and  C_4
REMARK    6  A    between atoms: C_10  and  C_11
REMARK                            x       y       z     vdW  Elec       q    Type
REMARK                         _______ _______ _______ _____ _____    ______ ____
ROOT
ATOM      1  C   UNL     1       1.130  -0.210   0.328  0.00  0.00    +0.000 C 
ATOM      2  C   UNL     1       2.656  -0.074   0.156  0.00  0.00    +0.000 C 
ENDROOT
BRANCH   2   3
ATOM      3  N   UNL     1       3.279  -0.905   1.275  0.00  0.00    +0.000 NA
ATOM      4  O   UNL     1       4.514  -0.955   1.212  0.00  0.00    +0.000 OA
ENDBRANCH   2   3
BRANCH   2   5
ATOM      5  C   UNL     1       3.112  -0.699  -1.202  0.00  0.00    +0.000 C 
BRANCH   5   6
ATOM      6  C   UNL     1       2.537  -0.089  -2.463  0.00  0.00    +0.000 A 
ATOM      7  C   UNL     1       3.212   0.947  -3.125  0.00  0.00    +0.000 A 
ATOM      8  C   UNL     1       2.680   1.512  -4.285  0.00  0.00    +0.000 A 
ATOM      9  C   UNL     1       1.473   1.045  -4.800  0.00  0.00    +0.000 A 
ATOM     10  C   UNL     1       0.799   0.008  -4.159  0.00  0.00    +0.000 A 
ATOM     11  C   UNL     1       1.329  -0.558  -2.998  0.00  0.00    +0.000 A 
ENDBRANCH   5   6
ENDBRANCH   2   5
BRANCH   2  12
ATOM     12  C   UNL     1       3.111   1.411   0.274  0.00  0.00    +0.000 C 
BRANCH  12  13
ATOM     13  C   UNL     1       2.723   2.152   1.539  0.00  0.00    +0.000 A 
ATOM     14  C   UNL     1       3.528   2.084   2.684  0.00  0.00    +0.000 A 
ATOM     15  C   UNL     1       3.166   2.768   3.846  0.00  0.00    +0.000 A 
ATOM     16  C   UNL     1       2.000   3.528   3.875  0.00  0.00    +0.000 A 
ATOM     17  C   UNL     1       1.194   3.609   2.742  0.00  0.00    +0.000 A 
ATOM     18  C   UNL     1       1.554   2.926   1.578  0.00  0.00    +0.000 A 
ENDBRANCH  12  13
ENDBRANCH   2  12
TORSDOF 5
