REMARK  Name = *****
REMARK  3 active torsions:
REMARK  status: ('A' for Active; 'I' for Inactive)
REMARK    1  A    between atoms: C_4  and  C_7
REMARK    2  A    between atoms: C_7  and  O_9
REMARK    3  A    between atoms: O_9  and  C_10
REMARK                            x       y       z     vdW  Elec       q    Type
REMARK                         _______ _______ _______ _____ _____    ______ ____
ROOT
ATOM      1  O   UNL     1       3.446  -0.181   1.359  0.00  0.00    +0.000 OA
ENDROOT
BRANCH   1   2
ATOM      2  C   UNL     1       4.814  -0.460   1.262  0.00  0.00    +0.000 A 
ATOM      3  C   UNL     1       5.662   0.370   0.516  0.00  0.00    +0.000 A 
ATOM      4  C   UNL     1       7.028   0.067   0.475  0.00  0.00    +0.000 A 
ATOM      5  C   UNL     1       7.526  -1.038   1.179  0.00  0.00    +0.000 A 
ATOM      6  C   UNL     1       6.668  -1.843   1.932  0.00  0.00    +0.000 A 
ATOM      7  C   UNL     1       5.308  -1.551   1.982  0.00  0.00    +0.000 A 
ATOM      8 CL   UNL     1       8.163   1.019  -0.417  0.00  0.00    +0.000 Cl
ATOM      9 CL   UNL     1       5.007   1.743  -0.311  0.00  0.00    +0.000 Cl
ENDBRANCH   1   2
BRANCH   1  10
ATOM     10  C   UNL     1       2.705  -0.804   0.358  0.00  0.00    +0.000 C 
ATOM     11  O   UNL     1       3.143  -1.571  -0.489  0.00  0.00    +0.000 OA
BRANCH  10  15
ATOM     12  C   UNL     1      -1.306   0.501  -0.704  0.00  0.00    +0.000 C 
ATOM     13  C   UNL     1      -1.131  -0.919  -0.176  0.00  0.00    +0.000 C 
ATOM     14  C   UNL     1       0.328  -1.364  -0.242  0.00  0.00    +0.000 C 
ATOM     15  C   UNL     1       1.251  -0.383   0.492  0.00  0.00    +0.000 C 
ATOM     16  C   UNL     1       1.070   1.043  -0.036  0.00  0.00    +0.000 C 
ATOM     17  C   UNL     1      -0.390   1.485   0.017  0.00  0.00    +0.000 C 
ENDBRANCH  10  15
ENDBRANCH   1  10
TORSDOF 3
