REMARK  Name = *****
REMARK  2 active torsions:
REMARK  status: ('A' for Active; 'I' for Inactive)
REMARK    1  A    between atoms: C_3  and  N_9
REMARK    2  A    between atoms: C_10  and  C_11
REMARK                            x       y       z     vdW  Elec       q    Type
REMARK                         _______ _______ _______ _____ _____    ______ ____
ROOT
ATOM      1  N   UNL     1      -0.821   2.853  -0.398  0.00  0.00    +0.000 NA
ATOM      2  C   UNL     1      -1.679   3.575   0.250  0.00  0.00    +0.000 C 
ENDROOT
BRANCH   1   5
ATOM      3  C   UNL     1      -0.924  -0.751  -1.236  0.00  0.00    +0.000 A 
ATOM      4  C   UNL     1      -0.913   0.644  -1.348  0.00  0.00    +0.000 A 
ATOM      5  C   UNL     1      -0.861   1.459  -0.210  0.00  0.00    +0.000 A 
ATOM      6  C   UNL     1      -0.792   0.843   1.047  0.00  0.00    +0.000 A 
ATOM      7  C   UNL     1      -0.803  -0.544   1.157  0.00  0.00    +0.000 A 
ATOM      8  C   UNL     1      -0.871  -1.346   0.022  0.00  0.00    +0.000 A 
ATOM      9  F   UNL     1      -0.749  -1.123   2.364  0.00  0.00    +0.000 F 
ATOM     10  F   UNL     1      -0.723   1.589   2.162  0.00  0.00    +0.000 F 
ENDBRANCH   1   5
BRANCH   2  11
ATOM     11  C   UNL     1      -1.721   5.042   0.148  0.00  0.00    +0.000 A 
ATOM     12  C   UNL     1      -2.698   5.723   0.873  0.00  0.00    +0.000 A 
ATOM     13  C   UNL     1      -2.793   7.114   0.824  0.00  0.00    +0.000 A 
ATOM     14  C   UNL     1      -1.900   7.841   0.040  0.00  0.00    +0.000 A 
ATOM     15  C   UNL     1      -0.920   7.170  -0.691  0.00  0.00    +0.000 A 
ATOM     16  C   UNL     1      -0.834   5.777  -0.635  0.00  0.00    +0.000 A 
ATOM     17  F   UNL     1       0.126   5.185  -1.359  0.00  0.00    +0.000 F 
ATOM     18  F   UNL     1      -3.575   5.052   1.635  0.00  0.00    +0.000 F 
ENDBRANCH   2  11
TORSDOF 2
