REMARK  Name = *****
REMARK  6 active torsions:
REMARK  status: ('A' for Active; 'I' for Inactive)
REMARK    1  A    between atoms: C_1  and  C_2
REMARK    2  A    between atoms: C_7  and  C_8
REMARK    3  A    between atoms: C_9  and  C_10
REMARK    4  A    between atoms: C_13  and  O_16
REMARK    5  A    between atoms: O_16  and  C_17
REMARK    6  A    between atoms: C_17  and  C_19
REMARK                            x       y       z     vdW  Elec       q    Type
REMARK                         _______ _______ _______ _____ _____    ______ ____
ROOT
ATOM      1  C   UNL     1       2.846  -4.084   0.023  0.00  0.00    +0.000 A 
ATOM      2  C   UNL     1       2.362  -5.105  -0.808  0.00  0.00    +0.000 A 
ATOM      3  C   UNL     1       2.957  -6.370  -0.805  0.00  0.00    +0.000 A 
ATOM      4  C   UNL     1       4.061  -6.603   0.010  0.00  0.00    +0.000 A 
ATOM      5  C   UNL     1       4.558  -5.606   0.845  0.00  0.00    +0.000 A 
ATOM      6  C   UNL     1       3.957  -4.345   0.840  0.00  0.00    +0.000 A 
ENDROOT
BRANCH   1   8
ATOM      7  C   UNL     1       0.964  -2.467  -0.153  0.00  0.00    +0.000 C 
ATOM      8  C   UNL     1       2.267  -2.732   0.031  0.00  0.00    +0.000 C 
BRANCH   7  15
ATOM      9  C   UNL     1      -1.400  -1.820   1.520  0.00  0.00    +0.000 C 
ATOM     10  C   UNL     1      -0.719  -0.789   0.660  0.00  0.00    +0.000 A 
ATOM     11  C   UNL     1      -1.234   0.518   0.629  0.00  0.00    +0.000 A 
ATOM     12  C   UNL     1      -0.637   1.503  -0.158  0.00  0.00    +0.000 A 
ATOM     13  C   UNL     1       0.476   1.194  -0.931  0.00  0.00    +0.000 A 
ATOM     14  C   UNL     1       0.995  -0.101  -0.916  0.00  0.00    +0.000 A 
ATOM     15  C   UNL     1       0.413  -1.102  -0.120  0.00  0.00    +0.000 A 
ENDBRANCH   7  15
ENDBRANCH   1   8
BRANCH   4  16
ATOM     16  O   UNL     1       4.655  -7.869   0.092  0.00  0.00    +0.000 OA
BRANCH  16  17
ATOM     17  C   UNL     1       5.180  -8.377  -1.092  0.00  0.00    +0.000 C 
ATOM     18  O   UNL     1       5.200  -7.831  -2.186  0.00  0.00    +0.000 OA
ATOM     19  C   UNL     1       5.755  -9.735  -0.816  0.00  0.00    +0.000 C 
ENDBRANCH  16  17
ENDBRANCH   4  16
TORSDOF 4
