REMARK  Name = *****
REMARK  6 active torsions:
REMARK  status: ('A' for Active; 'I' for Inactive)
REMARK    1  A    between atoms: C_1  and  C_2
REMARK    2  A    between atoms: C_2  and  O_4
REMARK    3  A    between atoms: O_4  and  C_5
REMARK    4  A    between atoms: C_5  and  C_6
REMARK    5  A    between atoms: C_5  and  C_13
REMARK    6  A    between atoms: C_6  and  C_7
REMARK                            x       y       z     vdW  Elec       q    Type
REMARK                         _______ _______ _______ _____ _____    ______ ____
ROOT
ATOM      1  C   UNL     1       4.456   0.484  -1.003  0.00  0.00    +0.000 C 
ENDROOT
BRANCH   1   2
ATOM      2  C   UNL     1       5.005   1.230  -2.213  0.00  0.00    +0.000 A 
ATOM      3  C   UNL     1       4.371   1.179  -3.465  0.00  0.00    +0.000 A 
ATOM      4  C   UNL     1       4.909   1.850  -4.566  0.00  0.00    +0.000 A 
ATOM      5  C   UNL     1       6.088   2.577  -4.425  0.00  0.00    +0.000 A 
ATOM      6  C   UNL     1       6.735   2.638  -3.193  0.00  0.00    +0.000 A 
ATOM      7  C   UNL     1       6.197   1.965  -2.093  0.00  0.00    +0.000 A 
ATOM      8 CL   UNL     1       6.752   3.402  -5.781  0.00  0.00    +0.000 Cl
ENDBRANCH   1   2
BRANCH   1   9
ATOM      9  O   UNL     1       3.021   0.390  -1.103  0.00  0.00    +0.000 OA
BRANCH   9  11
ATOM     10  C   UNL     1       0.882   0.152  -0.186  0.00  0.00    +0.000 C 
ATOM     11  C   UNL     1       2.355   0.238   0.071  0.00  0.00    +0.000 C 
ATOM     12  O   UNL     1       2.867   0.169   1.178  0.00  0.00    +0.000 OA
ENDBRANCH   9  11
ENDBRANCH   1   9
BRANCH   1  13
ATOM     13  C   UNL     1       5.110  -0.908  -0.818  0.00  0.00    +0.000 C 
BRANCH  13  14
ATOM     14  C   UNL     1       4.951  -1.886  -1.971  0.00  0.00    +0.000 C 
ATOM     15  C   UNL     1       5.989  -2.209  -2.766  0.00  0.00    +0.000 C 
ATOM     16  C   UNL     1       5.894  -3.155  -3.927  0.00  0.00    +0.000 C 
ATOM     17  C   UNL     1       4.455  -3.496  -4.311  0.00  0.00    +0.000 C 
ATOM     18  C   UNL     1       3.603  -3.742  -3.071  0.00  0.00    +0.000 C 
ATOM     19  C   UNL     1       3.588  -2.511  -2.161  0.00  0.00    +0.000 C 
ENDBRANCH  13  14
ENDBRANCH   1  13
TORSDOF 5
