REMARK  Name = *****
REMARK  2 active torsions:
REMARK  status: ('A' for Active; 'I' for Inactive)
REMARK    1  A    between atoms: C_9  and  C_10
REMARK    2  A    between atoms: C_15  and  C_16
REMARK                            x       y       z     vdW  Elec       q    Type
REMARK                         _______ _______ _______ _____ _____    ______ ____
ROOT
ATOM      1  C   UNL     1      -3.891  -0.056  -0.001  0.00  0.00    +0.000 A 
ATOM      2  C   UNL     1      -4.508   0.135  -1.249  0.00  0.00    +0.000 A 
ATOM      3  C   UNL     1      -5.897   0.117  -1.374  0.00  0.00    +0.000 A 
ATOM      4  C   UNL     1      -6.690  -0.092  -0.252  0.00  0.00    +0.000 A 
ATOM      5  C   UNL     1      -6.093  -0.278   0.994  0.00  0.00    +0.000 A 
ATOM      6  C   UNL     1      -4.691  -0.257   1.141  0.00  0.00    +0.000 A 
ENDROOT
BRANCH   1  15
ATOM      7  C   UNL     1      -1.636   1.202  -0.316  0.00  0.00    +0.000 C 
ATOM      8  C   UNL     1      -0.235   0.697  -0.150  0.00  0.00    +0.000 A 
ATOM      9  C   UNL     1       0.962   1.369  -0.328  0.00  0.00    +0.000 A 
ATOM     10  C   UNL     1       2.149   0.665  -0.108  0.00  0.00    +0.000 A 
ATOM     11  C   UNL     1       2.122  -0.685   0.282  0.00  0.00    +0.000 A 
ATOM     12  C   UNL     1       0.906  -1.353   0.458  0.00  0.00    +0.000 A 
ATOM     13  C   UNL     1      -0.263  -0.649   0.239  0.00  0.00    +0.000 A 
ATOM     14  C   UNL     1      -1.644  -1.089   0.346  0.00  0.00    +0.000 C 
ATOM     15  C   UNL     1      -2.429  -0.039   0.043  0.00  0.00    +0.000 C 
ENDBRANCH   1  15
BRANCH   6  16
ATOM     16  C   UNL     1      -4.095  -0.443   2.517  0.00  0.00    +0.000 C 
ATOM     17  F   UNL     1      -3.170   0.503   2.844  0.00  0.00    +0.000 F 
ATOM     18  F   UNL     1      -5.029  -0.381   3.514  0.00  0.00    +0.000 F 
ATOM     19  F   UNL     1      -3.486  -1.652   2.676  0.00  0.00    +0.000 F 
ENDBRANCH   6  16
TORSDOF 2
