REMARK  Name = *****
REMARK  4 active torsions:
REMARK  status: ('A' for Active; 'I' for Inactive)
REMARK    1  A    between atoms: C_4  and  C_8
REMARK    2  A    between atoms: C_8  and  O_10
REMARK    3  A    between atoms: O_10  and  C_11
REMARK    4  A    between atoms: C_11  and  C_12
REMARK                            x       y       z     vdW  Elec       q    Type
REMARK                         _______ _______ _______ _____ _____    ______ ____
ROOT
ATOM      1  C   UNL     1      -2.795  -1.204  -0.133  0.00  0.00    +0.000 C 
ATOM      2  O   UNL     1      -3.063  -1.320  -1.323  0.00  0.00    +0.000 OA
ENDROOT
BRANCH   1   6
ATOM      3  C   UNL     1       0.145  -1.830  -0.861  0.00  0.00    +0.000 C 
ATOM      4  C   UNL     1       0.566  -0.358  -0.829  0.00  0.00    +0.000 C 
ATOM      5  C   UNL     1      -0.780   0.349  -0.542  0.00  0.00    +0.000 C 
ATOM      6  C   UNL     1      -1.487  -0.648   0.421  0.00  0.00    +0.000 C 
ATOM      7  C   UNL     1      -0.444  -1.789   0.557  0.00  0.00    +0.000 C 
ATOM      8  C   UNL     1       0.771  -1.244   1.282  0.00  0.00    +0.000 C 
ATOM      9  C   UNL     1       1.368  -0.376   0.451  0.00  0.00    +0.000 C 
ATOM     10  F   UNL     1      -1.677  -0.043   1.632  0.00  0.00    +0.000 F 
ENDBRANCH   1   6
BRANCH   1  11
ATOM     11  O   UNL     1      -3.602  -1.609   0.888  0.00  0.00    +0.000 OA
BRANCH  11  12
ATOM     12  C   UNL     1      -4.821  -2.254   0.506  0.00  0.00    +0.000 C 
BRANCH  12  13
ATOM     13  C   UNL     1      -4.607  -3.744   0.477  0.00  0.00    +0.000 A 
ATOM     14  C   UNL     1      -4.563  -4.478   1.671  0.00  0.00    +0.000 A 
ATOM     15  C   UNL     1      -4.342  -5.856   1.646  0.00  0.00    +0.000 A 
ATOM     16  C   UNL     1      -4.154  -6.511   0.430  0.00  0.00    +0.000 A 
ATOM     17  C   UNL     1      -4.183  -5.789  -0.761  0.00  0.00    +0.000 A 
ATOM     18  C   UNL     1      -4.404  -4.412  -0.739  0.00  0.00    +0.000 A 
ENDBRANCH  12  13
ENDBRANCH  11  12
ENDBRANCH   1  11
TORSDOF 4
