REMARK  Name = *****
REMARK  4 active torsions:
REMARK  status: ('A' for Active; 'I' for Inactive)
REMARK    1  A    between atoms: C_1  and  C_2
REMARK    2  A    between atoms: C_2  and  C_4
REMARK    3  A    between atoms: C_7  and  C_10
REMARK    4  A    between atoms: C_12  and  C_13
REMARK                            x       y       z     vdW  Elec       q    Type
REMARK                         _______ _______ _______ _____ _____    ______ ____
ROOT
ATOM      1  C   UNL     1       3.222   0.382  -1.089  0.00  0.00    +0.000 A 
ATOM      2  C   UNL     1       2.482   0.592  -2.255  0.00  0.00    +0.000 A 
ATOM      3  C   UNL     1       3.075   1.221  -3.358  0.00  0.00    +0.000 A 
ATOM      4  C   UNL     1       4.404   1.672  -3.329  0.00  0.00    +0.000 A 
ATOM      5  C   UNL     1       5.134   1.429  -2.154  0.00  0.00    +0.000 A 
ATOM      6  C   UNL     1       4.555   0.798  -1.047  0.00  0.00    +0.000 A 
ENDROOT
BRANCH   1   8
ATOM      7  C   UNL     1       1.181  -0.650   0.114  0.00  0.00    +0.000 C 
ATOM      8  C   UNL     1       2.641  -0.279   0.117  0.00  0.00    +0.000 C 
ATOM      9  O   UNL     1       3.354  -0.514   1.092  0.00  0.00    +0.000 OA
ENDBRANCH   1   8
BRANCH   4  10
ATOM     10  C   UNL     1       5.039   2.342  -4.529  0.00  0.00    +0.000 C 
ATOM     11  C   UNL     1       5.868   3.588  -4.328  0.00  0.00    +0.000 C 
ATOM     12  C   UNL     1       4.571   3.682  -5.084  0.00  0.00    +0.000 C 
BRANCH  12  13
ATOM     13  C   UNL     1       3.341   4.382  -4.543  0.00  0.00    +0.000 A 
ATOM     14  C   UNL     1       3.361   5.257  -3.444  0.00  0.00    +0.000 A 
ATOM     15  C   UNL     1       2.199   5.888  -2.987  0.00  0.00    +0.000 A 
ATOM     16  C   UNL     1       0.985   5.666  -3.629  0.00  0.00    +0.000 A 
ATOM     17  C   UNL     1       0.934   4.818  -4.729  0.00  0.00    +0.000 A 
ATOM     18  C   UNL     1       2.099   4.189  -5.178  0.00  0.00    +0.000 A 
ENDBRANCH  12  13
ENDBRANCH   4  10
TORSDOF 3
