REMARK  Name = *****
REMARK  1 active torsions:
REMARK  status: ('A' for Active; 'I' for Inactive)
REMARK    1  A    between atoms: C_8  and  C_9
REMARK                            x       y       z     vdW  Elec       q    Type
REMARK                         _______ _______ _______ _____ _____    ______ ____
ROOT
ATOM      1  C   UNL     1       1.800   1.236   0.142  0.00  0.00    +0.000 A 
ATOM      2  C   UNL     1       2.205  -0.086  -0.066  0.00  0.00    +0.000 A 
ATOM      3  C   UNL     1       1.254  -1.089  -0.246  0.00  0.00    +0.000 A 
ATOM      4  C   UNL     1      -0.094  -0.750  -0.215  0.00  0.00    +0.000 A 
ATOM      5  C   UNL     1      -0.516   0.568  -0.005  0.00  0.00    +0.000 A 
ATOM      6  C   UNL     1       0.441   1.568   0.173  0.00  0.00    +0.000 A 
ATOM      7  C   UNL     1      -1.994   0.686  -0.015  0.00  0.00    +0.000 C 
ATOM      8  C   UNL     1      -2.622   1.862   0.178  0.00  0.00    +0.000 C 
ATOM      9  C   UNL     1      -2.663  -0.647  -0.222  0.00  0.00    +0.000 C 
ATOM     10  O   UNL     1      -3.853  -0.899  -0.244  0.00  0.00    +0.000 OA
ATOM     11  S   UNL     1      -1.429  -1.897  -0.428  0.00  0.00    +0.000 S 
ENDROOT
BRANCH   8  12
ATOM     12  C   UNL     1      -4.030   2.072   0.165  0.00  0.00    +0.000 A 
ATOM     13  C   UNL     1      -4.986   1.731  -0.776  0.00  0.00    +0.000 A 
ATOM     14  C   UNL     1      -6.298   2.160  -0.423  0.00  0.00    +0.000 A 
ATOM     15  C   UNL     1      -6.311   2.843   0.770  0.00  0.00    +0.000 A 
ATOM     16  S   UNL     1      -4.749   2.971   1.449  0.00  0.00    +0.000 S 
ENDBRANCH   8  12
TORSDOF 1
