REMARK  Name = *****
REMARK  2 active torsions:
REMARK  status: ('A' for Active; 'I' for Inactive)
REMARK    1  A    between atoms: C_4  and  C_7
REMARK    2  A    between atoms: C_8  and  C_9
REMARK                            x       y       z     vdW  Elec       q    Type
REMARK                         _______ _______ _______ _____ _____    ______ ____
ROOT
ATOM      1  C   UNL     1      -2.758   0.308  -0.270  0.00  0.00    +0.000 C 
ATOM      2  C   UNL     1      -3.632  -0.707  -0.162  0.00  0.00    +0.000 C 
ENDROOT
BRANCH   2   3
ATOM      3  C   UNL     1      -5.134  -0.562  -0.311  0.00  0.00    +0.000 C 
ATOM      4  C   UNL     1      -5.623  -1.401  -1.478  0.00  0.00    +0.000 C 
ATOM      5  C   UNL     1      -6.808  -2.034  -1.462  0.00  0.00    +0.000 C 
ATOM      6  C   UNL     1      -7.697  -1.928  -0.330  0.00  0.00    +0.000 C 
ATOM      7  C   UNL     1      -7.273  -1.424   0.838  0.00  0.00    +0.000 C 
ATOM      8  C   UNL     1      -5.856  -0.946   1.022  0.00  0.00    +0.000 C 
ATOM      9  F   UNL     1      -5.834   0.112   1.884  0.00  0.00    +0.000 F 
ATOM     10  F   UNL     1      -5.447   0.739  -0.608  0.00  0.00    +0.000 F 
ENDBRANCH   2   3
BRANCH   1  14
ATOM     11  C   UNL     1       1.483   0.001   0.177  0.00  0.00    +0.000 A 
ATOM     12  C   UNL     1       0.786  -1.021  -0.464  0.00  0.00    +0.000 A 
ATOM     13  C   UNL     1      -0.601  -0.937  -0.612  0.00  0.00    +0.000 A 
ATOM     14  C   UNL     1      -1.305   0.166  -0.110  0.00  0.00    +0.000 A 
ATOM     15  C   UNL     1      -0.591   1.194   0.517  0.00  0.00    +0.000 A 
ATOM     16  C   UNL     1       0.796   1.110   0.666  0.00  0.00    +0.000 A 
ENDBRANCH   1  14
TORSDOF 2
