REMARK  Name = *****
REMARK  2 active torsions:
REMARK  status: ('A' for Active; 'I' for Inactive)
REMARK    1  A    between atoms: C_5  and  S_7
REMARK    2  A    between atoms: S_7  and  C_8
REMARK                            x       y       z     vdW  Elec       q    Type
REMARK                         _______ _______ _______ _____ _____    ______ ____
ROOT
ATOM      1  C   UNL     1       0.326   1.374  -0.780  0.00  0.00    +0.000 C 
ATOM      2  C   UNL     1       1.415   0.354  -0.452  0.00  0.00    +0.000 C 
ATOM      3  C   UNL     1       0.879  -1.079  -0.469  0.00  0.00    +0.000 C 
ATOM      4  C   UNL     1      -0.324  -1.212   0.440  0.00  0.00    +0.000 C 
ATOM      5  C   UNL     1      -0.461  -2.084   1.457  0.00  0.00    +0.000 C 
ATOM      6  F   UNL     1      -1.617  -2.053   2.161  0.00  0.00    +0.000 F 
ATOM      7  C   UNL     1      -1.423  -0.222   0.115  0.00  0.00    +0.000 C 
ATOM      8  C   UNL     1      -0.889   1.210   0.133  0.00  0.00    +0.000 C 
ENDROOT
BRANCH   5   9
ATOM      9  S   UNL     1       0.735  -3.255   1.904  0.00  0.00    +0.000 S 
BRANCH   9  10
ATOM     10  C   UNL     1       0.187  -3.633   3.557  0.00  0.00    +0.000 A 
ATOM     11  C   UNL     1      -0.546  -4.799   3.802  0.00  0.00    +0.000 A 
ATOM     12  C   UNL     1      -0.962  -5.108   5.099  0.00  0.00    +0.000 A 
ATOM     13  C   UNL     1      -0.641  -4.258   6.157  0.00  0.00    +0.000 A 
ATOM     14  C   UNL     1       0.098  -3.099   5.920  0.00  0.00    +0.000 A 
ATOM     15  C   UNL     1       0.514  -2.789   4.623  0.00  0.00    +0.000 A 
ENDBRANCH   9  10
ENDBRANCH   5   9
TORSDOF 2
