REMARK  Name = *****
REMARK  2 active torsions:
REMARK  status: ('A' for Active; 'I' for Inactive)
REMARK    1  A    between atoms: C_4  and  C_7
REMARK    2  A    between atoms: C_8  and  C_9
REMARK                            x       y       z     vdW  Elec       q    Type
REMARK                         _______ _______ _______ _____ _____    ______ ____
ROOT
ATOM      1  C   UNL     1      -5.160  -0.267  -0.583  0.00  0.00    +0.000 A 
ATOM      2  C   UNL     1      -5.693   0.812  -1.302  0.00  0.00    +0.000 A 
ATOM      3  C   UNL     1      -7.067   0.970  -1.474  0.00  0.00    +0.000 A 
ATOM      4  C   UNL     1      -7.931   0.030  -0.932  0.00  0.00    +0.000 A 
ATOM      5  C   UNL     1      -7.445  -1.062  -0.229  0.00  0.00    +0.000 A 
ATOM      6  C   UNL     1      -6.069  -1.203  -0.067  0.00  0.00    +0.000 A 
ATOM      7  F   UNL     1      -5.623  -2.273   0.610  0.00  0.00    +0.000 F 
ATOM      8  F   UNL     1      -9.252   0.175  -1.096  0.00  0.00    +0.000 F 
ATOM      9  F   UNL     1      -4.890   1.728  -1.865  0.00  0.00    +0.000 F 
ENDROOT
BRANCH   1  11
ATOM     10  C   UNL     1      -2.778   0.460  -0.342  0.00  0.00    +0.000 C 
ATOM     11  C   UNL     1      -3.716  -0.500  -0.393  0.00  0.00    +0.000 C 
BRANCH  10  15
ATOM     12  C   UNL     1       1.405  -0.200   0.275  0.00  0.00    +0.000 A 
ATOM     13  C   UNL     1       0.674  -1.105  -0.491  0.00  0.00    +0.000 A 
ATOM     14  C   UNL     1      -0.694  -0.906  -0.695  0.00  0.00    +0.000 A 
ATOM     15  C   UNL     1      -1.347   0.195  -0.126  0.00  0.00    +0.000 A 
ATOM     16  C   UNL     1      -0.597   1.107   0.628  0.00  0.00    +0.000 A 
ATOM     17  C   UNL     1       0.771   0.908   0.833  0.00  0.00    +0.000 A 
ENDBRANCH  10  15
ENDBRANCH   1  11
TORSDOF 2
