REMARK  Name = *****
REMARK  4 active torsions:
REMARK  status: ('A' for Active; 'I' for Inactive)
REMARK    1  A    between atoms: C_4  and  C_7
REMARK    2  A    between atoms: C_7  and  N_8
REMARK    3  A    between atoms: N_8  and  C_9
REMARK    4  A    between atoms: C_9  and  C_10
REMARK                            x       y       z     vdW  Elec       q    Type
REMARK                         _______ _______ _______ _____ _____    ______ ____
ROOT
ATOM      1  N   UNL     1      -3.908  -0.804  -0.153  0.00  0.00    +0.000 NA
ATOM      2 CL   UNL     1      -5.626  -0.353  -0.259  0.00  0.00    +0.000 Cl
ENDROOT
BRANCH   1   3
ATOM      3  C   UNL     1      -3.025   0.346  -0.401  0.00  0.00    +0.000 C 
BRANCH   3   7
ATOM      4  C   UNL     1      -3.161   1.781  -4.476  0.00  0.00    +0.000 A 
ATOM      5  C   UNL     1      -3.567   2.609  -3.431  0.00  0.00    +0.000 A 
ATOM      6  C   UNL     1      -3.527   2.147  -2.115  0.00  0.00    +0.000 A 
ATOM      7  C   UNL     1      -3.082   0.848  -1.830  0.00  0.00    +0.000 A 
ATOM      8  C   UNL     1      -2.677   0.023  -2.891  0.00  0.00    +0.000 A 
ATOM      9  C   UNL     1      -2.717   0.487  -4.206  0.00  0.00    +0.000 A 
ENDBRANCH   3   7
ENDBRANCH   1   3
BRANCH   1  10
ATOM     10  C   UNL     1      -3.583  -1.416   1.145  0.00  0.00    +0.000 C 
BRANCH  10  11
ATOM     11  C   UNL     1      -4.224  -2.774   1.344  0.00  0.00    +0.000 A 
ATOM     12  C   UNL     1      -3.885  -3.851   0.510  0.00  0.00    +0.000 A 
ATOM     13  C   UNL     1      -4.466  -5.105   0.700  0.00  0.00    +0.000 A 
ATOM     14  C   UNL     1      -5.392  -5.298   1.723  0.00  0.00    +0.000 A 
ATOM     15  C   UNL     1      -5.739  -4.236   2.557  0.00  0.00    +0.000 A 
ATOM     16  C   UNL     1      -5.158  -2.980   2.370  0.00  0.00    +0.000 A 
ENDBRANCH  10  11
ENDBRANCH   1  10
TORSDOF 4
