REMARK  Name = *****
REMARK  1 active torsions:
REMARK  status: ('A' for Active; 'I' for Inactive)
REMARK    1  A    between atoms: N_9  and  C_11
REMARK                            x       y       z     vdW  Elec       q    Type
REMARK                         _______ _______ _______ _____ _____    ______ ____
ROOT
ATOM      1  C   UNL     1      -1.234  -1.267  -0.288  0.00  0.00    +0.000 C 
ATOM      2  C   UNL     1       0.117  -0.641  -0.041  0.00  0.00    +0.000 A 
ATOM      3  C   UNL     1       1.233  -1.457   0.202  0.00  0.00    +0.000 A 
ATOM      4  C   UNL     1       2.492  -0.891   0.402  0.00  0.00    +0.000 A 
ATOM      5  C   UNL     1       2.651   0.491   0.353  0.00  0.00    +0.000 A 
ATOM      6  C   UNL     1       1.550   1.312   0.099  0.00  0.00    +0.000 A 
ATOM      7  C   UNL     1       0.283   0.753  -0.106  0.00  0.00    +0.000 A 
ATOM      8  S   UNL     1      -1.096   1.845  -0.440  0.00  0.00    +0.000 S 
ATOM      9  N   UNL     1      -2.259   0.698  -0.804  0.00  0.00    +0.000 N 
ATOM     10  O   UNL     1      -2.308  -0.392   0.079  0.00  0.00    +0.000 OA
ENDROOT
BRANCH   9  11
ATOM     11  C   UNL     1      -3.414   1.009  -1.579  0.00  0.00    +0.000 A 
ATOM     12  C   UNL     1      -3.473   2.103  -2.460  0.00  0.00    +0.000 A 
ATOM     13  C   UNL     1      -4.617   2.366  -3.222  0.00  0.00    +0.000 A 
ATOM     14  C   UNL     1      -5.729   1.535  -3.125  0.00  0.00    +0.000 A 
ATOM     15  C   UNL     1      -5.696   0.440  -2.269  0.00  0.00    +0.000 A 
ATOM     16  C   UNL     1      -4.550   0.180  -1.510  0.00  0.00    +0.000 A 
ENDBRANCH   9  11
TORSDOF 1
