REMARK  Name = *****
REMARK  4 active torsions:
REMARK  status: ('A' for Active; 'I' for Inactive)
REMARK    1  A    between atoms: C_2  and  C_3
REMARK    2  A    between atoms: C_3  and  C_4
REMARK    3  A    between atoms: C_3  and  S_10
REMARK    4  A    between atoms: S_10  and  C_11
REMARK                            x       y       z     vdW  Elec       q    Type
REMARK                         _______ _______ _______ _____ _____    ______ ____
ROOT
ATOM      1  C   UNL     1       3.066  -0.976  -0.504  0.00  0.00    +0.000 C 
ENDROOT
BRANCH   1   2
ATOM      2  C   UNL     1       2.714  -1.524  -1.881  0.00  0.00    +0.000 A 
ATOM      3  C   UNL     1       2.921  -0.781  -3.057  0.00  0.00    +0.000 A 
ATOM      4  C   UNL     1       2.577  -1.305  -4.305  0.00  0.00    +0.000 A 
ATOM      5  C   UNL     1       2.018  -2.577  -4.398  0.00  0.00    +0.000 A 
ATOM      6  C   UNL     1       1.801  -3.326  -3.245  0.00  0.00    +0.000 A 
ATOM      7  C   UNL     1       2.145  -2.804  -1.996  0.00  0.00    +0.000 A 
ENDBRANCH   1   2
BRANCH   1   9
ATOM      8  C   UNL     1       1.412   0.314   0.907  0.00  0.00    +0.000 C 
ATOM      9  C   UNL     1       2.237   0.237  -0.148  0.00  0.00    +0.000 C 
ENDBRANCH   1   9
BRANCH   1  10
ATOM     10  S   UNL     1       4.855  -0.545  -0.391  0.00  0.00    +0.000 S 
BRANCH  10  11
ATOM     11  C   UNL     1       5.053  -0.511   1.380  0.00  0.00    +0.000 A 
ATOM     12  C   UNL     1       5.100  -1.699   2.116  0.00  0.00    +0.000 A 
ATOM     13  C   UNL     1       5.263  -1.662   3.503  0.00  0.00    +0.000 A 
ATOM     14  C   UNL     1       5.388  -0.437   4.157  0.00  0.00    +0.000 A 
ATOM     15  C   UNL     1       5.356   0.750   3.427  0.00  0.00    +0.000 A 
ATOM     16  C   UNL     1       5.193   0.713   2.040  0.00  0.00    +0.000 A 
ENDBRANCH  10  11
ENDBRANCH   1  10
TORSDOF 4
