REMARK  Name = *****
REMARK  3 active torsions:
REMARK  status: ('A' for Active; 'I' for Inactive)
REMARK    1  A    between atoms: C_1  and  C_2
REMARK    2  A    between atoms: C_5  and  C_7
REMARK    3  A    between atoms: C_8  and  C_9
REMARK                            x       y       z     vdW  Elec       q    Type
REMARK                         _______ _______ _______ _____ _____    ______ ____
ROOT
ATOM      1  C   UNL     1      -2.946   0.626   0.051  0.00  0.00    +0.000 C 
ATOM      2  C   UNL     1      -4.086  -0.081  -0.017  0.00  0.00    +0.000 C 
ENDROOT
BRANCH   1   7
ATOM      3  C   UNL     1       2.284  -0.076  -0.033  0.00  0.00    +0.000 C 
ATOM      4  C   UNL     1       0.813  -0.309   0.005  0.00  0.00    +0.000 A 
ATOM      5  C   UNL     1       0.136  -1.506   0.046  0.00  0.00    +0.000 A 
ATOM      6  C   UNL     1      -1.279  -1.324   0.069  0.00  0.00    +0.000 A 
ATOM      7  C   UNL     1      -1.659   0.008   0.045  0.00  0.00    +0.000 A 
ATOM      8  S   UNL     1      -0.260   1.019   0.002  0.00  0.00    +0.000 S 
ENDBRANCH   1   7
BRANCH   2   9
ATOM      9  C   UNL     1      -5.427   0.526  -0.014  0.00  0.00    +0.000 A 
ATOM     10  C   UNL     1      -5.711   1.721  -0.688  0.00  0.00    +0.000 A 
ATOM     11  C   UNL     1      -7.006   2.247  -0.689  0.00  0.00    +0.000 A 
ATOM     12  C   UNL     1      -8.032   1.577  -0.026  0.00  0.00    +0.000 A 
ATOM     13  C   UNL     1      -7.766   0.380   0.634  0.00  0.00    +0.000 A 
ATOM     14  C   UNL     1      -6.472  -0.145   0.635  0.00  0.00    +0.000 A 
ENDBRANCH   2   9
TORSDOF 2
