REMARK  Name = *****
REMARK  5 active torsions:
REMARK  status: ('A' for Active; 'I' for Inactive)
REMARK    1  A    between atoms: C_1  and  C_2
REMARK    2  A    between atoms: C_5  and  C_8
REMARK    3  A    between atoms: C_9  and  C_10
REMARK    4  A    between atoms: C_12  and  C_16
REMARK    5  A    between atoms: C_16  and  C_18
REMARK                            x       y       z     vdW  Elec       q    Type
REMARK                         _______ _______ _______ _____ _____    ______ ____
ROOT
ATOM      1  C   UNL     1      -3.274   0.052  -0.075  0.00  0.00    +0.000 C 
ATOM      2  C   UNL     1      -4.046   1.151  -0.068  0.00  0.00    +0.000 C 
ENDROOT
BRANCH   1   7
ATOM      3  C   UNL     1       2.516   0.014  -0.022  0.00  0.00    +0.000 C 
ATOM      4  C   UNL     1       1.017   0.055  -0.055  0.00  0.00    +0.000 A 
ATOM      5  C   UNL     1       0.315   0.989   0.713  0.00  0.00    +0.000 A 
ATOM      6  C   UNL     1      -1.084   1.006   0.707  0.00  0.00    +0.000 A 
ATOM      7  C   UNL     1      -1.805   0.089  -0.067  0.00  0.00    +0.000 A 
ATOM      8  C   UNL     1      -1.099  -0.865  -0.810  0.00  0.00    +0.000 A 
ATOM      9  C   UNL     1       0.299  -0.882  -0.805  0.00  0.00    +0.000 A 
ENDBRANCH   1   7
BRANCH   2  10
ATOM     10  C   UNL     1      -5.515   1.114  -0.095  0.00  0.00    +0.000 A 
ATOM     11  C   UNL     1      -6.249   0.199   0.676  0.00  0.00    +0.000 A 
ATOM     12  C   UNL     1      -7.650   0.210   0.651  0.00  0.00    +0.000 A 
ATOM     13  C   UNL     1      -8.317   1.152  -0.142  0.00  0.00    +0.000 A 
ATOM     14  C   UNL     1      -7.595   2.075  -0.897  0.00  0.00    +0.000 A 
ATOM     15  C   UNL     1      -6.200   2.059  -0.868  0.00  0.00    +0.000 A 
BRANCH  12  16
ATOM     16  C   UNL     1      -8.468  -0.750   1.451  0.00  0.00    +0.000 C 
ATOM     17  O   UNL     1      -9.696  -0.694   1.409  0.00  0.00    +0.000 OA
ATOM     18  C   UNL     1      -7.767  -1.778   2.300  0.00  0.00    +0.000 C 
ENDBRANCH  12  16
ENDBRANCH   2  10
TORSDOF 3
