REMARK  Name = *****
REMARK  5 active torsions:
REMARK  status: ('A' for Active; 'I' for Inactive)
REMARK    1  A    between atoms: C_1  and  C_2
REMARK    2  A    between atoms: C_2  and  O_4
REMARK    3  A    between atoms: O_4  and  C_5
REMARK    4  A    between atoms: C_8  and  C_11
REMARK    5  A    between atoms: C_12  and  C_13
REMARK                            x       y       z     vdW  Elec       q    Type
REMARK                         _______ _______ _______ _____ _____    ______ ____
ROOT
ATOM      1  C   UNL     1       4.637   1.213   0.243  0.00  0.00    +0.000 A 
ATOM      2  C   UNL     1       5.325   0.921  -0.932  0.00  0.00    +0.000 A 
ATOM      3  C   UNL     1       6.722   0.887  -0.917  0.00  0.00    +0.000 A 
ATOM      4  C   UNL     1       7.431   1.173   0.260  0.00  0.00    +0.000 A 
ATOM      5  C   UNL     1       6.716   1.470   1.430  0.00  0.00    +0.000 A 
ATOM      6  C   UNL     1       5.320   1.504   1.421  0.00  0.00    +0.000 A 
ENDROOT
BRANCH   4   7
ATOM      7  C   UNL     1       8.899   1.119   0.320  0.00  0.00    +0.000 C 
ATOM      8  C   UNL     1       9.702   1.558  -0.662  0.00  0.00    +0.000 C 
BRANCH   8   9
ATOM      9  C   UNL     1      11.170   1.521  -0.596  0.00  0.00    +0.000 A 
ATOM     10  C   UNL     1      11.867   0.442  -0.037  0.00  0.00    +0.000 A 
ATOM     11  C   UNL     1      13.264   0.429  -0.022  0.00  0.00    +0.000 A 
ATOM     12  C   UNL     1      13.979   1.490  -0.574  0.00  0.00    +0.000 A 
ATOM     13  C   UNL     1      13.298   2.562  -1.147  0.00  0.00    +0.000 A 
ATOM     14  C   UNL     1      11.901   2.574  -1.163  0.00  0.00    +0.000 A 
ENDBRANCH   8   9
ENDBRANCH   4   7
BRANCH   1  15
ATOM     15  O   UNL     1       3.242   1.316   0.261  0.00  0.00    +0.000 OA
BRANCH  15  17
ATOM     16  C   UNL     1       1.076   0.443   0.005  0.00  0.00    +0.000 C 
ATOM     17  C   UNL     1       2.547   0.151  -0.045  0.00  0.00    +0.000 C 
ATOM     18  O   UNL     1       3.022  -0.946  -0.304  0.00  0.00    +0.000 OA
ENDBRANCH  15  17
ENDBRANCH   1  15
TORSDOF 4
