REMARK  Name = *****
REMARK  5 active torsions:
REMARK  status: ('A' for Active; 'I' for Inactive)
REMARK    1  A    between atoms: C_1  and  O_2
REMARK    2  A    between atoms: O_2  and  C_3
REMARK    3  A    between atoms: C_6  and  S_9
REMARK    4  A    between atoms: S_9  and  S_11
REMARK    5  A    between atoms: S_11  and  C_12
REMARK                            x       y       z     vdW  Elec       q    Type
REMARK                         _______ _______ _______ _____ _____    ______ ____
ROOT
ATOM      1  S   UNL     1       6.256  -4.284  -2.174  0.00  0.00    +0.000 S 
ATOM      2  O   UNL     1       7.606  -3.866  -1.667  0.00  0.00    +0.000 OA
ENDROOT
BRANCH   1   6
ATOM      3  C   UNL     1       3.270  -1.070  -0.718  0.00  0.00    +0.000 A 
ATOM      4  C   UNL     1       2.845  -2.109  -1.547  0.00  0.00    +0.000 A 
ATOM      5  C   UNL     1       3.756  -3.081  -1.980  0.00  0.00    +0.000 A 
ATOM      6  C   UNL     1       5.098  -3.023  -1.586  0.00  0.00    +0.000 A 
ATOM      7  C   UNL     1       5.522  -1.979  -0.761  0.00  0.00    +0.000 A 
ATOM      8  C   UNL     1       4.610  -1.012  -0.329  0.00  0.00    +0.000 A 
BRANCH   3  10
ATOM      9  C   UNL     1       1.113  -0.077  -0.587  0.00  0.00    +0.000 C 
ATOM     10  O   UNL     1       2.488  -0.062  -0.226  0.00  0.00    +0.000 OA
ENDBRANCH   3  10
ENDBRANCH   1   6
BRANCH   1  11
ATOM     11  S   UNL     1       5.852  -5.777  -0.860  0.00  0.00    +0.000 S 
BRANCH  11  12
ATOM     12  C   UNL     1       6.797  -7.127  -1.540  0.00  0.00    +0.000 A 
ATOM     13  C   UNL     1       8.196  -7.110  -1.532  0.00  0.00    +0.000 A 
ATOM     14  C   UNL     1       8.918  -8.183  -2.058  0.00  0.00    +0.000 A 
ATOM     15  C   UNL     1       8.247  -9.284  -2.587  0.00  0.00    +0.000 A 
ATOM     16  C   UNL     1       6.853  -9.315  -2.587  0.00  0.00    +0.000 A 
ATOM     17  C   UNL     1       6.130  -8.241  -2.062  0.00  0.00    +0.000 A 
ENDBRANCH  11  12
ENDBRANCH   1  11
TORSDOF 4
