REMARK  Name = *****
REMARK  5 active torsions:
REMARK  status: ('A' for Active; 'I' for Inactive)
REMARK    1  A    between atoms: C_1  and  C_2
REMARK    2  A    between atoms: C_4  and  C_18
REMARK    3  A    between atoms: C_6  and  O_8
REMARK    4  A    between atoms: O_8  and  C_9
REMARK    5  A    between atoms: C_9  and  C_11
REMARK                            x       y       z     vdW  Elec       q    Type
REMARK                         _______ _______ _______ _____ _____    ______ ____
ROOT
ATOM      1  O   UNL     1       3.085  -3.072  -2.169  0.00  0.00    +0.000 OA
ENDROOT
BRANCH   1   7
ATOM      2  C   UNL     1       1.125   0.039   0.381  0.00  0.00    +0.000 C 
ATOM      3  C   UNL     1       2.617  -0.046   0.051  0.00  0.00    +0.000 C 
ATOM      4  C   UNL     1       3.032   1.004  -0.990  0.00  0.00    +0.000 C 
ATOM      5  C   UNL     1       2.545   0.676  -2.410  0.00  0.00    +0.000 C 
ATOM      6  C   UNL     1       2.980  -0.735  -2.824  0.00  0.00    +0.000 C 
ATOM      7  C   UNL     1       2.522  -1.793  -1.816  0.00  0.00    +0.000 C 
ATOM      8  C   UNL     1       3.019  -1.453  -0.408  0.00  0.00    +0.000 C 
ATOM      9  C   UNL     1       3.065   1.711  -3.407  0.00  0.00    +0.000 C 
ENDBRANCH   1   7
BRANCH   1  10
ATOM     10  C   UNL     1       2.409  -3.786  -3.102  0.00  0.00    +0.000 C 
ATOM     11  O   UNL     1       1.377  -3.448  -3.658  0.00  0.00    +0.000 OA
BRANCH  10  12
ATOM     12  C   UNL     1       3.100  -5.077  -3.372  0.00  0.00    +0.000 A 
ATOM     13  C   UNL     1       4.308  -5.430  -2.748  0.00  0.00    +0.000 A 
ATOM     14  C   UNL     1       4.915  -6.654  -3.040  0.00  0.00    +0.000 A 
ATOM     15  C   UNL     1       4.318  -7.519  -3.950  0.00  0.00    +0.000 A 
ATOM     16  C   UNL     1       3.123  -7.185  -4.578  0.00  0.00    +0.000 A 
ATOM     17  C   UNL     1       2.513  -5.962  -4.290  0.00  0.00    +0.000 A 
ATOM     18  F   UNL     1       4.903  -8.691  -4.227  0.00  0.00    +0.000 F 
ENDBRANCH  10  12
ENDBRANCH   1  10
TORSDOF 3
