REMARK  Name = *****
REMARK  5 active torsions:
REMARK  status: ('A' for Active; 'I' for Inactive)
REMARK    1  A    between atoms: C_1  and  C_2
REMARK    2  A    between atoms: C_4  and  C_8
REMARK    3  A    between atoms: C_5  and  C_7
REMARK    4  A    between atoms: C_8  and  C_9
REMARK    5  A    between atoms: C_9  and  C_11
REMARK                            x       y       z     vdW  Elec       q    Type
REMARK                         _______ _______ _______ _____ _____    ______ ____
ROOT
ATOM      1  C   UNL     1       1.433  -2.765   0.139  0.00  0.00    +0.000 C 
ENDROOT
BRANCH   1   5
ATOM      2  C   UNL     1      -2.545   0.468   0.686  0.00  0.00    +0.000 C 
ATOM      3  C   UNL     1      -1.211  -0.072   0.302  0.00  0.00    +0.000 A 
ATOM      4  C   UNL     1      -0.687  -1.321   0.553  0.00  0.00    +0.000 A 
ATOM      5  C   UNL     1       0.634  -1.496   0.018  0.00  0.00    +0.000 A 
ATOM      6  C   UNL     1       1.076  -0.328  -0.588  0.00  0.00    +0.000 A 
ATOM      7  S   UNL     1      -0.112   0.904  -0.561  0.00  0.00    +0.000 S 
ATOM      8  C   UNL     1       2.395  -0.051  -1.233  0.00  0.00    +0.000 C 
ENDBRANCH   1   5
BRANCH   1   9
ATOM      9  C   UNL     1       0.602  -4.018  -0.068  0.00  0.00    +0.000 C 
ATOM     10  O   UNL     1       0.204  -4.679   0.893  0.00  0.00    +0.000 OA
BRANCH   9  11
ATOM     11  C   UNL     1       0.264  -4.471  -1.454  0.00  0.00    +0.000 A 
ATOM     12  C   UNL     1       0.554  -3.711  -2.593  0.00  0.00    +0.000 A 
ATOM     13  C   UNL     1       0.216  -4.188  -3.863  0.00  0.00    +0.000 A 
ATOM     14  C   UNL     1      -0.411  -5.425  -4.004  0.00  0.00    +0.000 A 
ATOM     15  C   UNL     1      -0.706  -6.188  -2.877  0.00  0.00    +0.000 A 
ATOM     16  C   UNL     1      -0.371  -5.712  -1.607  0.00  0.00    +0.000 A 
ENDBRANCH   9  11
ENDBRANCH   1   9
TORSDOF 3
