REMARK  Name = *****
REMARK  5 active torsions:
REMARK  status: ('A' for Active; 'I' for Inactive)
REMARK    1  A    between atoms: C_1  and  O_2
REMARK    2  A    between atoms: O_2  and  C_3
REMARK    3  A    between atoms: C_6  and  C_9
REMARK    4  A    between atoms: C_9  and  S_10
REMARK    5  A    between atoms: S_10  and  C_11
REMARK                            x       y       z     vdW  Elec       q    Type
REMARK                         _______ _______ _______ _____ _____    ______ ____
ROOT
ATOM      1  C   UNL     1       4.671   4.092   3.067  0.00  0.00    +0.000 C 
ENDROOT
BRANCH   1   5
ATOM      2  C   UNL     1       3.062   0.845   0.699  0.00  0.00    +0.000 A 
ATOM      3  C   UNL     1       2.244   1.536   1.593  0.00  0.00    +0.000 A 
ATOM      4  C   UNL     1       2.765   2.588   2.356  0.00  0.00    +0.000 A 
ATOM      5  C   UNL     1       4.109   2.966   2.233  0.00  0.00    +0.000 A 
ATOM      6  C   UNL     1       4.927   2.262   1.341  0.00  0.00    +0.000 A 
ATOM      7  C   UNL     1       4.404   1.214   0.580  0.00  0.00    +0.000 A 
BRANCH   2   9
ATOM      8  C   UNL     1       1.331  -0.627   0.005  0.00  0.00    +0.000 C 
ATOM      9  O   UNL     1       2.682  -0.196  -0.102  0.00  0.00    +0.000 OA
ENDBRANCH   2   9
ENDBRANCH   1   5
BRANCH   1  10
ATOM     10  S   UNL     1       5.246   3.484   4.689  0.00  0.00    +0.000 S 
BRANCH  10  11
ATOM     11  C   UNL     1       6.301   4.822   5.232  0.00  0.00    +0.000 A 
ATOM     12  C   UNL     1       7.441   4.478   5.972  0.00  0.00    +0.000 A 
ATOM     13  C   UNL     1       8.312   5.464   6.446  0.00  0.00    +0.000 A 
ATOM     14  C   UNL     1       8.050   6.809   6.193  0.00  0.00    +0.000 A 
ATOM     15  C   UNL     1       6.914   7.167   5.471  0.00  0.00    +0.000 A 
ATOM     16  C   UNL     1       6.049   6.179   5.002  0.00  0.00    +0.000 A 
ATOM     17  F   UNL     1       4.958   6.575   4.330  0.00  0.00    +0.000 F 
ENDBRANCH  10  11
ENDBRANCH   1  10
TORSDOF 4
