REMARK  Name = *****
REMARK  3 active torsions:
REMARK  status: ('A' for Active; 'I' for Inactive)
REMARK    1  A    between atoms: C_4  and  O_6
REMARK    2  A    between atoms: O_6  and  C_7
REMARK    3  A    between atoms: C_7  and  C_9
REMARK                            x       y       z     vdW  Elec       q    Type
REMARK                         _______ _______ _______ _____ _____    ______ ____
ROOT
ATOM      1  C   UNL     1      -2.534   1.323   1.824  0.00  0.00    +0.000 C 
ATOM      2  O   UNL     1      -3.502   1.108   1.111  0.00  0.00    +0.000 OA
ENDROOT
BRANCH   1   3
ATOM      3  C   UNL     1      -2.638   1.646   3.274  0.00  0.00    +0.000 A 
ATOM      4  C   UNL     1      -1.510   1.865   4.079  0.00  0.00    +0.000 A 
ATOM      5  C   UNL     1      -1.664   2.165   5.437  0.00  0.00    +0.000 A 
ATOM      6  C   UNL     1      -2.941   2.247   5.990  0.00  0.00    +0.000 A 
ATOM      7  C   UNL     1      -4.068   2.031   5.200  0.00  0.00    +0.000 A 
ATOM      8  C   UNL     1      -3.917   1.731   3.843  0.00  0.00    +0.000 A 
ATOM      9 CL   UNL     1      -3.125   2.617   7.660  0.00  0.00    +0.000 Cl
ENDBRANCH   1   3
BRANCH   1  10
ATOM     10  O   UNL     1      -1.236   1.303   1.435  0.00  0.00    +0.000 OA
BRANCH  10  14
ATOM     11  C   UNL     1       1.272   0.238   0.277  0.00  0.00    +0.000 C 
ATOM     12  C   UNL     1       0.350  -0.979   0.355  0.00  0.00    +0.000 C 
ATOM     13  C   UNL     1      -1.008  -0.517  -0.171  0.00  0.00    +0.000 C 
ATOM     14  C   UNL     1      -1.009   0.992   0.050  0.00  0.00    +0.000 C 
ATOM     15  C   UNL     1       0.426   1.374  -0.295  0.00  0.00    +0.000 C 
ENDBRANCH  10  14
ENDBRANCH   1  10
TORSDOF 3
