REMARK  Name = *****
REMARK  2 active torsions:
REMARK  status: ('A' for Active; 'I' for Inactive)
REMARK    1  A    between atoms: C_6  and  C_7
REMARK    2  A    between atoms: C_7  and  C_8
REMARK                            x       y       z     vdW  Elec       q    Type
REMARK                         _______ _______ _______ _____ _____    ______ ____
ROOT
ATOM      1  C   UNL     1       1.355  -4.670   0.426  0.00  0.00    +0.000 A 
ATOM      2  C   UNL     1       2.413  -5.171   1.209  0.00  0.00    +0.000 A 
ATOM      3  C   UNL     1       2.569  -6.546   1.405  0.00  0.00    +0.000 A 
ATOM      4  C   UNL     1       1.674  -7.433   0.815  0.00  0.00    +0.000 A 
ATOM      5  C   UNL     1       0.628  -6.961   0.027  0.00  0.00    +0.000 A 
ATOM      6  C   UNL     1       0.472  -5.586  -0.170  0.00  0.00    +0.000 A 
ATOM      7 CL   UNL     1       1.864  -9.126   1.054  0.00  0.00    +0.000 Cl
ATOM      8 CL   UNL     1       3.557  -4.123   1.979  0.00  0.00    +0.000 Cl
ENDROOT
BRANCH   1   9
ATOM      9  C   UNL     1       1.184  -3.228   0.176  0.00  0.00    +0.000 C 
BRANCH   9  15
ATOM     10  C   UNL     1      -1.358   0.809  -0.056  0.00  0.00    +0.000 C 
ATOM     11  C   UNL     1       0.059   1.330   0.108  0.00  0.00    +0.000 C 
ATOM     12  S   UNL     1       1.052  -0.095  -0.364  0.00  0.00    +0.000 S 
ATOM     13  C   UNL     1      -0.245  -1.155   0.122  0.00  0.00    +0.000 C 
ATOM     14  N   UNL     1      -1.411  -0.625   0.297  0.00  0.00    +0.000 NA
ATOM     15  C   UNL     1       0.011  -2.596   0.341  0.00  0.00    +0.000 C 
ENDBRANCH   9  15
ENDBRANCH   1   9
TORSDOF 2
