REMARK  Name = *****
REMARK  4 active torsions:
REMARK  status: ('A' for Active; 'I' for Inactive)
REMARK    1  A    between atoms: C_4  and  S_9
REMARK    2  A    between atoms: C_5  and  C_7
REMARK    3  A    between atoms: S_9  and  C_10
REMARK    4  A    between atoms: C_10  and  C_12
REMARK                            x       y       z     vdW  Elec       q    Type
REMARK                         _______ _______ _______ _____ _____    ______ ____
ROOT
ATOM      1  S   UNL     1      -3.243   0.462   0.118  0.00  0.00    +0.000 S 
ENDROOT
BRANCH   1   5
ATOM      2  C   UNL     1       1.278  -0.327  -0.245  0.00  0.00    +0.000 A 
ATOM      3  C   UNL     1       0.601   0.505  -1.130  0.00  0.00    +0.000 A 
ATOM      4  C   UNL     1      -0.769   0.724  -0.971  0.00  0.00    +0.000 A 
ATOM      5  C   UNL     1      -1.488   0.117   0.073  0.00  0.00    +0.000 A 
ATOM      6  C   UNL     1      -0.790  -0.707   0.975  0.00  0.00    +0.000 A 
ATOM      7  C   UNL     1       0.587  -0.932   0.804  0.00  0.00    +0.000 A 
BRANCH   6   8
ATOM      8  C   UNL     1      -1.410  -1.380   2.145  0.00  0.00    +0.000 C 
ATOM      9  O   UNL     1      -2.485  -1.066   2.639  0.00  0.00    +0.000 OA
ENDBRANCH   6   8
ENDBRANCH   1   5
BRANCH   1  10
ATOM     10  C   UNL     1      -3.913  -1.154  -0.086  0.00  0.00    +0.000 C 
ATOM     11  O   UNL     1      -3.265  -2.113  -0.484  0.00  0.00    +0.000 OA
BRANCH  10  12
ATOM     12  C   UNL     1      -5.346  -1.278   0.227  0.00  0.00    +0.000 A 
ATOM     13  C   UNL     1      -5.760  -1.184   1.564  0.00  0.00    +0.000 A 
ATOM     14  C   UNL     1      -7.110  -1.324   1.886  0.00  0.00    +0.000 A 
ATOM     15  C   UNL     1      -8.046  -1.562   0.880  0.00  0.00    +0.000 A 
ATOM     16  C   UNL     1      -7.633  -1.660  -0.451  0.00  0.00    +0.000 A 
ATOM     17  C   UNL     1      -6.282  -1.521  -0.782  0.00  0.00    +0.000 A 
ATOM     18 CL   UNL     1      -5.846  -1.615  -2.450  0.00  0.00    +0.000 Cl
ENDBRANCH  10  12
ENDBRANCH   1  10
TORSDOF 4
