REMARK  Name = *****
REMARK  3 active torsions:
REMARK  status: ('A' for Active; 'I' for Inactive)
REMARK    1  A    between atoms: C_2  and  C_3
REMARK    2  A    between atoms: C_2  and  S_9
REMARK    3  A    between atoms: S_9  and  C_11
REMARK                            x       y       z     vdW  Elec       q    Type
REMARK                         _______ _______ _______ _____ _____    ______ ____
ROOT
ATOM      1  C   UNL     1       1.085  -0.370  -0.201  0.00  0.00    +0.000 C 
ATOM      2  C   UNL     1       2.419  -0.226  -0.218  0.00  0.00    +0.000 C 
ENDROOT
BRANCH   2   3
ATOM      3  C   UNL     1       3.116   0.408   0.908  0.00  0.00    +0.000 A 
ATOM      4  C   UNL     1       3.907  -0.359   1.774  0.00  0.00    +0.000 A 
ATOM      5  C   UNL     1       4.577   0.245   2.839  0.00  0.00    +0.000 A 
ATOM      6  C   UNL     1       4.461   1.618   3.048  0.00  0.00    +0.000 A 
ATOM      7  C   UNL     1       3.673   2.389   2.195  0.00  0.00    +0.000 A 
ATOM      8  C   UNL     1       3.000   1.787   1.131  0.00  0.00    +0.000 A 
ENDBRANCH   2   3
BRANCH   2   9
ATOM      9  S   UNL     1       3.378  -0.865  -1.596  0.00  0.00    +0.000 S 
ATOM     10  O   UNL     1       2.400  -1.247  -2.670  0.00  0.00    +0.000 OA
BRANCH   9  11
ATOM     11  C   UNL     1       4.178   0.655  -2.165  0.00  0.00    +0.000 A 
ATOM     12  C   UNL     1       5.396   1.054  -1.602  0.00  0.00    +0.000 A 
ATOM     13  C   UNL     1       6.018   2.227  -2.033  0.00  0.00    +0.000 A 
ATOM     14  C   UNL     1       5.431   3.002  -3.032  0.00  0.00    +0.000 A 
ATOM     15  C   UNL     1       4.223   2.605  -3.604  0.00  0.00    +0.000 A 
ATOM     16  C   UNL     1       3.598   1.434  -3.172  0.00  0.00    +0.000 A 
ENDBRANCH   9  11
ENDBRANCH   2   9
TORSDOF 3
