REMARK  Name = *****
REMARK  8 active torsions:
REMARK  status: ('A' for Active; 'I' for Inactive)
REMARK    1  A    between atoms: C_1  and  C_2
REMARK    2  A    between atoms: C_3  and  C_9
REMARK    3  A    between atoms: C_4  and  C_8
REMARK    4  A    between atoms: C_9  and  C_10
REMARK    5  A    between atoms: C_10  and  C_11
REMARK    6  A    between atoms: C_11  and  C_13
REMARK    7  A    between atoms: C_15  and  C_20
REMARK    8  A    between atoms: C_16  and  C_19
REMARK                            x       y       z     vdW  Elec       q    Type
REMARK                         _______ _______ _______ _____ _____    ______ ____
ROOT
ATOM      1  C   UNL     1       1.375   3.196  -0.181  0.00  0.00    +0.000 C 
ENDROOT
BRANCH   1   2
ATOM      2  C   UNL     1       1.241   4.706  -0.103  0.00  0.00    +0.000 C 
ATOM      3  O   UNL     1       0.146   5.265  -0.057  0.00  0.00    +0.000 OA
BRANCH   2   4
ATOM      4  C   UNL     1       2.487   5.535  -0.082  0.00  0.00    +0.000 A 
ATOM      5  C   UNL     1       2.361   6.930  -0.043  0.00  0.00    +0.000 A 
ATOM      6  C   UNL     1       3.492   7.764  -0.022  0.00  0.00    +0.000 A 
ATOM      7  C   UNL     1       4.775   7.185  -0.052  0.00  0.00    +0.000 A 
ATOM      8  C   UNL     1       4.895   5.787  -0.085  0.00  0.00    +0.000 A 
ATOM      9  C   UNL     1       3.763   4.967  -0.101  0.00  0.00    +0.000 A 
ATOM     10  C   UNL     1       6.019   8.031  -0.032  0.00  0.00    +0.000 C 
ATOM     11  C   UNL     1       3.303   9.257   0.015  0.00  0.00    +0.000 C 
ENDBRANCH   2   4
ENDBRANCH   1   2
BRANCH   1  12
ATOM     12  C   UNL     1       0.009   2.508  -0.240  0.00  0.00    +0.000 C 
BRANCH  12  15
ATOM     13  C   UNL     1       0.079   0.818   2.226  0.00  0.00    +0.000 C 
ATOM     14  C   UNL     1       0.208   0.213   0.852  0.00  0.00    +0.000 A 
ATOM     15  C   UNL     1       0.147   0.997  -0.327  0.00  0.00    +0.000 A 
ATOM     16  C   UNL     1       0.247   0.358  -1.589  0.00  0.00    +0.000 A 
ATOM     17  C   UNL     1       0.394  -1.037  -1.649  0.00  0.00    +0.000 A 
ATOM     18  C   UNL     1       0.450  -1.800  -0.488  0.00  0.00    +0.000 A 
ATOM     19  C   UNL     1       0.354  -1.179   0.753  0.00  0.00    +0.000 A 
ATOM     20  C   UNL     1       0.162   1.120  -2.885  0.00  0.00    +0.000 C 
ENDBRANCH  12  15
ENDBRANCH   1  12
TORSDOF 4
