REMARK  Name = *****
REMARK  1 active torsions:
REMARK  status: ('A' for Active; 'I' for Inactive)
REMARK    1  A    between atoms: C_5  and  C_9
REMARK                            x       y       z     vdW  Elec       q    Type
REMARK                         _______ _______ _______ _____ _____    ______ ____
ROOT
ATOM      1  C   UNL     1       2.244  -0.039  -0.085  0.00  0.00    +0.000 C 
ATOM      2  C   UNL     1       1.347   1.193   0.202  0.00  0.00    +0.000 C 
ATOM      3  C   UNL     1      -0.005   0.691  -0.237  0.00  0.00    +0.000 C 
ATOM      4  C   UNL     1      -1.344   1.236   0.209  0.00  0.00    +0.000 C 
ATOM      5  C   UNL     1      -2.179  -0.019  -0.024  0.00  0.00    +0.000 C 
ATOM      6  C   UNL     1      -1.397  -1.122  -0.023  0.00  0.00    +0.000 C 
ATOM      7  C   UNL     1      -0.002  -0.731   0.312  0.00  0.00    +0.000 C 
ATOM      8  C   UNL     1       1.289  -1.245  -0.289  0.00  0.00    +0.000 C 
ENDROOT
BRANCH   5   9
ATOM      9  C   UNL     1      -3.637   0.030  -0.205  0.00  0.00    +0.000 A 
ATOM     10  C   UNL     1      -4.380   1.131   0.247  0.00  0.00    +0.000 A 
ATOM     11  C   UNL     1      -5.766   1.189   0.069  0.00  0.00    +0.000 A 
ATOM     12  C   UNL     1      -6.432   0.147  -0.570  0.00  0.00    +0.000 A 
ATOM     13  C   UNL     1      -5.713  -0.951  -1.031  0.00  0.00    +0.000 A 
ATOM     14  C   UNL     1      -4.327  -1.008  -0.851  0.00  0.00    +0.000 A 
ENDBRANCH   5   9
TORSDOF 1
