REMARK  Name = *****
REMARK  4 active torsions:
REMARK  status: ('A' for Active; 'I' for Inactive)
REMARK    1  A    between atoms: C_1  and  O_2
REMARK    2  A    between atoms: O_2  and  C_3
REMARK    3  A    between atoms: C_7  and  C_9
REMARK    4  A    between atoms: C_10  and  C_11
REMARK                            x       y       z     vdW  Elec       q    Type
REMARK                         _______ _______ _______ _____ _____    ______ ____
ROOT
ATOM      1  C   UNL     1       0.762   0.926  -0.716  0.00  0.00    +0.000 C 
ATOM      2  C   UNL     1      -0.298   1.168   0.074  0.00  0.00    +0.000 C 
ENDROOT
BRANCH   2   3
ATOM      3  C   UNL     1      -1.451   1.984  -0.296  0.00  0.00    +0.000 C 
ATOM      4  C   UNL     1      -1.356   3.462  -0.590  0.00  0.00    +0.000 C 
ATOM      5  C   UNL     1      -2.095   2.974   0.648  0.00  0.00    +0.000 C 
ATOM      6  C   UNL     1      -1.460   3.795   1.782  0.00  0.00    +0.000 C 
ATOM      7  C   UNL     1       0.007   3.954   1.355  0.00  0.00    +0.000 C 
ATOM      8  C   UNL     1      -0.375   4.504  -0.028  0.00  0.00    +0.000 C 
ATOM      9  C   UNL     1      -1.193   5.687   0.485  0.00  0.00    +0.000 C 
ATOM     10  C   UNL     1      -1.850   5.257   1.581  0.00  0.00    +0.000 C 
ENDBRANCH   2   3
BRANCH   1  15
ATOM     11  C   UNL     1       3.550  -0.706   1.273  0.00  0.00    +0.000 A 
ATOM     12  C   UNL     1       4.141  -1.484   0.276  0.00  0.00    +0.000 A 
ATOM     13  C   UNL     1       3.635  -1.476  -1.023  0.00  0.00    +0.000 A 
ATOM     14  C   UNL     1       2.525  -0.689  -1.330  0.00  0.00    +0.000 A 
ATOM     15  C   UNL     1       1.908   0.086  -0.341  0.00  0.00    +0.000 A 
ATOM     16  C   UNL     1       2.439   0.082   0.960  0.00  0.00    +0.000 A 
BRANCH  11  18
ATOM     17  C   UNL     1       3.574  -0.047   3.558  0.00  0.00    +0.000 C 
ATOM     18  O   UNL     1       4.152  -0.799   2.499  0.00  0.00    +0.000 OA
ENDBRANCH  11  18
ENDBRANCH   1  15
TORSDOF 3
