REMARK  Name = *****
REMARK  2 active torsions:
REMARK  status: ('A' for Active; 'I' for Inactive)
REMARK    1  A    between atoms: C_4  and  C_7
REMARK    2  A    between atoms: C_7  and  N_8
REMARK                            x       y       z     vdW  Elec       q    Type
REMARK                         _______ _______ _______ _____ _____    ______ ____
ROOT
ATOM      1  N   UNL     1      -3.160   0.226  -1.283  0.00  0.00    +0.000 N 
ATOM      2  C   UNL     1      -3.725  -1.064  -1.372  0.00  0.00    +0.000 A 
ATOM      3  C   UNL     1      -4.308  -1.312  -2.617  0.00  0.00    +0.000 A 
ATOM      4  C   UNL     1      -4.918  -2.522  -2.910  0.00  0.00    +0.000 A 
ATOM      5  C   UNL     1      -4.937  -3.501  -1.919  0.00  0.00    +0.000 A 
ATOM      6  C   UNL     1      -4.358  -3.267  -0.665  0.00  0.00    +0.000 A 
ATOM      7  C   UNL     1      -3.746  -2.040  -0.384  0.00  0.00    +0.000 A 
ATOM      8 CL   UNL     1      -5.683  -5.019  -2.238  0.00  0.00    +0.000 Cl
ATOM      9  S   UNL     1      -4.143   0.090  -3.682  0.00  0.00    +0.000 S 
ATOM     10  C   UNL     1      -3.276   0.997  -2.430  0.00  0.00    +0.000 A 
ATOM     11  O   UNL     1      -2.859   2.131  -2.607  0.00  0.00    +0.000 OA
ENDROOT
BRANCH   1  12
ATOM     12  C   UNL     1      -2.464   0.724  -0.113  0.00  0.00    +0.000 C 
BRANCH  12  16
ATOM     13  C   UNL     1       1.556  -0.810   0.288  0.00  0.00    +0.000 A 
ATOM     14  C   UNL     1       1.196  -0.086  -0.847  0.00  0.00    +0.000 A 
ATOM     15  C   UNL     1      -0.102   0.410  -0.977  0.00  0.00    +0.000 A 
ATOM     16  C   UNL     1      -1.058   0.182   0.024  0.00  0.00    +0.000 A 
ATOM     17  C   UNL     1      -0.678  -0.535   1.168  0.00  0.00    +0.000 A 
ATOM     18  C   UNL     1       0.621  -1.032   1.296  0.00  0.00    +0.000 A 
ENDBRANCH  12  16
ENDBRANCH   1  12
TORSDOF 2
