REMARK  Name = *****
REMARK  6 active torsions:
REMARK  status: ('A' for Active; 'I' for Inactive)
REMARK    1  A    between atoms: C_1  and  C_2
REMARK    2  A    between atoms: C_5  and  C_8
REMARK    3  A    between atoms: C_8  and  O_10
REMARK    4  A    between atoms: O_10  and  C_11
REMARK    5  A    between atoms: C_12  and  C_18
REMARK    6  A    between atoms: C_14  and  C_17
REMARK                            x       y       z     vdW  Elec       q    Type
REMARK                         _______ _______ _______ _____ _____    ______ ____
ROOT
ATOM      1  C   UNL     1      -4.157   2.147  -1.614  0.00  0.00    +0.000 C 
ATOM      2  O   UNL     1      -4.438   3.237  -1.139  0.00  0.00    +0.000 OA
ENDROOT
BRANCH   1   7
ATOM      3  C   UNL     1       0.789   1.326  -4.541  0.00  0.00    +0.000 C 
ATOM      4  C   UNL     1      -0.479   1.517  -3.761  0.00  0.00    +0.000 A 
ATOM      5  C   UNL     1      -0.824   2.780  -3.268  0.00  0.00    +0.000 A 
ATOM      6  C   UNL     1      -2.021   2.964  -2.570  0.00  0.00    +0.000 A 
ATOM      7  C   UNL     1      -2.896   1.889  -2.365  0.00  0.00    +0.000 A 
ATOM      8  C   UNL     1      -2.559   0.627  -2.871  0.00  0.00    +0.000 A 
ATOM      9  C   UNL     1      -1.360   0.446  -3.569  0.00  0.00    +0.000 A 
ENDBRANCH   1   7
BRANCH   1  10
ATOM     10  O   UNL     1      -4.907   0.988  -1.557  0.00  0.00    +0.000 OA
BRANCH  10  11
ATOM     11  C   UNL     1      -6.116   1.123  -0.863  0.00  0.00    +0.000 A 
ATOM     12  C   UNL     1      -6.236   0.561   0.413  0.00  0.00    +0.000 A 
ATOM     13  C   UNL     1      -7.470   0.667   1.070  0.00  0.00    +0.000 A 
ATOM     14  C   UNL     1      -8.567   1.288   0.452  0.00  0.00    +0.000 A 
ATOM     15  C   UNL     1      -8.417   1.832  -0.830  0.00  0.00    +0.000 A 
ATOM     16  C   UNL     1      -7.196   1.739  -1.495  0.00  0.00    +0.000 A 
ATOM     17  C   UNL     1      -9.869   1.425   1.185  0.00  0.00    +0.000 C 
ATOM     18  C   UNL     1      -5.072  -0.109   1.080  0.00  0.00    +0.000 C 
ENDBRANCH  10  11
ENDBRANCH   1  10
TORSDOF 3
