REMARK  Name = *****
REMARK  4 active torsions:
REMARK  status: ('A' for Active; 'I' for Inactive)
REMARK    1  A    between atoms: C_4  and  C_7
REMARK    2  A    between atoms: C_7  and  O_8
REMARK    3  A    between atoms: O_8  and  C_9
REMARK    4  A    between atoms: C_9  and  C_11
REMARK                            x       y       z     vdW  Elec       q    Type
REMARK                         _______ _______ _______ _____ _____    ______ ____
ROOT
ATOM      1  C   UNL     1      -4.966  -0.671  -0.519  0.00  0.00    +0.000 C 
ATOM      2  O   UNL     1      -5.537   0.362  -0.832  0.00  0.00    +0.000 OA
ENDROOT
BRANCH   1   3
ATOM      3  C   UNL     1      -5.645  -1.994  -0.487  0.00  0.00    +0.000 A 
ATOM      4  C   UNL     1      -4.980  -3.172  -0.128  0.00  0.00    +0.000 A 
ATOM      5  C   UNL     1      -5.674  -4.377  -0.133  0.00  0.00    +0.000 A 
ATOM      6  C   UNL     1      -7.018  -4.437  -0.487  0.00  0.00    +0.000 A 
ATOM      7  C   UNL     1      -7.687  -3.269  -0.844  0.00  0.00    +0.000 A 
ATOM      8  C   UNL     1      -7.003  -2.051  -0.844  0.00  0.00    +0.000 A 
ATOM      9  F   UNL     1      -5.034  -5.504   0.206  0.00  0.00    +0.000 F 
ENDBRANCH   1   3
BRANCH   1  10
ATOM     10  O   UNL     1      -3.663  -0.796  -0.178  0.00  0.00    +0.000 OA
BRANCH  10  11
ATOM     11  C   UNL     1      -2.882   0.405  -0.218  0.00  0.00    +0.000 C 
BRANCH  11  15
ATOM     12  C   UNL     1      -1.428   1.306   3.739  0.00  0.00    +0.000 A 
ATOM     13  C   UNL     1      -0.649   0.546   2.869  0.00  0.00    +0.000 A 
ATOM     14  C   UNL     1      -1.121   0.246   1.589  0.00  0.00    +0.000 A 
ATOM     15  C   UNL     1      -2.373   0.713   1.166  0.00  0.00    +0.000 A 
ATOM     16  C   UNL     1      -3.155   1.461   2.057  0.00  0.00    +0.000 A 
ATOM     17  C   UNL     1      -2.682   1.760   3.336  0.00  0.00    +0.000 A 
ENDBRANCH  11  15
ENDBRANCH  10  11
ENDBRANCH   1  10
TORSDOF 4
