REMARK  Name = *****
REMARK  2 active torsions:
REMARK  status: ('A' for Active; 'I' for Inactive)
REMARK    1  A    between atoms: C_6  and  S_9
REMARK    2  A    between atoms: S_9  and  C_10
REMARK                            x       y       z     vdW  Elec       q    Type
REMARK                         _______ _______ _______ _____ _____    ______ ____
ROOT
ATOM      1  C   UNL     1      -0.976  -0.754  -0.770  0.00  0.00    +0.000 C 
ATOM      2  C   UNL     1      -1.172   0.758  -0.606  0.00  0.00    +0.000 C 
ATOM      3  C   UNL     1      -0.176   1.121   0.510  0.00  0.00    +0.000 C 
ATOM      4  C   UNL     1      -0.229  -0.128   1.392  0.00  0.00    +0.000 C 
ATOM      5  C   UNL     1       0.141  -1.069   0.245  0.00  0.00    +0.000 C 
ATOM      6  C   UNL     1       1.471  -0.468  -0.294  0.00  0.00    +0.000 C 
ATOM      7  C   UNL     1       1.261   1.061  -0.058  0.00  0.00    +0.000 C 
ATOM      8 CL   UNL     1       2.382   1.860   1.080  0.00  0.00    +0.000 Cl
ENDROOT
BRANCH   6   9
ATOM      9  S   UNL     1       2.894  -1.318   0.496  0.00  0.00    +0.000 S 
BRANCH   9  10
ATOM     10  C   UNL     1       4.209  -0.814  -0.599  0.00  0.00    +0.000 A 
ATOM     11  C   UNL     1       5.254  -0.029  -0.103  0.00  0.00    +0.000 A 
ATOM     12  C   UNL     1       6.298   0.368  -0.942  0.00  0.00    +0.000 A 
ATOM     13  C   UNL     1       6.309  -0.029  -2.278  0.00  0.00    +0.000 A 
ATOM     14  C   UNL     1       5.280  -0.827  -2.774  0.00  0.00    +0.000 A 
ATOM     15  C   UNL     1       4.235  -1.223  -1.936  0.00  0.00    +0.000 A 
ENDBRANCH   9  10
ENDBRANCH   6   9
TORSDOF 2
