REMARK  Name = *****
REMARK  3 active torsions:
REMARK  status: ('A' for Active; 'I' for Inactive)
REMARK    1  A    between atoms: C_6  and  N_7
REMARK    2  A    between atoms: N_7  and  N_8
REMARK    3  A    between atoms: N_8  and  C_10
REMARK                            x       y       z     vdW  Elec       q    Type
REMARK                         _______ _______ _______ _____ _____    ______ ____
ROOT
ATOM      1  N   UNL     1      -3.334   0.351  -0.021  0.00  0.00    +0.000 N 
ATOM      2  H   UNL     1      -3.812  -0.480  -0.246  0.00  0.00    +0.000 HD
ENDROOT
BRANCH   1   8
ATOM      3  C   UNL     1      -1.355  -0.955  -0.482  0.00  0.00    +0.000 A 
ATOM      4  C   UNL     1       0.032  -1.122  -0.517  0.00  0.00    +0.000 A 
ATOM      5  C   UNL     1       0.854  -0.083  -0.106  0.00  0.00    +0.000 A 
ATOM      6  C   UNL     1       0.313   1.114   0.339  0.00  0.00    +0.000 A 
ATOM      7  C   UNL     1      -1.077   1.276   0.371  0.00  0.00    +0.000 A 
ATOM      8  C   UNL     1      -1.934   0.250  -0.043  0.00  0.00    +0.000 A 
ATOM      9  F   UNL     1       2.184  -0.239  -0.137  0.00  0.00    +0.000 F 
ENDBRANCH   1   8
BRANCH   1  10
ATOM     10  N   UNL     1      -4.174   1.458   0.275  0.00  0.00    +0.000 N 
ATOM     11  O   UNL     1      -3.731   2.558   0.536  0.00  0.00    +0.000 OA
BRANCH  10  12
ATOM     12  C   UNL     1      -5.614   1.301   0.215  0.00  0.00    +0.000 A 
ATOM     13  C   UNL     1      -6.217   0.143   0.725  0.00  0.00    +0.000 A 
ATOM     14  C   UNL     1      -7.604   0.005   0.654  0.00  0.00    +0.000 A 
ATOM     15  C   UNL     1      -8.369   1.019   0.083  0.00  0.00    +0.000 A 
ATOM     16  C   UNL     1      -7.776   2.175  -0.416  0.00  0.00    +0.000 A 
ATOM     17  C   UNL     1      -6.391   2.322  -0.348  0.00  0.00    +0.000 A 
ATOM     18  F   UNL     1      -9.699   0.880   0.017  0.00  0.00    +0.000 F 
ENDBRANCH  10  12
ENDBRANCH   1  10
TORSDOF 3
