REMARK  Name = *****
REMARK  2 active torsions:
REMARK  status: ('A' for Active; 'I' for Inactive)
REMARK    1  A    between atoms: C_4  and  C_7
REMARK    2  A    between atoms: C_7  and  N_8
REMARK                            x       y       z     vdW  Elec       q    Type
REMARK                         _______ _______ _______ _____ _____    ______ ____
ROOT
ATOM      1  N   UNL     1      -3.895  -0.783  -0.210  0.00  0.00    +0.000 NA
ATOM      2  S   UNL     1      -4.133  -1.418  -1.736  0.00  0.00    +0.000 S 
ATOM      3  C   UNL     1      -5.209  -2.752  -1.302  0.00  0.00    +0.000 A 
ATOM      4  C   UNL     1      -5.916  -3.553  -2.191  0.00  0.00    +0.000 A 
ATOM      5  C   UNL     1      -6.723  -4.576  -1.687  0.00  0.00    +0.000 A 
ATOM      6  C   UNL     1      -6.812  -4.788  -0.306  0.00  0.00    +0.000 A 
ATOM      7  C   UNL     1      -6.094  -3.980   0.579  0.00  0.00    +0.000 A 
ATOM      8  C   UNL     1      -5.297  -2.964   0.067  0.00  0.00    +0.000 A 
ATOM      9  S   UNL     1      -4.308  -1.844   1.013  0.00  0.00    +0.000 S 
ENDROOT
BRANCH   1  10
ATOM     10  C   UNL     1      -2.966   0.331   0.022  0.00  0.00    +0.000 C 
BRANCH  10  14
ATOM     11  C   UNL     1       1.213  -0.771   0.043  0.00  0.00    +0.000 A 
ATOM     12  C   UNL     1       0.604  -0.370  -1.144  0.00  0.00    +0.000 A 
ATOM     13  C   UNL     1      -0.746  -0.015  -1.152  0.00  0.00    +0.000 A 
ATOM     14  C   UNL     1      -1.501  -0.054   0.030  0.00  0.00    +0.000 A 
ATOM     15  C   UNL     1      -0.876  -0.466   1.217  0.00  0.00    +0.000 A 
ATOM     16  C   UNL     1       0.473  -0.821   1.223  0.00  0.00    +0.000 A 
ENDBRANCH  10  14
ENDBRANCH   1  10
TORSDOF 2
