REMARK  Name = *****
REMARK  4 active torsions:
REMARK  status: ('A' for Active; 'I' for Inactive)
REMARK    1  A    between atoms: C_3  and  O_10
REMARK    2  A    between atoms: C_6  and  C_7
REMARK    3  A    between atoms: O_10  and  C_11
REMARK    4  A    between atoms: C_11  and  C_12
REMARK                            x       y       z     vdW  Elec       q    Type
REMARK                         _______ _______ _______ _____ _____    ______ ____
ROOT
ATOM      1  O   UNL     1      -1.404  -2.167  -0.608  0.00  0.00    +0.000 OA
ENDROOT
BRANCH   1   4
ATOM      2  C   UNL     1       0.010   1.167  -0.344  0.00  0.00    +0.000 A 
ATOM      3  C   UNL     1      -0.832   0.088  -0.634  0.00  0.00    +0.000 A 
ATOM      4  C   UNL     1      -0.488  -1.214  -0.261  0.00  0.00    +0.000 A 
ATOM      5  C   UNL     1       0.713  -1.433   0.412  0.00  0.00    +0.000 A 
ATOM      6  C   UNL     1       1.559  -0.356   0.706  0.00  0.00    +0.000 A 
ATOM      7  C   UNL     1       1.217   0.952   0.330  0.00  0.00    +0.000 A 
BRANCH   7   8
ATOM      8  C   UNL     1       2.156   2.074   0.665  0.00  0.00    +0.000 C 
ATOM      9  O   UNL     1       3.190   1.782   1.265  0.00  0.00    +0.000 OA
ATOM     10 CL   UNL     1       1.756   3.715   0.202  0.00  0.00    +0.000 Cl
ENDBRANCH   7   8
ENDBRANCH   1   4
BRANCH   1  11
ATOM     11  C   UNL     1      -1.092  -3.523  -0.279  0.00  0.00    +0.000 C 
BRANCH  11  12
ATOM     12  C   UNL     1      -2.185  -4.473  -0.734  0.00  0.00    +0.000 A 
ATOM     13  C   UNL     1      -2.046  -5.862  -0.549  0.00  0.00    +0.000 A 
ATOM     14  C   UNL     1      -3.045  -6.747  -0.961  0.00  0.00    +0.000 A 
ATOM     15  C   UNL     1      -4.193  -6.247  -1.558  0.00  0.00    +0.000 A 
ATOM     16  C   UNL     1      -4.362  -4.883  -1.752  0.00  0.00    +0.000 A 
ATOM     17  C   UNL     1      -3.363  -3.998  -1.341  0.00  0.00    +0.000 A 
ATOM     18  F   UNL     1      -5.153  -7.093  -1.953  0.00  0.00    +0.000 F 
ATOM     19 CL   UNL     1      -0.639  -6.538   0.196  0.00  0.00    +0.000 Cl
ENDBRANCH  11  12
ENDBRANCH   1  11
TORSDOF 4
