REMARK  Name = *****
REMARK  4 active torsions:
REMARK  status: ('A' for Active; 'I' for Inactive)
REMARK    1  A    between atoms: C_1  and  C_2
REMARK    2  A    between atoms: C_2  and  C_3
REMARK    3  A    between atoms: C_2  and  C_9
REMARK    4  A    between atoms: C_9  and  C_10
REMARK                            x       y       z     vdW  Elec       q    Type
REMARK                         _______ _______ _______ _____ _____    ______ ____
ROOT
ATOM      1  C   UNL     1       0.451  -0.081  -0.635  0.00  0.00    +0.000 C 
ATOM      2  C   UNL     1       1.936  -0.098  -0.243  0.00  0.00    +0.000 C 
ENDROOT
BRANCH   2   3
ATOM      3  C   UNL     1       2.685  -1.251  -0.907  0.00  0.00    +0.000 A 
ATOM      4  C   UNL     1       2.603  -1.500  -2.285  0.00  0.00    +0.000 A 
ATOM      5  C   UNL     1       3.319  -2.550  -2.864  0.00  0.00    +0.000 A 
ATOM      6  C   UNL     1       4.128  -3.364  -2.075  0.00  0.00    +0.000 A 
ATOM      7  C   UNL     1       4.225  -3.127  -0.707  0.00  0.00    +0.000 A 
ATOM      8  C   UNL     1       3.511  -2.077  -0.126  0.00  0.00    +0.000 A 
ENDBRANCH   2   3
BRANCH   2   9
ATOM      9  C   UNL     1       2.693   1.242  -0.432  0.00  0.00    +0.000 C 
ATOM     10 BR   UNL     1       2.142   2.535   0.957  0.00  0.00    +0.000 Br
BRANCH   9  11
ATOM     11  C   UNL     1       2.647   1.903  -1.795  0.00  0.00    +0.000 A 
ATOM     12  C   UNL     1       1.516   2.582  -2.278  0.00  0.00    +0.000 A 
ATOM     13  C   UNL     1       1.514   3.158  -3.551  0.00  0.00    +0.000 A 
ATOM     14  C   UNL     1       2.640   3.063  -4.364  0.00  0.00    +0.000 A 
ATOM     15  C   UNL     1       3.770   2.393  -3.905  0.00  0.00    +0.000 A 
ATOM     16  C   UNL     1       3.773   1.818  -2.632  0.00  0.00    +0.000 A 
ENDBRANCH   9  11
ENDBRANCH   2   9
TORSDOF 3
