REMARK  Name = *****
REMARK  1 active torsions:
REMARK  status: ('A' for Active; 'I' for Inactive)
REMARK    1  A    between atoms: C_5  and  C_7
REMARK                            x       y       z     vdW  Elec       q    Type
REMARK                         _______ _______ _______ _____ _____    ______ ____
ROOT
ATOM      1  C   UNL     1       0.878  -2.525  -0.093  0.00  0.00    +0.000 A 
ATOM      2  N   UNL     1       0.745  -3.453  -1.028  0.00  0.00    +0.000 NA
ATOM      3  C   UNL     1       1.593  -4.453  -0.625  0.00  0.00    +0.000 A 
ATOM      4  C   UNL     1       2.214  -4.091   0.558  0.00  0.00    +0.000 A 
ATOM      5  O   UNL     1       1.760  -2.855   0.906  0.00  0.00    +0.000 OA
ATOM      6  C   UNL     1       3.136  -4.873   1.242  0.00  0.00    +0.000 A 
ATOM      7  C   UNL     1       3.430  -6.110   0.656  0.00  0.00    +0.000 A 
ATOM      8  C   UNL     1       2.820  -6.509  -0.541  0.00  0.00    +0.000 A 
ATOM      9  C   UNL     1       1.893  -5.693  -1.203  0.00  0.00    +0.000 A 
ATOM     10 CL   UNL     1       3.220  -8.042  -1.218  0.00  0.00    +0.000 Cl
ENDROOT
BRANCH   1  15
ATOM     11  C   UNL     1      -1.375   0.367  -0.947  0.00  0.00    +0.000 A 
ATOM     12  C   UNL     1      -1.109   1.262   0.086  0.00  0.00    +0.000 A 
ATOM     13  C   UNL     1      -0.187   0.921   1.073  0.00  0.00    +0.000 A 
ATOM     14  C   UNL     1       0.465  -0.313   1.025  0.00  0.00    +0.000 A 
ATOM     15  C   UNL     1       0.215  -1.229  -0.003  0.00  0.00    +0.000 A 
ATOM     16  C   UNL     1      -0.718  -0.867  -0.991  0.00  0.00    +0.000 A 
ATOM     17  F   UNL     1       1.343  -0.586   2.001  0.00  0.00    +0.000 F 
ENDBRANCH   1  15
TORSDOF 1
