REMARK  Name = *****
REMARK  4 active torsions:
REMARK  status: ('A' for Active; 'I' for Inactive)
REMARK    1  A    between atoms: C_1  and  C_2
REMARK    2  A    between atoms: C_2  and  C_4
REMARK    3  A    between atoms: C_7  and  C_10
REMARK    4  A    between atoms: C_11  and  C_12
REMARK                            x       y       z     vdW  Elec       q    Type
REMARK                         _______ _______ _______ _____ _____    ______ ____
ROOT
ATOM      1  C   UNL     1       3.331  -1.206  -0.333  0.00  0.00    +0.000 A 
ATOM      2  C   UNL     1       2.890  -1.957  -1.428  0.00  0.00    +0.000 A 
ATOM      3  C   UNL     1       3.601  -3.092  -1.837  0.00  0.00    +0.000 A 
ATOM      4  C   UNL     1       4.769  -3.488  -1.172  0.00  0.00    +0.000 A 
ATOM      5  C   UNL     1       5.199  -2.738  -0.070  0.00  0.00    +0.000 A 
ATOM      6  C   UNL     1       4.490  -1.605   0.344  0.00  0.00    +0.000 A 
ENDROOT
BRANCH   1   8
ATOM      7  C   UNL     1       1.360   0.447  -0.578  0.00  0.00    +0.000 C 
ATOM      8  C   UNL     1       2.602   0.004   0.150  0.00  0.00    +0.000 C 
ATOM      9  O   UNL     1       3.019   0.621   1.129  0.00  0.00    +0.000 OA
ENDBRANCH   1   8
BRANCH   4  10
ATOM     10  C   UNL     1       5.516  -4.701  -1.540  0.00  0.00    +0.000 C 
ATOM     11  C   UNL     1       5.615  -5.180  -2.792  0.00  0.00    +0.000 C 
BRANCH  11  12
ATOM     12  C   UNL     1       6.349  -6.402  -3.160  0.00  0.00    +0.000 A 
ATOM     13  C   UNL     1       6.446  -7.510  -2.307  0.00  0.00    +0.000 A 
ATOM     14  C   UNL     1       7.114  -8.668  -2.714  0.00  0.00    +0.000 A 
ATOM     15  C   UNL     1       7.683  -8.736  -3.984  0.00  0.00    +0.000 A 
ATOM     16  C   UNL     1       7.581  -7.649  -4.848  0.00  0.00    +0.000 A 
ATOM     17  C   UNL     1       6.914  -6.491  -4.439  0.00  0.00    +0.000 A 
ENDBRANCH  11  12
ENDBRANCH   4  10
TORSDOF 3
