REMARK  Name = *****
REMARK  4 active torsions:
REMARK  status: ('A' for Active; 'I' for Inactive)
REMARK    1  A    between atoms: C_1  and  C_2
REMARK    2  A    between atoms: C_4  and  C_8
REMARK    3  A    between atoms: C_9  and  S_10
REMARK    4  A    between atoms: S_10  and  C_11
REMARK                            x       y       z     vdW  Elec       q    Type
REMARK                         _______ _______ _______ _____ _____    ______ ____
ROOT
ATOM      1  C   UNL     1      -2.148   2.283   0.525  0.00  0.00    +0.000 C 
ATOM      2  C   UNL     1      -1.746   3.494   0.938  0.00  0.00    +0.000 C 
ENDROOT
BRANCH   1   6
ATOM      3  C   UNL     1       2.274   0.184  -0.648  0.00  0.00    +0.000 C 
ATOM      4  C   UNL     1       0.862   0.066  -0.155  0.00  0.00    +0.000 A 
ATOM      5  C   UNL     1       0.049   1.205  -0.053  0.00  0.00    +0.000 A 
ATOM      6  C   UNL     1      -1.261   1.115   0.440  0.00  0.00    +0.000 A 
ATOM      7  C   UNL     1      -1.757  -0.138   0.817  0.00  0.00    +0.000 A 
ATOM      8  C   UNL     1      -0.950  -1.274   0.735  0.00  0.00    +0.000 A 
ATOM      9  C   UNL     1       0.357  -1.171   0.259  0.00  0.00    +0.000 A 
ENDBRANCH   1   6
BRANCH   2  10
ATOM     10  S   UNL     1      -2.858   4.822   1.025  0.00  0.00    +0.000 S 
BRANCH  10  11
ATOM     11  C   UNL     1      -1.779   6.050   1.736  0.00  0.00    +0.000 A 
ATOM     12  C   UNL     1      -1.172   7.008   0.918  0.00  0.00    +0.000 A 
ATOM     13  C   UNL     1      -0.331   7.974   1.472  0.00  0.00    +0.000 A 
ATOM     14  C   UNL     1      -0.095   7.990   2.846  0.00  0.00    +0.000 A 
ATOM     15  C   UNL     1      -0.703   7.042   3.669  0.00  0.00    +0.000 A 
ATOM     16  C   UNL     1      -1.546   6.076   3.116  0.00  0.00    +0.000 A 
ENDBRANCH  10  11
ENDBRANCH   2  10
TORSDOF 3
