REMARK  Name = *****
REMARK  5 active torsions:
REMARK  status: ('A' for Active; 'I' for Inactive)
REMARK    1  A    between atoms: C_1  and  N_2
REMARK    2  A    between atoms: N_2  and  C_3
REMARK    3  A    between atoms: N_2  and  C_4
REMARK    4  A    between atoms: C_7  and  C_10
REMARK    5  A    between atoms: C_11  and  C_12
REMARK                            x       y       z     vdW  Elec       q    Type
REMARK                         _______ _______ _______ _____ _____    ______ ____
ROOT
ATOM      1  C   UNL     1       4.496  -3.866  -3.763  0.00  0.00    +0.000 C 
ATOM      2  C   UNL     1       4.895  -4.736  -4.490  0.00  0.00    +0.000 C 
ENDROOT
BRANCH   2   3
ATOM      3  C   UNL     1       5.368  -5.772  -5.353  0.00  0.00    +0.000 A 
ATOM      4  C   UNL     1       6.431  -5.544  -6.227  0.00  0.00    +0.000 A 
ATOM      5  C   UNL     1       6.898  -6.551  -7.073  0.00  0.00    +0.000 A 
ATOM      6  C   UNL     1       6.299  -7.810  -7.052  0.00  0.00    +0.000 A 
ATOM      7  C   UNL     1       5.236  -8.052  -6.182  0.00  0.00    +0.000 A 
ATOM      8  C   UNL     1       4.779  -7.036  -5.342  0.00  0.00    +0.000 A 
ATOM      9  F   UNL     1       3.754  -7.302  -4.518  0.00  0.00    +0.000 F 
ATOM     10  F   UNL     1       7.029  -4.344  -6.273  0.00  0.00    +0.000 F 
ENDBRANCH   2   3
BRANCH   1  14
ATOM     11  C   UNL     1       3.064  -0.773  -1.167  0.00  0.00    +0.000 A 
ATOM     12  C   UNL     1       2.486  -1.020  -2.426  0.00  0.00    +0.000 A 
ATOM     13  C   UNL     1       2.948  -2.034  -3.279  0.00  0.00    +0.000 A 
ATOM     14  C   UNL     1       4.021  -2.831  -2.899  0.00  0.00    +0.000 A 
ATOM     15  C   UNL     1       4.630  -2.606  -1.670  0.00  0.00    +0.000 A 
ATOM     16  C   UNL     1       4.159  -1.589  -0.826  0.00  0.00    +0.000 A 
BRANCH  11  18
ATOM     17  C   UNL     1       1.261   0.785  -0.544  0.00  0.00    +0.000 C 
ATOM     18  N   UNL     1       2.606   0.252  -0.330  0.00  0.00    +0.000 N 
ATOM     19  C   UNL     1       3.106   0.333   1.041  0.00  0.00    +0.000 C 
ENDBRANCH  11  18
ENDBRANCH   1  14
TORSDOF 3
