REMARK  Name = *****
REMARK  4 active torsions:
REMARK  status: ('A' for Active; 'I' for Inactive)
REMARK    1  A    between atoms: C_1  and  C_2
REMARK    2  A    between atoms: C_5  and  C_8
REMARK    3  A    between atoms: C_8  and  C_16
REMARK    4  A    between atoms: N_9  and  C_10
REMARK                            x       y       z     vdW  Elec       q    Type
REMARK                         _______ _______ _______ _____ _____    ______ ____
ROOT
ATOM      1  C   UNL     1      -3.281  -0.020  -0.131  0.00  0.00    +0.000 C 
ATOM      2  N   UNL     1      -3.935  -1.097   0.193  0.00  0.00    +0.000 NA
ATOM      3  C   UNL     1      -4.067   1.270  -0.203  0.00  0.00    +0.000 C 
ENDROOT
BRANCH   1   8
ATOM      4  C   UNL     1       2.355   0.455  -1.326  0.00  0.00    +0.000 C 
ATOM      5  C   UNL     1       0.898   0.309  -0.998  0.00  0.00    +0.000 A 
ATOM      6  C   UNL     1       0.076  -0.506  -1.788  0.00  0.00    +0.000 A 
ATOM      7  C   UNL     1      -1.287  -0.623  -1.506  0.00  0.00    +0.000 A 
ATOM      8  C   UNL     1      -1.832   0.080  -0.430  0.00  0.00    +0.000 A 
ATOM      9  C   UNL     1      -1.028   0.913   0.352  0.00  0.00    +0.000 A 
ATOM     10  C   UNL     1       0.334   1.028   0.064  0.00  0.00    +0.000 A 
ENDBRANCH   1   8
BRANCH   2  11
ATOM     11  C   UNL     1      -3.284  -2.329   0.340  0.00  0.00    +0.000 A 
ATOM     12  C   UNL     1      -2.442  -2.585   1.426  0.00  0.00    +0.000 A 
ATOM     13  C   UNL     1      -1.823  -3.829   1.565  0.00  0.00    +0.000 A 
ATOM     14  C   UNL     1      -2.058  -4.833   0.627  0.00  0.00    +0.000 A 
ATOM     15  C   UNL     1      -2.918  -4.596  -0.444  0.00  0.00    +0.000 A 
ATOM     16  C   UNL     1      -3.534  -3.350  -0.580  0.00  0.00    +0.000 A 
ENDBRANCH   2  11
TORSDOF 2
