REMARK  Name = *****
REMARK  5 active torsions:
REMARK  status: ('A' for Active; 'I' for Inactive)
REMARK    1  A    between atoms: C_1  and  N_2
REMARK    2  A    between atoms: N_2  and  C_3
REMARK    3  A    between atoms: N_2  and  C_4
REMARK    4  A    between atoms: C_7  and  C_10
REMARK    5  A    between atoms: C_11  and  C_12
REMARK                            x       y       z     vdW  Elec       q    Type
REMARK                         _______ _______ _______ _____ _____    ______ ____
ROOT
ATOM      1  C   UNL     1       4.925   5.038  -1.197  0.00  0.00    +0.000 C 
ATOM      2  C   UNL     1       5.339   6.125  -1.495  0.00  0.00    +0.000 C 
ENDROOT
BRANCH   2   3
ATOM      3  C   UNL     1       5.767   7.444  -1.846  0.00  0.00    +0.000 A 
ATOM      4  C   UNL     1       6.849   7.631  -2.706  0.00  0.00    +0.000 A 
ATOM      5  C   UNL     1       7.232   8.925  -3.052  0.00  0.00    +0.000 A 
ATOM      6  C   UNL     1       6.558  10.033  -2.557  0.00  0.00    +0.000 A 
ATOM      7  C   UNL     1       5.485   9.832  -1.700  0.00  0.00    +0.000 A 
ATOM      8  C   UNL     1       5.082   8.550  -1.338  0.00  0.00    +0.000 A 
ATOM      9  F   UNL     1       4.823  10.890  -1.215  0.00  0.00    +0.000 F 
ATOM     10  F   UNL     1       8.268   9.103  -3.883  0.00  0.00    +0.000 F 
ENDBRANCH   2   3
BRANCH   1  14
ATOM     11  C   UNL     1       3.176   1.266  -0.179  0.00  0.00    +0.000 A 
ATOM     12  C   UNL     1       2.693   2.481   0.340  0.00  0.00    +0.000 A 
ATOM     13  C   UNL     1       3.270   3.716   0.015  0.00  0.00    +0.000 A 
ATOM     14  C   UNL     1       4.364   3.772  -0.841  0.00  0.00    +0.000 A 
ATOM     15  C   UNL     1       4.888   2.590  -1.351  0.00  0.00    +0.000 A 
ATOM     16  C   UNL     1       4.304   1.358  -1.016  0.00  0.00    +0.000 A 
BRANCH  11  18
ATOM     17  C   UNL     1       1.140   0.047   0.415  0.00  0.00    +0.000 C 
ATOM     18  N   UNL     1       2.582   0.043   0.159  0.00  0.00    +0.000 N 
ATOM     19  C   UNL     1       3.113  -1.194  -0.408  0.00  0.00    +0.000 C 
ENDBRANCH  11  18
ENDBRANCH   1  14
TORSDOF 3
