REMARK  Name = *****
REMARK  3 active torsions:
REMARK  status: ('A' for Active; 'I' for Inactive)
REMARK    1  A    between atoms: C_3  and  C_17
REMARK    2  A    between atoms: C_6  and  C_7
REMARK    3  A    between atoms: C_8  and  C_9
REMARK                            x       y       z     vdW  Elec       q    Type
REMARK                         _______ _______ _______ _____ _____    ______ ____
ROOT
ATOM      1  C   UNL     1       1.801   2.198  -0.355  0.00  0.00    +0.000 C 
ATOM      2  C   UNL     1       3.139   2.092  -0.408  0.00  0.00    +0.000 C 
ENDROOT
BRANCH   2   3
ATOM      3  C   UNL     1       4.045   3.237  -0.578  0.00  0.00    +0.000 A 
ATOM      4  C   UNL     1       3.817   4.471   0.047  0.00  0.00    +0.000 A 
ATOM      5  C   UNL     1       4.718   5.531  -0.116  0.00  0.00    +0.000 A 
ATOM      6  C   UNL     1       5.863   5.360  -0.900  0.00  0.00    +0.000 A 
ATOM      7  C   UNL     1       6.105   4.128  -1.511  0.00  0.00    +0.000 A 
ATOM      8  C   UNL     1       5.204   3.072  -1.346  0.00  0.00    +0.000 A 
ATOM      9 CL   UNL     1       7.017   6.622  -1.147  0.00  0.00    +0.000 Cl
ATOM     10 CL   UNL     1       4.357   7.021   0.683  0.00  0.00    +0.000 Cl
ENDBRANCH   2   3
BRANCH   1  16
ATOM     11  C   UNL     1       1.110  -0.166  -0.854  0.00  0.00    +0.000 A 
ATOM     12  C   UNL     1       0.214  -1.227  -0.697  0.00  0.00    +0.000 A 
ATOM     13  C   UNL     1      -0.907  -1.074   0.121  0.00  0.00    +0.000 A 
ATOM     14  C   UNL     1      -1.139   0.135   0.778  0.00  0.00    +0.000 A 
ATOM     15  C   UNL     1      -0.240   1.194   0.617  0.00  0.00    +0.000 A 
ATOM     16  C   UNL     1       0.899   1.050  -0.189  0.00  0.00    +0.000 A 
BRANCH  13  17
ATOM     17  C   UNL     1      -1.860  -2.189   0.292  0.00  0.00    +0.000 C 
ATOM     18  O   UNL     1      -1.706  -3.269  -0.263  0.00  0.00    +0.000 OA
ENDBRANCH  13  17
ENDBRANCH   1  16
TORSDOF 3
