REMARK  Name = *****
REMARK  4 active torsions:
REMARK  status: ('A' for Active; 'I' for Inactive)
REMARK    1  A    between atoms: C_1  and  C_2
REMARK    2  A    between atoms: C_7  and  O_8
REMARK    3  A    between atoms: O_8  and  C_9
REMARK    4  A    between atoms: C_9  and  C_11
REMARK                            x       y       z     vdW  Elec       q    Type
REMARK                         _______ _______ _______ _____ _____    ______ ____
ROOT
ATOM      1  O   UNL     1       1.417  -1.939  -0.849  0.00  0.00    +0.000 OA
ENDROOT
BRANCH   1   8
ATOM      2  C   UNL     1       1.654   0.620  -2.101  0.00  0.00    +0.000 C 
ATOM      3  C   UNL     1       0.670   0.337  -1.004  0.00  0.00    +0.000 A 
ATOM      4  C   UNL     1      -0.183   1.345  -0.536  0.00  0.00    +0.000 A 
ATOM      5  C   UNL     1      -1.097   1.085   0.488  0.00  0.00    +0.000 A 
ATOM      6  C   UNL     1      -1.170  -0.186   1.058  0.00  0.00    +0.000 A 
ATOM      7  C   UNL     1      -0.321  -1.196   0.611  0.00  0.00    +0.000 A 
ATOM      8  C   UNL     1       0.607  -0.926  -0.397  0.00  0.00    +0.000 A 
ENDBRANCH   1   8
BRANCH   1   9
ATOM      9  C   UNL     1       2.549  -2.284  -0.117  0.00  0.00    +0.000 C 
ATOM     10  C   UNL     1       3.061  -1.593   0.918  0.00  0.00    +0.000 C 
BRANCH   9  11
ATOM     11  C   UNL     1       3.232  -3.491  -0.629  0.00  0.00    +0.000 A 
ATOM     12  C   UNL     1       3.706  -4.490   0.235  0.00  0.00    +0.000 A 
ATOM     13  C   UNL     1       4.343  -5.627  -0.269  0.00  0.00    +0.000 A 
ATOM     14  C   UNL     1       4.508  -5.784  -1.643  0.00  0.00    +0.000 A 
ATOM     15  C   UNL     1       4.033  -4.807  -2.515  0.00  0.00    +0.000 A 
ATOM     16  C   UNL     1       3.396  -3.670  -2.011  0.00  0.00    +0.000 A 
ENDBRANCH   9  11
ENDBRANCH   1   9
TORSDOF 3
