REMARK  Name = *****
REMARK  2 active torsions:
REMARK  status: ('A' for Active; 'I' for Inactive)
REMARK    1  A    between atoms: C_4  and  O_7
REMARK    2  A    between atoms: O_7  and  C_8
REMARK                            x       y       z     vdW  Elec       q    Type
REMARK                         _______ _______ _______ _____ _____    ______ ____
ROOT
ATOM      1  C   UNL     1      -4.501  -0.068  -0.834  0.00  0.00    +0.000 A 
ATOM      2  N   UNL     1      -5.627   0.530  -1.282  0.00  0.00    +0.000 NA
ATOM      3  C   UNL     1      -6.802  -0.066  -1.019  0.00  0.00    +0.000 A 
ATOM      4  C   UNL     1      -7.977   0.510  -1.482  0.00  0.00    +0.000 A 
ATOM      5  C   UNL     1      -9.226  -0.071  -1.241  0.00  0.00    +0.000 A 
ATOM      6  C   UNL     1      -9.311  -1.256  -0.519  0.00  0.00    +0.000 A 
ATOM      7  C   UNL     1      -8.149  -1.856  -0.040  0.00  0.00    +0.000 A 
ATOM      8  C   UNL     1      -6.895  -1.269  -0.285  0.00  0.00    +0.000 A 
ATOM      9  C   UNL     1      -5.708  -1.848   0.183  0.00  0.00    +0.000 A 
ATOM     10  C   UNL     1      -4.491  -1.235  -0.090  0.00  0.00    +0.000 A 
ENDROOT
BRANCH   1  11
ATOM     11  O   UNL     1      -3.261   0.522  -1.049  0.00  0.00    +0.000 OA
BRANCH  11  15
ATOM     12  C   UNL     1      -2.560   3.085  -4.257  0.00  0.00    +0.000 A 
ATOM     13  C   UNL     1      -3.325   1.938  -4.468  0.00  0.00    +0.000 A 
ATOM     14  C   UNL     1      -3.590   1.069  -3.408  0.00  0.00    +0.000 A 
ATOM     15  C   UNL     1      -3.107   1.360  -2.129  0.00  0.00    +0.000 A 
ATOM     16  C   UNL     1      -2.323   2.498  -1.926  0.00  0.00    +0.000 A 
ATOM     17  C   UNL     1      -2.055   3.364  -2.987  0.00  0.00    +0.000 A 
ENDBRANCH  11  15
ENDBRANCH   1  11
TORSDOF 2
