REMARK  Name = *****
REMARK  5 active torsions:
REMARK  status: ('A' for Active; 'I' for Inactive)
REMARK    1  A    between atoms: C_4  and  N_7
REMARK    2  A    between atoms: N_7  and  N_8
REMARK    3  A    between atoms: N_7  and  O_10
REMARK    4  A    between atoms: O_10  and  C_11
REMARK    5  A    between atoms: C_11  and  C_12
REMARK                            x       y       z     vdW  Elec       q    Type
REMARK                         _______ _______ _______ _____ _____    ______ ____
ROOT
ATOM      1  N   UNL     1       2.679  -0.244  -0.994  0.00  0.00    +0.000 NA
ENDROOT
BRANCH   1   5
ATOM      2  C   UNL     1      -0.481  -1.412   1.770  0.00  0.00    +0.000 C 
ATOM      3  C   UNL     1       0.645  -0.506   2.255  0.00  0.00    +0.000 C 
ATOM      4  C   UNL     1       1.857  -0.569   1.327  0.00  0.00    +0.000 C 
ATOM      5  C   UNL     1       1.475  -0.234  -0.130  0.00  0.00    +0.000 C 
ATOM      6  C   UNL     1       0.337  -1.163  -0.609  0.00  0.00    +0.000 C 
ATOM      7  C   UNL     1      -0.869  -1.101   0.328  0.00  0.00    +0.000 C 
ENDBRANCH   1   5
BRANCH   1   8
ATOM      8  N   UNL     1       2.473   0.272  -2.184  0.00  0.00    +0.000 NA
ATOM      9  O   UNL     1       3.523   0.326  -2.834  0.00  0.00    +0.000 OA
ENDBRANCH   1   8
BRANCH   1  10
ATOM     10  O   UNL     1       3.134  -1.634  -1.068  0.00  0.00    +0.000 OA
BRANCH  10  11
ATOM     11  C   UNL     1       4.501  -1.696  -0.655  0.00  0.00    +0.000 C 
BRANCH  11  12
ATOM     12  C   UNL     1       4.870  -3.144  -0.456  0.00  0.00    +0.000 A 
ATOM     13  C   UNL     1       5.028  -3.990  -1.563  0.00  0.00    +0.000 A 
ATOM     14  C   UNL     1       5.359  -5.334  -1.386  0.00  0.00    +0.000 A 
ATOM     15  C   UNL     1       5.529  -5.847  -0.101  0.00  0.00    +0.000 A 
ATOM     16  C   UNL     1       5.367  -5.017   1.007  0.00  0.00    +0.000 A 
ATOM     17  C   UNL     1       5.036  -3.672   0.832  0.00  0.00    +0.000 A 
ENDBRANCH  11  12
ENDBRANCH  10  11
ENDBRANCH   1  10
TORSDOF 5
