REMARK  Name = *****
REMARK  4 active torsions:
REMARK  status: ('A' for Active; 'I' for Inactive)
REMARK    1  A    between atoms: C_1  and  C_2
REMARK    2  A    between atoms: C_5  and  N_8
REMARK    3  A    between atoms: C_9  and  C_10
REMARK    4  A    between atoms: C_14  and  C_16
REMARK                            x       y       z     vdW  Elec       q    Type
REMARK                         _______ _______ _______ _____ _____    ______ ____
ROOT
ATOM      1  N   UNL     1      -3.269  -0.082   0.280  0.00  0.00    +0.000 NA
ATOM      2  C   UNL     1      -3.932   0.970  -0.084  0.00  0.00    +0.000 C 
ENDROOT
BRANCH   1   7
ATOM      3  C   UNL     1       2.414   0.166  -0.267  0.00  0.00    +0.000 C 
ATOM      4  C   UNL     1       0.920   0.131  -0.137  0.00  0.00    +0.000 A 
ATOM      5  C   UNL     1       0.297   0.633   1.011  0.00  0.00    +0.000 A 
ATOM      6  C   UNL     1      -1.092   0.566   1.148  0.00  0.00    +0.000 A 
ATOM      7  C   UNL     1      -1.876  -0.002   0.141  0.00  0.00    +0.000 A 
ATOM      8  C   UNL     1      -1.254  -0.530  -0.990  0.00  0.00    +0.000 A 
ATOM      9  C   UNL     1       0.135  -0.466  -1.131  0.00  0.00    +0.000 A 
ENDBRANCH   1   7
BRANCH   2  10
ATOM     10  C   UNL     1      -5.404   1.037   0.006  0.00  0.00    +0.000 A 
ATOM     11  C   UNL     1      -6.142  -0.052   0.473  0.00  0.00    +0.000 A 
ATOM     12  C   UNL     1      -7.531   0.039   0.556  0.00  0.00    +0.000 A 
ATOM     13  C   UNL     1      -8.180   1.213   0.169  0.00  0.00    +0.000 A 
ATOM     14  C   UNL     1      -7.448   2.306  -0.316  0.00  0.00    +0.000 A 
ATOM     15  C   UNL     1      -6.051   2.215  -0.384  0.00  0.00    +0.000 A 
ATOM     16  C   UNL     1      -8.147   3.578  -0.695  0.00  0.00    +0.000 C 
ENDBRANCH   2  10
TORSDOF 2
