REMARK  Name = *****
REMARK  2 active torsions:
REMARK  status: ('A' for Active; 'I' for Inactive)
REMARK    1  A    between atoms: C_4  and  C_7
REMARK    2  A    between atoms: C_8  and  C_9
REMARK                            x       y       z     vdW  Elec       q    Type
REMARK                         _______ _______ _______ _____ _____    ______ ____
ROOT
ATOM      1  C   UNL     1       2.910   0.198  -0.322  0.00  0.00    +0.000 C 
ATOM      2  C   UNL     1       4.102   0.251  -0.456  0.00  0.00    +0.000 C 
ENDROOT
BRANCH   2   3
ATOM      3  C   UNL     1       5.525   0.307  -0.618  0.00  0.00    +0.000 A 
ATOM      4  C   UNL     1       6.139   1.565  -0.676  0.00  0.00    +0.000 A 
ATOM      5  C   UNL     1       7.522   1.671  -0.835  0.00  0.00    +0.000 A 
ATOM      6  C   UNL     1       8.302   0.521  -0.939  0.00  0.00    +0.000 A 
ATOM      7  C   UNL     1       7.701  -0.737  -0.882  0.00  0.00    +0.000 A 
ATOM      8  C   UNL     1       6.315  -0.846  -0.722  0.00  0.00    +0.000 A 
ATOM      9 BR   UNL     1       5.571  -2.594  -0.655  0.00  0.00    +0.000 Br
ENDBRANCH   2   3
BRANCH   1  13
ATOM     10  C   UNL     1      -1.281  -0.050   0.135  0.00  0.00    +0.000 A 
ATOM     11  C   UNL     1      -0.661   1.198   0.062  0.00  0.00    +0.000 A 
ATOM     12  C   UNL     1       0.725   1.281  -0.088  0.00  0.00    +0.000 A 
ATOM     13  C   UNL     1       1.491   0.116  -0.166  0.00  0.00    +0.000 A 
ATOM     14  C   UNL     1       0.868  -1.133  -0.093  0.00  0.00    +0.000 A 
ATOM     15  C   UNL     1      -0.518  -1.215   0.057  0.00  0.00    +0.000 A 
ENDBRANCH   1  13
TORSDOF 2
