REMARK  Name = *****
REMARK  4 active torsions:
REMARK  status: ('A' for Active; 'I' for Inactive)
REMARK    1  A    between atoms: C_1  and  C_2
REMARK    2  A    between atoms: C_7  and  O_8
REMARK    3  A    between atoms: O_8  and  C_9
REMARK    4  A    between atoms: C_9  and  C_10
REMARK                            x       y       z     vdW  Elec       q    Type
REMARK                         _______ _______ _______ _____ _____    ______ ____
ROOT
ATOM      1  O   UNL     1       0.990  -2.324  -0.295  0.00  0.00    +0.000 OA
ENDROOT
BRANCH   1   8
ATOM      2  C   UNL     1       1.959  -0.053  -1.679  0.00  0.00    +0.000 C 
ATOM      3  C   UNL     1       0.884   0.033  -0.635  0.00  0.00    +0.000 A 
ATOM      4  C   UNL     1       0.310   1.269  -0.308  0.00  0.00    +0.000 A 
ATOM      5  C   UNL     1      -0.694   1.352   0.659  0.00  0.00    +0.000 A 
ATOM      6  C   UNL     1      -1.141   0.200   1.305  0.00  0.00    +0.000 A 
ATOM      7  C   UNL     1      -0.576  -1.035   0.992  0.00  0.00    +0.000 A 
ATOM      8  C   UNL     1       0.446  -1.112   0.043  0.00  0.00    +0.000 A 
ENDBRANCH   1   8
BRANCH   1   9
ATOM      9  C   UNL     1       1.758  -2.870   0.789  0.00  0.00    +0.000 C 
BRANCH   9  10
ATOM     10  C   UNL     1       2.600  -4.047   0.333  0.00  0.00    +0.000 A 
ATOM     11  C   UNL     1       2.545  -4.519  -0.990  0.00  0.00    +0.000 A 
ATOM     12  C   UNL     1       3.321  -5.606  -1.401  0.00  0.00    +0.000 A 
ATOM     13  C   UNL     1       4.165  -6.243  -0.496  0.00  0.00    +0.000 A 
ATOM     14  C   UNL     1       4.233  -5.792   0.821  0.00  0.00    +0.000 A 
ATOM     15  C   UNL     1       3.456  -4.704   1.233  0.00  0.00    +0.000 A 
ATOM     16 CL   UNL     1       3.591  -4.208   2.885  0.00  0.00    +0.000 Cl
ENDBRANCH   9  10
ENDBRANCH   1   9
TORSDOF 3
