REMARK  Name = *****
REMARK  6 active torsions:
REMARK  status: ('A' for Active; 'I' for Inactive)
REMARK    1  A    between atoms: C_1  and  C_2
REMARK    2  A    between atoms: C_5  and  S_8
REMARK    3  A    between atoms: S_8  and  O_10
REMARK    4  A    between atoms: O_10  and  C_11
REMARK    5  A    between atoms: C_11  and  C_12
REMARK    6  A    between atoms: C_11  and  C_13
REMARK                            x       y       z     vdW  Elec       q    Type
REMARK                         _______ _______ _______ _____ _____    ______ ____
ROOT
ATOM      1  S   UNL     1      -3.775  -0.399   0.023  0.00  0.00    +0.000 S 
ATOM      2  O   UNL     1      -4.130  -0.506   1.476  0.00  0.00    +0.000 OA
ENDROOT
BRANCH   1   7
ATOM      3  C   UNL     1       2.158   1.097  -0.241  0.00  0.00    +0.000 C 
ATOM      4  C   UNL     1       0.710   0.711  -0.176  0.00  0.00    +0.000 A 
ATOM      5  C   UNL     1       0.122   0.365   1.046  0.00  0.00    +0.000 A 
ATOM      6  C   UNL     1      -1.235   0.036   1.112  0.00  0.00    +0.000 A 
ATOM      7  C   UNL     1      -2.026   0.064  -0.041  0.00  0.00    +0.000 A 
ATOM      8  C   UNL     1      -1.441   0.421  -1.262  0.00  0.00    +0.000 A 
ATOM      9  C   UNL     1      -0.085   0.750  -1.327  0.00  0.00    +0.000 A 
ENDBRANCH   1   7
BRANCH   1  10
ATOM     10  O   UNL     1      -4.269   1.044  -0.498  0.00  0.00    +0.000 OA
BRANCH  10  11
ATOM     11  C   UNL     1      -5.669   1.306  -0.376  0.00  0.00    +0.000 C 
ATOM     12  C   UNL     1      -6.408   0.744  -1.593  0.00  0.00    +0.000 C 
BRANCH  11  13
ATOM     13  C   UNL     1      -5.885   2.809  -0.293  0.00  0.00    +0.000 A 
ATOM     14  C   UNL     1      -5.109   3.707  -1.043  0.00  0.00    +0.000 A 
ATOM     15  C   UNL     1      -5.342   5.082  -0.971  0.00  0.00    +0.000 A 
ATOM     16  C   UNL     1      -6.357   5.576  -0.155  0.00  0.00    +0.000 A 
ATOM     17  C   UNL     1      -7.140   4.698   0.591  0.00  0.00    +0.000 A 
ATOM     18  C   UNL     1      -6.907   3.323   0.522  0.00  0.00    +0.000 A 
ENDBRANCH  11  13
ENDBRANCH  10  11
ENDBRANCH   1  10
TORSDOF 4
