REMARK  Name = *****
REMARK  4 active torsions:
REMARK  status: ('A' for Active; 'I' for Inactive)
REMARK    1  A    between atoms: C_1  and  C_2
REMARK    2  A    between atoms: C_2  and  C_4
REMARK    3  A    between atoms: C_8  and  C_10
REMARK    4  A    between atoms: C_12  and  C_13
REMARK                            x       y       z     vdW  Elec       q    Type
REMARK                         _______ _______ _______ _____ _____    ______ ____
ROOT
ATOM      1  C   UNL     1       3.008   3.440  -0.693  0.00  0.00    +0.000 A 
ATOM      2  C   UNL     1       2.780   2.413   0.227  0.00  0.00    +0.000 A 
ATOM      3  C   UNL     1       3.780   1.476   0.484  0.00  0.00    +0.000 A 
ATOM      4  C   UNL     1       5.008   1.564  -0.174  0.00  0.00    +0.000 A 
ATOM      5  C   UNL     1       5.274   2.587  -1.097  0.00  0.00    +0.000 A 
ATOM      6  C   UNL     1       4.248   3.514  -1.348  0.00  0.00    +0.000 A 
ENDROOT
BRANCH   1   8
ATOM      7  C   UNL     1       0.659   4.433  -0.279  0.00  0.00    +0.000 C 
ATOM      8  C   UNL     1       1.973   4.467  -1.014  0.00  0.00    +0.000 C 
ATOM      9  O   UNL     1       2.199   5.322  -1.868  0.00  0.00    +0.000 OA
ENDBRANCH   1   8
BRANCH   5  10
ATOM     10  C   UNL     1       6.598   2.669  -1.820  0.00  0.00    +0.000 C 
ATOM     11  C   UNL     1       7.886   2.725  -1.040  0.00  0.00    +0.000 C 
ATOM     12  C   UNL     1       7.411   3.956  -1.767  0.00  0.00    +0.000 C 
BRANCH  12  13
ATOM     13  C   UNL     1       8.129   4.436  -3.007  0.00  0.00    +0.000 A 
ATOM     14  C   UNL     1       7.434   4.680  -4.203  0.00  0.00    +0.000 A 
ATOM     15  C   UNL     1       8.091   5.138  -5.348  0.00  0.00    +0.000 A 
ATOM     16  C   UNL     1       9.463   5.369  -5.317  0.00  0.00    +0.000 A 
ATOM     17  C   UNL     1      10.174   5.146  -4.142  0.00  0.00    +0.000 A 
ATOM     18  C   UNL     1       9.511   4.688  -3.000  0.00  0.00    +0.000 A 
ENDBRANCH  12  13
ENDBRANCH   5  10
TORSDOF 3
