REMARK  Name = *****
REMARK  3 active torsions:
REMARK  status: ('A' for Active; 'I' for Inactive)
REMARK    1  A    between atoms: C_1  and  C_2
REMARK    2  A    between atoms: C_5  and  C_8
REMARK    3  A    between atoms: N_9  and  C_10
REMARK                            x       y       z     vdW  Elec       q    Type
REMARK                         _______ _______ _______ _____ _____    ______ ____
ROOT
ATOM      1  C   UNL     1      -3.313   0.206  -0.209  0.00  0.00    +0.000 C 
ATOM      2  N   UNL     1      -3.986   1.217   0.245  0.00  0.00    +0.000 NA
ENDROOT
BRANCH   1   7
ATOM      3  C   UNL     1       2.450  -0.085   0.057  0.00  0.00    +0.000 C 
ATOM      4  C   UNL     1       0.955   0.008  -0.037  0.00  0.00    +0.000 A 
ATOM      5  C   UNL     1       0.284   1.130   0.468  0.00  0.00    +0.000 A 
ATOM      6  C   UNL     1      -1.109   1.205   0.413  0.00  0.00    +0.000 A 
ATOM      7  C   UNL     1      -1.840   0.151  -0.139  0.00  0.00    +0.000 A 
ATOM      8  C   UNL     1      -1.184  -0.979  -0.631  0.00  0.00    +0.000 A 
ATOM      9  C   UNL     1       0.211  -1.051  -0.574  0.00  0.00    +0.000 A 
ENDBRANCH   1   7
BRANCH   2  10
ATOM     10  C   UNL     1      -5.379   1.136   0.115  0.00  0.00    +0.000 A 
ATOM     11  C   UNL     1      -6.144   0.456   1.063  0.00  0.00    +0.000 A 
ATOM     12  C   UNL     1      -7.526   0.404   0.922  0.00  0.00    +0.000 A 
ATOM     13  C   UNL     1      -8.165   1.029  -0.144  0.00  0.00    +0.000 A 
ATOM     14  C   UNL     1      -7.408   1.725  -1.084  0.00  0.00    +0.000 A 
ATOM     15  C   UNL     1      -6.018   1.780  -0.950  0.00  0.00    +0.000 A 
ATOM     16  F   UNL     1      -8.257  -0.258   1.829  0.00  0.00    +0.000 F 
ENDBRANCH   2  10
TORSDOF 2
