REMARK  Name = *****
REMARK  3 active torsions:
REMARK  status: ('A' for Active; 'I' for Inactive)
REMARK    1  A    between atoms: C_1  and  C_2
REMARK    2  A    between atoms: C_5  and  C_8
REMARK    3  A    between atoms: C_9  and  C_10
REMARK                            x       y       z     vdW  Elec       q    Type
REMARK                         _______ _______ _______ _____ _____    ______ ____
ROOT
ATOM      1  C   UNL     1       1.106   0.053   0.305  0.00  0.00    +0.000 C 
ATOM      2  C   UNL     1       2.588   0.077   0.079  0.00  0.00    +0.000 A 
ATOM      3  C   UNL     1       3.259   1.292  -0.110  0.00  0.00    +0.000 A 
ATOM      4  C   UNL     1       4.635   1.310  -0.353  0.00  0.00    +0.000 A 
ATOM      5  C   UNL     1       5.350   0.113  -0.420  0.00  0.00    +0.000 A 
ATOM      6  C   UNL     1       4.686  -1.102  -0.247  0.00  0.00    +0.000 A 
ATOM      7  C   UNL     1       3.310  -1.120  -0.004  0.00  0.00    +0.000 A 
ENDROOT
BRANCH   5   8
ATOM      8  C   UNL     1       6.759   0.132  -0.669  0.00  0.00    +0.000 C 
ATOM      9  C   UNL     1       7.942   0.148  -0.879  0.00  0.00    +0.000 C 
BRANCH   9  10
ATOM     10  C   UNL     1       9.386   0.167  -1.126  0.00  0.00    +0.000 C 
ATOM     11  C   UNL     1       9.775   1.353  -1.967  0.00  0.00    +0.000 C 
ATOM     12  C   UNL     1      10.329   0.938  -3.119  0.00  0.00    +0.000 C 
ATOM     13  C   UNL     1      10.342  -0.503  -3.147  0.00  0.00    +0.000 C 
ATOM     14  C   UNL     1       9.798  -0.975  -2.015  0.00  0.00    +0.000 C 
ENDBRANCH   9  10
ENDBRANCH   5   8
TORSDOF 2
