REMARK  Name = *****
REMARK  4 active torsions:
REMARK  status: ('A' for Active; 'I' for Inactive)
REMARK    1  A    between atoms: C_1  and  C_2
REMARK    2  A    between atoms: C_5  and  C_8
REMARK    3  A    between atoms: C_8  and  C_10
REMARK    4  A    between atoms: C_10  and  C_11
REMARK                            x       y       z     vdW  Elec       q    Type
REMARK                         _______ _______ _______ _____ _____    ______ ____
ROOT
ATOM      1  C   UNL     1      -3.097  -0.018  -0.151  0.00  0.00    +0.000 C 
ATOM      2  O   UNL     1      -3.609  -1.019  -0.654  0.00  0.00    +0.000 OA
ENDROOT
BRANCH   1   7
ATOM      3  C   UNL     1       2.169  -0.618   2.239  0.00  0.00    +0.000 C 
ATOM      4  C   UNL     1       0.797  -0.453   1.654  0.00  0.00    +0.000 A 
ATOM      5  C   UNL     1       0.122  -1.550   1.112  0.00  0.00    +0.000 A 
ATOM      6  C   UNL     1      -1.141  -1.388   0.535  0.00  0.00    +0.000 A 
ATOM      7  C   UNL     1      -1.745  -0.125   0.482  0.00  0.00    +0.000 A 
ATOM      8  C   UNL     1      -1.063   0.976   1.010  0.00  0.00    +0.000 A 
ATOM      9  C   UNL     1       0.202   0.812   1.587  0.00  0.00    +0.000 A 
ENDBRANCH   1   7
BRANCH   1  10
ATOM     10  C   UNL     1      -3.821   1.316  -0.181  0.00  0.00    +0.000 C 
BRANCH  10  11
ATOM     11  C   UNL     1      -3.354   2.246  -1.277  0.00  0.00    +0.000 A 
ATOM     12  C   UNL     1      -3.206   1.790  -2.597  0.00  0.00    +0.000 A 
ATOM     13  C   UNL     1      -2.794   2.660  -3.614  0.00  0.00    +0.000 A 
ATOM     14  C   UNL     1      -2.540   4.003  -3.320  0.00  0.00    +0.000 A 
ATOM     15  C   UNL     1      -2.705   4.469  -2.013  0.00  0.00    +0.000 A 
ATOM     16  C   UNL     1      -3.115   3.598  -1.000  0.00  0.00    +0.000 A 
ATOM     17 CL   UNL     1      -2.028   5.136  -4.519  0.00  0.00    +0.000 Cl
ATOM     18 CL   UNL     1      -2.624   2.013  -5.207  0.00  0.00    +0.000 Cl
ENDBRANCH  10  11
ENDBRANCH   1  10
TORSDOF 3
