REMARK  Name = *****
REMARK  4 active torsions:
REMARK  status: ('A' for Active; 'I' for Inactive)
REMARK    1  A    between atoms: C_4  and  C_7
REMARK    2  A    between atoms: C_4  and  C_15
REMARK    3  A    between atoms: C_7  and  C_8
REMARK    4  A    between atoms: C_8  and  C_9
REMARK                            x       y       z     vdW  Elec       q    Type
REMARK                         _______ _______ _______ _____ _____    ______ ____
ROOT
ATOM      1  C   UNL     1      -2.038  -0.404   0.572  0.00  0.00    +0.000 C 
ATOM      2  C   UNL     1      -1.371   0.934   0.865  0.00  0.00    +0.000 C 
ATOM      3  C   UNL     1      -0.537   1.428  -0.320  0.00  0.00    +0.000 C 
ATOM      4  C   UNL     1       0.499   0.395  -0.822  0.00  0.00    +0.000 C 
ATOM      5  C   UNL     1      -0.191  -0.976  -1.050  0.00  0.00    +0.000 C 
ATOM      6  C   UNL     1      -1.018  -1.452   0.145  0.00  0.00    +0.000 C 
ENDROOT
BRANCH   4   7
ATOM      7  C   UNL     1       1.582   0.234   0.181  0.00  0.00    +0.000 C 
ATOM      8  N   UNL     1       2.432   0.113   0.962  0.00  0.00    +0.000 NA
ENDBRANCH   4   7
BRANCH   4   9
ATOM      9  C   UNL     1       1.128   0.845  -2.172  0.00  0.00    +0.000 C 
BRANCH   9  10
ATOM     10  C   UNL     1       1.816   2.219  -2.149  0.00  0.00    +0.000 C 
BRANCH  10  11
ATOM     11  C   UNL     1       2.444   2.535  -3.485  0.00  0.00    +0.000 A 
ATOM     12  C   UNL     1       1.706   3.190  -4.481  0.00  0.00    +0.000 A 
ATOM     13  C   UNL     1       2.283   3.462  -5.722  0.00  0.00    +0.000 A 
ATOM     14  C   UNL     1       3.597   3.080  -5.981  0.00  0.00    +0.000 A 
ATOM     15  C   UNL     1       4.337   2.423  -5.000  0.00  0.00    +0.000 A 
ATOM     16  C   UNL     1       3.763   2.149  -3.757  0.00  0.00    +0.000 A 
ENDBRANCH  10  11
ENDBRANCH   9  10
ENDBRANCH   4   9
TORSDOF 4
