REMARK  Name = *****
REMARK  5 active torsions:
REMARK  status: ('A' for Active; 'I' for Inactive)
REMARK    1  A    between atoms: C_4  and  S_6
REMARK    2  A    between atoms: S_6  and  C_7
REMARK    3  A    between atoms: C_7  and  C_8
REMARK    4  A    between atoms: C_8  and  S_9
REMARK    5  A    between atoms: S_9  and  C_10
REMARK                            x       y       z     vdW  Elec       q    Type
REMARK                         _______ _______ _______ _____ _____    ______ ____
ROOT
ATOM      1  C   UNL     1       1.284  -3.923  -0.023  0.00  0.00    +0.000 C 
ENDROOT
BRANCH   1   2
ATOM      2  S   UNL     1      -0.316  -3.060  -0.019  0.00  0.00    +0.000 S 
BRANCH   2   6
ATOM      3  C   UNL     1       1.367   0.627   0.019  0.00  0.00    +0.000 A 
ATOM      4  C   UNL     1       0.079   1.111   0.021  0.00  0.00    +0.000 A 
ATOM      5  S   UNL     1      -1.075  -0.149   0.006  0.00  0.00    +0.000 S 
ATOM      6  C   UNL     1       0.141  -1.361  -0.002  0.00  0.00    +0.000 A 
ATOM      7  C   UNL     1       1.402  -0.800   0.006  0.00  0.00    +0.000 A 
ENDBRANCH   2   6
ENDBRANCH   1   2
BRANCH   1   8
ATOM      8  C   UNL     1       1.055  -5.433  -0.042  0.00  0.00    +0.000 C 
BRANCH   8   9
ATOM      9  S   UNL     1       2.665  -6.283  -0.046  0.00  0.00    +0.000 S 
BRANCH   9  10
ATOM     10  C   UNL     1       2.247  -7.995  -0.071  0.00  0.00    +0.000 A 
ATOM     11  C   UNL     1       3.189  -9.006  -0.077  0.00  0.00    +0.000 A 
ATOM     12  C   UNL     1       2.604 -10.306  -0.099  0.00  0.00    +0.000 A 
ATOM     13  C   UNL     1       1.229 -10.246  -0.109  0.00  0.00    +0.000 A 
ATOM     14  S   UNL     1       0.661  -8.635  -0.092  0.00  0.00    +0.000 S 
ENDBRANCH   9  10
ENDBRANCH   8   9
ENDBRANCH   1   8
TORSDOF 5
