REMARK  Name = *****
REMARK  4 active torsions:
REMARK  status: ('A' for Active; 'I' for Inactive)
REMARK    1  A    between atoms: C_1  and  C_2
REMARK    2  A    between atoms: C_5  and  C_8
REMARK    3  A    between atoms: C_8  and  C_16
REMARK    4  A    between atoms: N_9  and  C_10
REMARK                            x       y       z     vdW  Elec       q    Type
REMARK                         _______ _______ _______ _____ _____    ______ ____
ROOT
ATOM      1  C   UNL     1      -3.020  -0.027   0.297  0.00  0.00    +0.000 C 
ATOM      2  N   UNL     1      -3.659  -1.128   0.494  0.00  0.00    +0.000 NA
ATOM      3  C   UNL     1      -3.772   1.269   0.484  0.00  0.00    +0.000 C 
ENDROOT
BRANCH   1   8
ATOM      4  C   UNL     1       2.501   0.550  -1.256  0.00  0.00    +0.000 C 
ATOM      5  C   UNL     1       1.065   0.369  -0.859  0.00  0.00    +0.000 A 
ATOM      6  C   UNL     1       0.732   0.072   0.471  0.00  0.00    +0.000 A 
ATOM      7  C   UNL     1      -0.603  -0.065   0.852  0.00  0.00    +0.000 A 
ATOM      8  C   UNL     1      -1.606   0.102  -0.103  0.00  0.00    +0.000 A 
ATOM      9  C   UNL     1      -1.296   0.416  -1.426  0.00  0.00    +0.000 A 
ATOM     10  C   UNL     1       0.041   0.553  -1.800  0.00  0.00    +0.000 A 
ENDBRANCH   1   8
BRANCH   2  11
ATOM     11  C   UNL     1      -3.025  -2.432   0.301  0.00  0.00    +0.000 C 
ATOM     12  C   UNL     1      -3.959  -3.285  -0.567  0.00  0.00    +0.000 C 
ATOM     13  C   UNL     1      -3.449  -4.717  -0.701  0.00  0.00    +0.000 C 
ATOM     14  C   UNL     1      -3.222  -5.362   0.663  0.00  0.00    +0.000 C 
ATOM     15  C   UNL     1      -2.306  -4.515   1.542  0.00  0.00    +0.000 C 
ATOM     16  C   UNL     1      -2.819  -3.083   1.672  0.00  0.00    +0.000 C 
ENDBRANCH   2  11
TORSDOF 2
