REMARK  Name = *****
REMARK  5 active torsions:
REMARK  status: ('A' for Active; 'I' for Inactive)
REMARK    1  A    between atoms: C_1  and  C_2
REMARK    2  A    between atoms: C_2  and  C_4
REMARK    3  A    between atoms: C_9  and  C_10
REMARK    4  A    between atoms: C_10  and  C_11
REMARK    5  A    between atoms: C_11  and  C_12
REMARK                            x       y       z     vdW  Elec       q    Type
REMARK                         _______ _______ _______ _____ _____    ______ ____
ROOT
ATOM      1  C   UNL     1       3.554  -2.463   1.327  0.00  0.00    +0.000 A 
ATOM      2  C   UNL     1       3.323  -3.488   0.395  0.00  0.00    +0.000 A 
ATOM      3  C   UNL     1       3.819  -3.386  -0.905  0.00  0.00    +0.000 A 
ATOM      4  C   UNL     1       4.543  -2.261  -1.284  0.00  0.00    +0.000 A 
ATOM      5  C   UNL     1       4.773  -1.236  -0.366  0.00  0.00    +0.000 A 
ATOM      6  C   UNL     1       4.287  -1.320   0.952  0.00  0.00    +0.000 A 
ENDROOT
BRANCH   1   8
ATOM      7  C   UNL     1       3.098  -3.972   3.355  0.00  0.00    +0.000 C 
ATOM      8  C   UNL     1       2.989  -2.621   2.697  0.00  0.00    +0.000 C 
ATOM      9  O   UNL     1       2.428  -1.681   3.254  0.00  0.00    +0.000 OA
ENDBRANCH   1   8
BRANCH   6  10
ATOM     10  C   UNL     1       4.577  -0.172   1.895  0.00  0.00    +0.000 C 
BRANCH  10  11
ATOM     11  C   UNL     1       3.542   0.951   1.768  0.00  0.00    +0.000 C 
BRANCH  11  12
ATOM     12  C   UNL     1       3.810   2.064   2.751  0.00  0.00    +0.000 A 
ATOM     13  C   UNL     1       4.533   3.201   2.368  0.00  0.00    +0.000 A 
ATOM     14  C   UNL     1       4.791   4.217   3.290  0.00  0.00    +0.000 A 
ATOM     15  C   UNL     1       4.334   4.102   4.602  0.00  0.00    +0.000 A 
ATOM     16  C   UNL     1       3.619   2.972   4.994  0.00  0.00    +0.000 A 
ATOM     17  C   UNL     1       3.359   1.956   4.073  0.00  0.00    +0.000 A 
ENDBRANCH  11  12
ENDBRANCH  10  11
ENDBRANCH   6  10
TORSDOF 4
