REMARK  Name = *****
REMARK  3 active torsions:
REMARK  status: ('A' for Active; 'I' for Inactive)
REMARK    1  A    between atoms: C_4  and  S_6
REMARK    2  A    between atoms: S_6  and  C_7
REMARK    3  A    between atoms: C_7  and  C_8
REMARK                            x       y       z     vdW  Elec       q    Type
REMARK                         _______ _______ _______ _____ _____    ______ ____
ROOT
ATOM      1  C   UNL     1       1.762  -4.810   0.483  0.00  0.00    +0.000 A 
ATOM      2  C   UNL     1       1.688  -5.677  -0.615  0.00  0.00    +0.000 A 
ATOM      3  C   UNL     1       1.888  -7.050  -0.486  0.00  0.00    +0.000 A 
ATOM      4  C   UNL     1       2.166  -7.591   0.765  0.00  0.00    +0.000 A 
ATOM      5  C   UNL     1       2.240  -6.752   1.876  0.00  0.00    +0.000 A 
ATOM      6  C   UNL     1       2.037  -5.372   1.738  0.00  0.00    +0.000 A 
ATOM      7 CL   UNL     1       2.145  -4.408   3.168  0.00  0.00    +0.000 Cl
ATOM      8  F   UNL     1       1.422  -5.187  -1.835  0.00  0.00    +0.000 F 
ENDROOT
BRANCH   1   9
ATOM      9  C   UNL     1       1.515  -3.339   0.272  0.00  0.00    +0.000 C 
BRANCH   9  10
ATOM     10  S   UNL     1      -0.224  -2.908   0.565  0.00  0.00    +0.000 S 
BRANCH  10  14
ATOM     11  C   UNL     1       0.581   0.865  -0.227  0.00  0.00    +0.000 C 
ATOM     12  C   UNL     1      -0.902   1.052  -0.503  0.00  0.00    +0.000 C 
ATOM     13  S   UNL     1      -1.645  -0.304   0.419  0.00  0.00    +0.000 S 
ATOM     14  C   UNL     1      -0.166  -1.207   0.256  0.00  0.00    +0.000 C 
ATOM     15  N   UNL     1       0.897  -0.575  -0.113  0.00  0.00    +0.000 NA
ENDBRANCH  10  14
ENDBRANCH   9  10
ENDBRANCH   1   9
TORSDOF 3
