REMARK  Name = *****
REMARK  1 active torsions:
REMARK  status: ('A' for Active; 'I' for Inactive)
REMARK    1  A    between atoms: C_6  and  C_11
REMARK                            x       y       z     vdW  Elec       q    Type
REMARK                         _______ _______ _______ _____ _____    ______ ____
ROOT
ATOM      1  C   UNL     1       2.664   0.100   0.097  0.00  0.00    +0.000 A 
ATOM      2  C   UNL     1       1.870   1.117   0.478  0.00  0.00    +0.000 A 
ATOM      3  C   UNL     1       0.499   0.676   0.268  0.00  0.00    +0.000 A 
ATOM      4  C   UNL     1      -0.578   1.420   0.535  0.00  0.00    +0.000 A 
ATOM      5  C   UNL     1      -1.971   1.067   0.360  0.00  0.00    +0.000 A 
ATOM      6  C   UNL     1      -2.538  -0.064  -0.103  0.00  0.00    +0.000 A 
ATOM      7  C   UNL     1      -1.858  -1.267  -0.564  0.00  0.00    +0.000 A 
ATOM      8  C   UNL     1      -0.550  -1.545  -0.640  0.00  0.00    +0.000 A 
ATOM      9  C   UNL     1       0.530  -0.677  -0.267  0.00  0.00    +0.000 A 
ATOM     10  C   UNL     1       1.836  -1.002  -0.361  0.00  0.00    +0.000 A 
ENDROOT
BRANCH   6  11
ATOM     11  C   UNL     1      -4.022  -0.033  -0.127  0.00  0.00    +0.000 C 
ATOM     12  C   UNL     1      -4.706   0.440  -1.246  0.00  0.00    +0.000 C 
ATOM     13  C   UNL     1      -6.108   0.455  -1.258  0.00  0.00    +0.000 C 
ATOM     14  C   UNL     1      -6.895   0.005  -0.181  0.00  0.00    +0.000 C 
ATOM     15  C   UNL     1      -6.162  -0.468   0.923  0.00  0.00    +0.000 C 
ATOM     16  C   UNL     1      -4.760  -0.494   0.962  0.00  0.00    +0.000 C 
ATOM     17  O   UNL     1      -8.169   0.025  -0.204  0.00  0.00    +0.000 OA
ENDBRANCH   6  11
TORSDOF 1
