REMARK  Name = *****
REMARK  2 active torsions:
REMARK  status: ('A' for Active; 'I' for Inactive)
REMARK    1  A    between atoms: C_6  and  N_7
REMARK    2  A    between atoms: C_8  and  C_9
REMARK                            x       y       z     vdW  Elec       q    Type
REMARK                         _______ _______ _______ _____ _____    ______ ____
ROOT
ATOM      1  N   UNL     1       3.860  -0.105   0.114  0.00  0.00    +0.000 NA
ATOM      2  C   UNL     1       4.550   0.983  -0.023  0.00  0.00    +0.000 C 
ENDROOT
BRANCH   2   3
ATOM      3  C   UNL     1       6.021   0.968   0.033  0.00  0.00    +0.000 A 
ATOM      4  C   UNL     1       6.723  -0.232   0.185  0.00  0.00    +0.000 A 
ATOM      5  C   UNL     1       8.113  -0.199   0.230  0.00  0.00    +0.000 A 
ATOM      6  C   UNL     1       8.798   1.010   0.127  0.00  0.00    +0.000 A 
ATOM      7  C   UNL     1       8.105   2.206  -0.023  0.00  0.00    +0.000 A 
ATOM      8  C   UNL     1       6.714   2.176  -0.070  0.00  0.00    +0.000 A 
ATOM      9  F   UNL     1       6.050   3.332  -0.214  0.00  0.00    +0.000 F 
ATOM     10  F   UNL     1      10.136   1.031   0.172  0.00  0.00    +0.000 F 
ATOM     11  F   UNL     1       8.793  -1.345   0.373  0.00  0.00    +0.000 F 
ENDBRANCH   2   3
BRANCH   1  17
ATOM     12  C   UNL     1       1.739   0.560   1.113  0.00  0.00    +0.000 A 
ATOM     13  C   UNL     1       0.348   0.670   1.036  0.00  0.00    +0.000 A 
ATOM     14  C   UNL     1      -0.316   0.237  -0.110  0.00  0.00    +0.000 A 
ATOM     15  C   UNL     1       0.397  -0.309  -1.176  0.00  0.00    +0.000 A 
ATOM     16  C   UNL     1       1.788  -0.415  -1.094  0.00  0.00    +0.000 A 
ATOM     17  C   UNL     1       2.468   0.030   0.043  0.00  0.00    +0.000 A 
ATOM     18 CL   UNL     1      -2.029   0.370  -0.207  0.00  0.00    +0.000 Cl
ENDBRANCH   1  17
TORSDOF 2
