REMARK  Name = *****
REMARK  4 active torsions:
REMARK  status: ('A' for Active; 'I' for Inactive)
REMARK    1  A    between atoms: C_1  and  S_2
REMARK    2  A    between atoms: S_2  and  C_3
REMARK    3  A    between atoms: C_3  and  C_12
REMARK    4  A    between atoms: C_4  and  C_5
REMARK                            x       y       z     vdW  Elec       q    Type
REMARK                         _______ _______ _______ _____ _____    ______ ____
ROOT
ATOM      1  C   UNL     1       3.221   1.665  -0.824  0.00  0.00    +0.000 C 
ATOM      2  C   UNL     1       2.363   2.527  -1.401  0.00  0.00    +0.000 C 
ENDROOT
BRANCH   2   3
ATOM      3  C   UNL     1       0.905   2.531  -1.231  0.00  0.00    +0.000 A 
ATOM      4  C   UNL     1       0.025   2.000  -2.175  0.00  0.00    +0.000 A 
ATOM      5  N   UNL     1      -1.323   1.992  -2.051  0.00  0.00    +0.000 NA
ATOM      6  C   UNL     1      -1.825   2.534  -0.923  0.00  0.00    +0.000 A 
ATOM      7  C   UNL     1      -1.045   3.087   0.080  0.00  0.00    +0.000 A 
ATOM      8  C   UNL     1       0.339   3.086  -0.080  0.00  0.00    +0.000 A 
ATOM      9 CL   UNL     1       0.568   1.284  -3.646  0.00  0.00    +0.000 Cl
ENDBRANCH   2   3
BRANCH   1  10
ATOM     10  C   UNL     1       4.664   1.775  -1.111  0.00  0.00    +0.000 A 
ATOM     11  C   UNL     1       5.572   2.122  -0.101  0.00  0.00    +0.000 A 
ATOM     12  C   UNL     1       6.936   2.234  -0.381  0.00  0.00    +0.000 A 
ATOM     13  C   UNL     1       7.404   2.002  -1.673  0.00  0.00    +0.000 A 
ATOM     14  C   UNL     1       6.511   1.659  -2.687  0.00  0.00    +0.000 A 
ATOM     15  C   UNL     1       5.147   1.547  -2.408  0.00  0.00    +0.000 A 
ENDBRANCH   1  10
BRANCH   1  17
ATOM     16  C   UNL     1       2.898  -1.032  -0.799  0.00  0.00    +0.000 C 
ATOM     17  S   UNL     1       2.745   0.411   0.280  0.00  0.00    +0.000 S 
ENDBRANCH   1  17
TORSDOF 3
