REMARK  Name = *****
REMARK  2 active torsions:
REMARK  status: ('A' for Active; 'I' for Inactive)
REMARK    1  A    between atoms: C_5  and  C_7
REMARK    2  A    between atoms: C_8  and  C_9
REMARK                            x       y       z     vdW  Elec       q    Type
REMARK                         _______ _______ _______ _____ _____    ______ ____
ROOT
ATOM      1  C   UNL     1       0.946  -2.369  -0.065  0.00  0.00    +0.000 C 
ATOM      2  C   UNL     1       2.261  -2.572   0.120  0.00  0.00    +0.000 C 
ENDROOT
BRANCH   1   7
ATOM      3  C   UNL     1       0.054   1.196   0.897  0.00  0.00    +0.000 A 
ATOM      4  C   UNL     1      -1.086   1.403   0.121  0.00  0.00    +0.000 A 
ATOM      5  C   UNL     1      -1.553   0.385  -0.706  0.00  0.00    +0.000 A 
ATOM      6  C   UNL     1      -0.874  -0.831  -0.756  0.00  0.00    +0.000 A 
ATOM      7  C   UNL     1       0.284  -1.056   0.001  0.00  0.00    +0.000 A 
ATOM      8  C   UNL     1       0.731  -0.028   0.843  0.00  0.00    +0.000 A 
ATOM      9  F   UNL     1      -1.354  -1.795  -1.558  0.00  0.00    +0.000 F 
ENDBRANCH   1   7
BRANCH   2  10
ATOM     10  C   UNL     1       2.873  -3.908   0.044  0.00  0.00    +0.000 A 
ATOM     11  C   UNL     1       2.714  -4.667  -1.128  0.00  0.00    +0.000 A 
ATOM     12  C   UNL     1       3.300  -5.929  -1.249  0.00  0.00    +0.000 A 
ATOM     13  C   UNL     1       4.058  -6.449  -0.204  0.00  0.00    +0.000 A 
ATOM     14  C   UNL     1       4.234  -5.707   0.964  0.00  0.00    +0.000 A 
ATOM     15  C   UNL     1       3.649  -4.441   1.088  0.00  0.00    +0.000 A 
ATOM     16 BR   UNL     1       3.933  -3.506   2.721  0.00  0.00    +0.000 Br
ENDBRANCH   2  10
TORSDOF 2
