REMARK  Name = *****
REMARK  3 active torsions:
REMARK  status: ('A' for Active; 'I' for Inactive)
REMARK    1  A    between atoms: C_4  and  C_7
REMARK    2  A    between atoms: C_7  and  C_15
REMARK    3  A    between atoms: N_8  and  C_9
REMARK                            x       y       z     vdW  Elec       q    Type
REMARK                         _______ _______ _______ _____ _____    ______ ____
ROOT
ATOM      1  C   UNL     1      -2.821   0.524  -0.207  0.00  0.00    +0.000 C 
ATOM      2  N   UNL     1      -3.273   1.748  -0.285  0.00  0.00    +0.000 NA
ENDROOT
BRANCH   1   6
ATOM      3  C   UNL     1       1.287  -0.607   0.022  0.00  0.00    +0.000 A 
ATOM      4  C   UNL     1       0.438  -0.845   1.104  0.00  0.00    +0.000 A 
ATOM      5  C   UNL     1      -0.904  -0.473   1.035  0.00  0.00    +0.000 A 
ATOM      6  C   UNL     1      -1.390   0.142  -0.124  0.00  0.00    +0.000 A 
ATOM      7  C   UNL     1      -0.543   0.378  -1.211  0.00  0.00    +0.000 A 
ATOM      8  C   UNL     1       0.798   0.004  -1.134  0.00  0.00    +0.000 A 
ENDBRANCH   1   6
BRANCH   2   9
ATOM      9  C   UNL     1      -2.402   2.846  -0.266  0.00  0.00    +0.000 A 
ATOM     10  C   UNL     1      -2.203   3.586  -1.434  0.00  0.00    +0.000 A 
ATOM     11  C   UNL     1      -1.358   4.697  -1.435  0.00  0.00    +0.000 A 
ATOM     12  C   UNL     1      -0.718   5.085  -0.259  0.00  0.00    +0.000 A 
ATOM     13  C   UNL     1      -0.932   4.370   0.918  0.00  0.00    +0.000 A 
ATOM     14  C   UNL     1      -1.780   3.260   0.916  0.00  0.00    +0.000 A 
ENDBRANCH   2   9
BRANCH   1  15
ATOM     15  C   UNL     1      -3.789  -0.654  -0.174  0.00  0.00    +0.000 C 
ATOM     16  F   UNL     1      -3.378  -1.687  -0.963  0.00  0.00    +0.000 F 
ATOM     17  F   UNL     1      -3.922  -1.167   1.082  0.00  0.00    +0.000 F 
ATOM     18  F   UNL     1      -5.046  -0.338  -0.592  0.00  0.00    +0.000 F 
ENDBRANCH   1  15
TORSDOF 3
