REMARK  Name = *****
REMARK  3 active torsions:
REMARK  status: ('A' for Active; 'I' for Inactive)
REMARK    1  A    between atoms: C_1  and  C_2
REMARK    2  A    between atoms: C_5  and  C_7
REMARK    3  A    between atoms: C_8  and  C_9
REMARK                            x       y       z     vdW  Elec       q    Type
REMARK                         _______ _______ _______ _____ _____    ______ ____
ROOT
ATOM      1  C   UNL     1      -2.417   1.648   0.060  0.00  0.00    +0.000 C 
ATOM      2  C   UNL     1      -3.722   1.337   0.011  0.00  0.00    +0.000 C 
ENDROOT
BRANCH   2   3
ATOM      3  C   UNL     1      -4.807   2.329   0.027  0.00  0.00    +0.000 A 
ATOM      4  C   UNL     1      -4.712   3.555  -0.645  0.00  0.00    +0.000 A 
ATOM      5  C   UNL     1      -5.782   4.452  -0.623  0.00  0.00    +0.000 A 
ATOM      6  C   UNL     1      -6.959   4.137   0.054  0.00  0.00    +0.000 A 
ATOM      7  C   UNL     1      -7.069   2.913   0.709  0.00  0.00    +0.000 A 
ATOM      8  C   UNL     1      -6.001   2.012   0.690  0.00  0.00    +0.000 A 
ATOM      9 CL   UNL     1      -5.649   5.959  -1.444  0.00  0.00    +0.000 Cl
ENDBRANCH   2   3
BRANCH   1  14
ATOM     10  C   UNL     1      -0.610  -2.869  -0.027  0.00  0.00    +0.000 C 
ATOM     11  C   UNL     1      -0.514  -1.398   0.016  0.00  0.00    +0.000 A 
ATOM     12  C   UNL     1       0.538  -0.516   0.066  0.00  0.00    +0.000 A 
ATOM     13  C   UNL     1      -0.040   0.776   0.090  0.00  0.00    +0.000 A 
ATOM     14  C   UNL     1      -1.422   0.632   0.053  0.00  0.00    +0.000 A 
ATOM     15  O   UNL     1      -1.691  -0.720   0.008  0.00  0.00    +0.000 OA
ENDBRANCH   1  14
TORSDOF 2
