REMARK  Name = *****
REMARK  4 active torsions:
REMARK  status: ('A' for Active; 'I' for Inactive)
REMARK    1  A    between atoms: C_1  and  C_2
REMARK    2  A    between atoms: C_4  and  C_8
REMARK    3  A    between atoms: N_10  and  C_11
REMARK    4  A    between atoms: C_15  and  C_17
REMARK                            x       y       z     vdW  Elec       q    Type
REMARK                         _______ _______ _______ _____ _____    ______ ____
ROOT
ATOM      1  C   UNL     1      -2.116   2.397   0.186  0.00  0.00    +0.000 C 
ATOM      2  O   UNL     1      -3.263   2.236   0.583  0.00  0.00    +0.000 OA
ATOM      3  N   UNL     1      -1.536   3.582  -0.232  0.00  0.00    +0.000 N 
ATOM      4  H   UNL     1      -0.620   3.518  -0.587  0.00  0.00    +0.000 HD
ENDROOT
BRANCH   1   8
ATOM      5  C   UNL     1       2.404   0.203   0.646  0.00  0.00    +0.000 C 
ATOM      6  C   UNL     1       0.950   0.140   0.280  0.00  0.00    +0.000 A 
ATOM      7  C   UNL     1       0.138   1.278   0.391  0.00  0.00    +0.000 A 
ATOM      8  C   UNL     1      -1.229   1.204   0.085  0.00  0.00    +0.000 A 
ATOM      9  C   UNL     1      -1.793  -0.018  -0.295  0.00  0.00    +0.000 A 
ATOM     10  C   UNL     1      -0.992  -1.155  -0.394  0.00  0.00    +0.000 A 
ATOM     11  C   UNL     1       0.372  -1.076  -0.108  0.00  0.00    +0.000 A 
ENDBRANCH   1   8
BRANCH   3  12
ATOM     12  C   UNL     1      -2.109   4.871  -0.208  0.00  0.00    +0.000 A 
ATOM     13  C   UNL     1      -3.354   5.160   0.348  0.00  0.00    +0.000 A 
ATOM     14  C   UNL     1      -3.844   6.469   0.344  0.00  0.00    +0.000 A 
ATOM     15  C   UNL     1      -3.093   7.501  -0.216  0.00  0.00    +0.000 A 
ATOM     16  C   UNL     1      -1.846   7.231  -0.786  0.00  0.00    +0.000 A 
ATOM     17  C   UNL     1      -1.358   5.915  -0.768  0.00  0.00    +0.000 A 
ATOM     18  C   UNL     1      -1.015   8.334  -1.372  0.00  0.00    +0.000 C 
ENDBRANCH   3  12
TORSDOF 2
