REMARK  Name = *****
REMARK  5 active torsions:
REMARK  status: ('A' for Active; 'I' for Inactive)
REMARK    1  A    between atoms: C_1  and  C_2
REMARK    2  A    between atoms: C_4  and  S_8
REMARK    3  A    between atoms: S_8  and  O_9
REMARK    4  A    between atoms: O_9  and  C_10
REMARK    5  A    between atoms: C_15  and  C_16
REMARK                            x       y       z     vdW  Elec       q    Type
REMARK                         _______ _______ _______ _____ _____    ______ ____
ROOT
ATOM      1  S   UNL     1      -1.728   3.020   0.296  0.00  0.00    +0.000 S 
ENDROOT
BRANCH   1   5
ATOM      2  C   UNL     1       2.514  -0.214   0.117  0.00  0.00    +0.000 C 
ATOM      3  C   UNL     1       1.028  -0.025   0.027  0.00  0.00    +0.000 A 
ATOM      4  C   UNL     1       0.454   1.244   0.192  0.00  0.00    +0.000 A 
ATOM      5  C   UNL     1      -0.931   1.429   0.087  0.00  0.00    +0.000 A 
ATOM      6  C   UNL     1      -1.741   0.319  -0.181  0.00  0.00    +0.000 A 
ATOM      7  C   UNL     1      -1.180  -0.948  -0.347  0.00  0.00    +0.000 A 
ATOM      8  C   UNL     1       0.200  -1.119  -0.247  0.00  0.00    +0.000 A 
ENDBRANCH   1   5
BRANCH   1   9
ATOM      9  O   UNL     1      -0.397   4.018   0.363  0.00  0.00    +0.000 OA
BRANCH   9  10
ATOM     10  C   UNL     1      -0.204   4.859  -0.710  0.00  0.00    +0.000 A 
ATOM     11  C   UNL     1      -0.072   4.375  -2.016  0.00  0.00    +0.000 A 
ATOM     12  C   UNL     1       0.184   5.258  -3.065  0.00  0.00    +0.000 A 
ATOM     13  C   UNL     1       0.326   6.620  -2.810  0.00  0.00    +0.000 A 
ATOM     14  C   UNL     1       0.218   7.103  -1.505  0.00  0.00    +0.000 A 
ATOM     15  C   UNL     1      -0.038   6.227  -0.440  0.00  0.00    +0.000 A 
ATOM     16  C   UNL     1      -0.147   6.755   0.962  0.00  0.00    +0.000 C 
ENDBRANCH   9  10
ENDBRANCH   1   9
TORSDOF 3
