REMARK  Name = *****
REMARK  4 active torsions:
REMARK  status: ('A' for Active; 'I' for Inactive)
REMARK    1  A    between atoms: C_1  and  C_2
REMARK    2  A    between atoms: C_2  and  N_3
REMARK    3  A    between atoms: C_6  and  C_9
REMARK    4  A    between atoms: C_10  and  C_11
REMARK                            x       y       z     vdW  Elec       q    Type
REMARK                         _______ _______ _______ _____ _____    ______ ____
ROOT
ATOM      1  C   UNL     1       4.592  -3.241   4.340  0.00  0.00    +0.000 C 
ATOM      2  C   UNL     1       3.901  -4.203   4.974  0.00  0.00    +0.000 C 
ENDROOT
BRANCH   2   3
ATOM      3  C   UNL     1       4.465  -5.041   6.043  0.00  0.00    +0.000 A 
ATOM      4  C   UNL     1       5.322  -4.526   7.026  0.00  0.00    +0.000 A 
ATOM      5  C   UNL     1       5.816  -5.351   8.042  0.00  0.00    +0.000 A 
ATOM      6  C   UNL     1       5.447  -6.693   8.086  0.00  0.00    +0.000 A 
ATOM      7  C   UNL     1       4.583  -7.215   7.128  0.00  0.00    +0.000 A 
ATOM      8  C   UNL     1       4.089  -6.390   6.113  0.00  0.00    +0.000 A 
ATOM      9 CL   UNL     1       6.055  -7.707   9.334  0.00  0.00    +0.000 Cl
ENDBRANCH   2   3
BRANCH   1  13
ATOM     10  N   UNL     1       3.080  -0.796   1.223  0.00  0.00    +0.000 N 
ATOM     11  C   UNL     1       3.874  -0.266   2.180  0.00  0.00    +0.000 C 
ATOM     12  C   UNL     1       4.370  -1.059   3.210  0.00  0.00    +0.000 C 
ATOM     13  C   UNL     1       4.034  -2.410   3.267  0.00  0.00    +0.000 C 
ATOM     14  C   UNL     1       3.225  -2.937   2.261  0.00  0.00    +0.000 C 
ATOM     15  C   UNL     1       2.753  -2.109   1.249  0.00  0.00    +0.000 C 
BRANCH  10  17
ATOM     16  C   UNL     1       3.542   0.063  -1.021  0.00  0.00    +0.000 C 
ATOM     17  C   UNL     1       2.562   0.068   0.135  0.00  0.00    +0.000 C 
ENDBRANCH  10  17
ENDBRANCH   1  13
TORSDOF 3
