REMARK  Name = *****
REMARK  3 active torsions:
REMARK  status: ('A' for Active; 'I' for Inactive)
REMARK    1  A    between atoms: C_4  and  N_7
REMARK    2  A    between atoms: C_8  and  C_9
REMARK    3  A    between atoms: C_9  and  C_12
REMARK                            x       y       z     vdW  Elec       q    Type
REMARK                         _______ _______ _______ _____ _____    ______ ____
ROOT
ATOM      1  C   UNL     1       5.014  -1.476  -0.221  0.00  0.00    +0.000 C 
ATOM      2  C   UNL     1       5.291  -1.326  -1.486  0.00  0.00    +0.000 C 
ATOM      3  O   UNL     1       5.588  -1.223  -2.620  0.00  0.00    +0.000 OA
ENDROOT
BRANCH   1   4
ATOM      4  C   UNL     1       6.011  -2.030   0.719  0.00  0.00    +0.000 A 
ATOM      5  C   UNL     1       6.130  -1.514   2.020  0.00  0.00    +0.000 A 
ATOM      6  C   UNL     1       7.071  -2.036   2.912  0.00  0.00    +0.000 A 
ATOM      7  C   UNL     1       7.906  -3.077   2.518  0.00  0.00    +0.000 A 
ATOM      8  C   UNL     1       7.807  -3.596   1.230  0.00  0.00    +0.000 A 
ATOM      9  C   UNL     1       6.868  -3.076   0.335  0.00  0.00    +0.000 A 
ENDBRANCH   1   4
BRANCH   1  11
ATOM     10  N   UNL     1       2.771  -0.520  -0.490  0.00  0.00    +0.000 NA
ATOM     11  C   UNL     1       3.647  -1.119   0.239  0.00  0.00    +0.000 C 
BRANCH  10  15
ATOM     12  C   UNL     1      -1.426   0.185  -0.161  0.00  0.00    +0.000 C 
ATOM     13  C   UNL     1      -0.885  -1.141   0.366  0.00  0.00    +0.000 C 
ATOM     14  C   UNL     1       0.523  -1.421  -0.153  0.00  0.00    +0.000 C 
ATOM     15  C   UNL     1       1.480  -0.265   0.161  0.00  0.00    +0.000 C 
ATOM     16  C   UNL     1       0.932   1.059  -0.382  0.00  0.00    +0.000 C 
ATOM     17  C   UNL     1      -0.476   1.340   0.139  0.00  0.00    +0.000 C 
ENDBRANCH  10  15
ENDBRANCH   1  11
TORSDOF 3
