REMARK  Name = *****
REMARK  3 active torsions:
REMARK  status: ('A' for Active; 'I' for Inactive)
REMARK    1  A    between atoms: C_1  and  C_2
REMARK    2  A    between atoms: C_5  and  C_8
REMARK    3  A    between atoms: C_9  and  C_10
REMARK                            x       y       z     vdW  Elec       q    Type
REMARK                         _______ _______ _______ _____ _____    ______ ____
ROOT
ATOM      1  C   UNL     1       1.126   0.017   0.318  0.00  0.00    +0.000 C 
ATOM      2  C   UNL     1       2.609   0.007   0.092  0.00  0.00    +0.000 A 
ATOM      3  C   UNL     1       3.306   1.206  -0.101  0.00  0.00    +0.000 A 
ATOM      4  C   UNL     1       4.682   1.193  -0.343  0.00  0.00    +0.000 A 
ATOM      5  C   UNL     1       5.371  -0.019  -0.406  0.00  0.00    +0.000 A 
ATOM      6  C   UNL     1       4.680  -1.219  -0.230  0.00  0.00    +0.000 A 
ATOM      7  C   UNL     1       3.304  -1.206   0.013  0.00  0.00    +0.000 A 
ENDROOT
BRANCH   5   8
ATOM      8  C   UNL     1       6.779  -0.031  -0.655  0.00  0.00    +0.000 C 
ATOM      9  C   UNL     1       7.962  -0.037  -0.865  0.00  0.00    +0.000 C 
BRANCH   9  10
ATOM     10  C   UNL     1       9.365  -0.042  -1.114  0.00  0.00    +0.000 A 
ATOM     11  N   UNL     1      10.037   1.082  -1.248  0.00  0.00    +0.000 NA
ATOM     12  C   UNL     1      11.369   0.799  -1.481  0.00  0.00    +0.000 A 
ATOM     13  C   UNL     1      11.696  -0.539  -1.521  0.00  0.00    +0.000 A 
ATOM     14  S   UNL     1      10.289  -1.483  -1.258  0.00  0.00    +0.000 S 
ENDBRANCH   9  10
ENDBRANCH   5   8
TORSDOF 2
