REMARK  Name = *****
REMARK  3 active torsions:
REMARK  status: ('A' for Active; 'I' for Inactive)
REMARK    1  A    between atoms: C_1  and  N_2
REMARK    2  A    between atoms: N_2  and  C_3
REMARK    3  A    between atoms: C_9  and  C_11
REMARK                            x       y       z     vdW  Elec       q    Type
REMARK                         _______ _______ _______ _____ _____    ______ ____
ROOT
ATOM      1  C   UNL     1       1.014   0.119   0.628  0.00  0.00    +0.000 C 
ATOM      2  N   UNL     1       2.461   0.060   0.389  0.00  0.00    +0.000 N 
ATOM      3  C   UNL     1       3.173   1.216   0.008  0.00  0.00    +0.000 C 
ATOM      4  O   UNL     1       4.391   1.366  -0.040  0.00  0.00    +0.000 OA
ENDROOT
BRANCH   3   5
ATOM      5  C   UNL     1       2.401   2.402  -0.428  0.00  0.00    +0.000 A 
ATOM      6  C   UNL     1       1.595   2.337  -1.570  0.00  0.00    +0.000 A 
ATOM      7  C   UNL     1       0.900   3.474  -1.973  0.00  0.00    +0.000 A 
ATOM      8  C   UNL     1       1.016   4.669  -1.260  0.00  0.00    +0.000 A 
ATOM      9  C   UNL     1       1.844   4.735  -0.137  0.00  0.00    +0.000 A 
ATOM     10  C   UNL     1       2.544   3.603   0.277  0.00  0.00    +0.000 A 
ATOM     11 CL   UNL     1      -0.113   3.405  -3.362  0.00  0.00    +0.000 Cl
ENDBRANCH   3   5
BRANCH   2  12
ATOM     12  C   UNL     1       3.106  -1.222   0.593  0.00  0.00    +0.000 A 
ATOM     13  C   UNL     1       4.496  -1.363   0.719  0.00  0.00    +0.000 A 
ATOM     14  C   UNL     1       5.094  -2.616   0.915  0.00  0.00    +0.000 A 
ATOM     15  C   UNL     1       4.316  -3.764   0.986  0.00  0.00    +0.000 A 
ATOM     16  C   UNL     1       2.938  -3.658   0.860  0.00  0.00    +0.000 A 
ATOM     17  C   UNL     1       2.343  -2.404   0.666  0.00  0.00    +0.000 A 
ENDBRANCH   2  12
TORSDOF 2
