REMARK  Name = *****
REMARK  1 active torsions:
REMARK  status: ('A' for Active; 'I' for Inactive)
REMARK    1  A    between atoms: C_4  and  C_7
REMARK                            x       y       z     vdW  Elec       q    Type
REMARK                         _______ _______ _______ _____ _____    ______ ____
ROOT
ATOM      1  C   UNL     1       2.701  -0.696  -0.273  0.00  0.00    +0.000 C 
ATOM      2  C   UNL     1       3.794  -1.041   0.431  0.00  0.00    +0.000 C 
ATOM      3  S   UNL     1       5.271  -1.360  -0.435  0.00  0.00    +0.000 S 
ATOM      4  C   UNL     1       5.691  -2.991   0.236  0.00  0.00    +0.000 C 
ATOM      5  C   UNL     1       5.791  -3.005   1.757  0.00  0.00    +0.000 C 
ATOM      6  C   UNL     1       4.454  -2.752   2.443  0.00  0.00    +0.000 C 
ATOM      7  S   UNL     1       3.818  -1.079   2.166  0.00  0.00    +0.000 S 
ENDROOT
BRANCH   1  11
ATOM      8  C   UNL     1      -1.487   0.458  -0.261  0.00  0.00    +0.000 C 
ATOM      9  C   UNL     1      -1.129  -0.966   0.152  0.00  0.00    +0.000 C 
ATOM     10  C   UNL     1       0.286  -1.341  -0.284  0.00  0.00    +0.000 C 
ATOM     11  C   UNL     1       1.323  -0.335   0.241  0.00  0.00    +0.000 C 
ATOM     12  C   UNL     1       0.957   1.095  -0.187  0.00  0.00    +0.000 C 
ATOM     13  C   UNL     1      -0.460   1.466   0.248  0.00  0.00    +0.000 C 
ENDBRANCH   1  11
TORSDOF 1
