REMARK  Name = *****
REMARK  3 active torsions:
REMARK  status: ('A' for Active; 'I' for Inactive)
REMARK    1  A    between atoms: C_4  and  S_7
REMARK    2  A    between atoms: S_7  and  N_9
REMARK    3  A    between atoms: N_9  and  C_10
REMARK                            x       y       z     vdW  Elec       q    Type
REMARK                         _______ _______ _______ _____ _____    ______ ____
ROOT
ATOM      1  N   UNL     1      -3.886  -0.661  -0.233  0.00  0.00    +0.000 N 
ATOM      2  H   UNL     1      -3.289  -1.441  -0.301  0.00  0.00    +0.000 HD
ENDROOT
BRANCH   1   3
ATOM      3  C   UNL     1      -5.270  -0.869  -0.440  0.00  0.00    +0.000 A 
ATOM      4  C   UNL     1      -6.143   0.149  -0.850  0.00  0.00    +0.000 A 
ATOM      5  C   UNL     1      -7.501  -0.107  -1.075  0.00  0.00    +0.000 A 
ATOM      6  C   UNL     1      -8.013  -1.390  -0.904  0.00  0.00    +0.000 A 
ATOM      7  C   UNL     1      -7.166  -2.424  -0.516  0.00  0.00    +0.000 A 
ATOM      8  C   UNL     1      -5.810  -2.165  -0.294  0.00  0.00    +0.000 A 
ATOM      9 CL   UNL     1      -4.800  -3.485   0.198  0.00  0.00    +0.000 Cl
ENDBRANCH   1   3
BRANCH   1  10
ATOM     10  S   UNL     1      -3.198   0.815   0.118  0.00  0.00    +0.000 S 
ATOM     11  O   UNL     1      -3.331   1.746  -1.048  0.00  0.00    +0.000 OA
BRANCH  10  15
ATOM     12  C   UNL     1       1.094  -0.855   0.060  0.00  0.00    +0.000 A 
ATOM     13  C   UNL     1       0.591  -0.201  -1.064  0.00  0.00    +0.000 A 
ATOM     14  C   UNL     1      -0.709   0.309  -1.052  0.00  0.00    +0.000 A 
ATOM     15  C   UNL     1      -1.511   0.165   0.085  0.00  0.00    +0.000 A 
ATOM     16  C   UNL     1      -0.999  -0.489   1.213  0.00  0.00    +0.000 A 
ATOM     17  C   UNL     1       0.301  -0.999   1.198  0.00  0.00    +0.000 A 
ENDBRANCH  10  15
ENDBRANCH   1  10
TORSDOF 3
