REMARK  Name = *****
REMARK  3 active torsions:
REMARK  status: ('A' for Active; 'I' for Inactive)
REMARK    1  A    between atoms: C_4  and  C_7
REMARK    2  A    between atoms: C_8  and  C_9
REMARK    3  A    between atoms: C_11  and  C_15
REMARK                            x       y       z     vdW  Elec       q    Type
REMARK                         _______ _______ _______ _____ _____    ______ ____
ROOT
ATOM      1  C   UNL     1       2.016  -0.003  -0.021  0.00  0.00    +0.000 A 
ATOM      2  C   UNL     1       2.713   1.208  -0.006  0.00  0.00    +0.000 A 
ATOM      3  C   UNL     1       4.117   1.223  -0.009  0.00  0.00    +0.000 A 
ATOM      4  C   UNL     1       4.809   0.001  -0.030  0.00  0.00    +0.000 A 
ATOM      5  C   UNL     1       4.112  -1.209  -0.044  0.00  0.00    +0.000 A 
ATOM      6  C   UNL     1       2.717  -1.210  -0.039  0.00  0.00    +0.000 A 
ENDROOT
BRANCH   3   7
ATOM      7  C   UNL     1       4.884   2.522   0.001  0.00  0.00    +0.000 C 
ATOM      8  F   UNL     1       4.090   3.624   0.098  0.00  0.00    +0.000 F 
ATOM      9  F   UNL     1       5.760   2.602   1.041  0.00  0.00    +0.000 F 
ATOM     10  F   UNL     1       5.627   2.695  -1.126  0.00  0.00    +0.000 F 
ENDBRANCH   3   7
BRANCH   1  12
ATOM     11  C   UNL     1      -0.615  -0.002  -0.013  0.00  0.00    +0.000 C 
ATOM     12  C   UNL     1       0.586  -0.005  -0.017  0.00  0.00    +0.000 C 
BRANCH  11  16
ATOM     13  C   UNL     1      -4.839   0.022  -0.001  0.00  0.00    +0.000 A 
ATOM     14  C   UNL     1      -4.149  -1.190   0.031  0.00  0.00    +0.000 A 
ATOM     15  C   UNL     1      -2.752  -1.199   0.027  0.00  0.00    +0.000 A 
ATOM     16  C   UNL     1      -2.046   0.006  -0.009  0.00  0.00    +0.000 A 
ATOM     17  C   UNL     1      -2.739   1.218  -0.040  0.00  0.00    +0.000 A 
ATOM     18  C   UNL     1      -4.135   1.226  -0.036  0.00  0.00    +0.000 A 
ENDBRANCH  11  16
ENDBRANCH   1  12
TORSDOF 3
