REMARK  Name = *****
REMARK  4 active torsions:
REMARK  status: ('A' for Active; 'I' for Inactive)
REMARK    1  A    between atoms: C_1  and  O_2
REMARK    2  A    between atoms: O_2  and  C_3
REMARK    3  A    between atoms: C_6  and  C_9
REMARK    4  A    between atoms: C_10  and  C_11
REMARK                            x       y       z     vdW  Elec       q    Type
REMARK                         _______ _______ _______ _____ _____    ______ ____
ROOT
ATOM      1  C   UNL     1       3.283  -1.401  -0.062  0.00  0.00    +0.000 A 
ATOM      2  N   UNL     1       3.043  -2.381  -0.961  0.00  0.00    +0.000 NA
ATOM      3  N   UNL     1       3.742  -3.555  -0.883  0.00  0.00    +0.000 NA
ATOM      4  C   UNL     1       4.662  -3.713   0.093  0.00  0.00    +0.000 A 
ATOM      5  C   UNL     1       4.930  -2.730   1.028  0.00  0.00    +0.000 A 
ATOM      6  C   UNL     1       4.218  -1.538   0.947  0.00  0.00    +0.000 A 
ENDROOT
BRANCH   1   8
ATOM      7  C   UNL     1       1.661  -0.152  -1.189  0.00  0.00    +0.000 C 
ATOM      8  O   UNL     1       2.595  -0.206  -0.115  0.00  0.00    +0.000 OA
ENDBRANCH   1   8
BRANCH   4   9
ATOM      9  C   UNL     1       5.345  -4.964   0.099  0.00  0.00    +0.000 C 
ATOM     10  C   UNL     1       5.925  -6.016   0.110  0.00  0.00    +0.000 C 
BRANCH  10  11
ATOM     11  C   UNL     1       6.609  -7.269   0.122  0.00  0.00    +0.000 C 
ATOM     12  C   UNL     1       7.946  -7.284   0.262  0.00  0.00    +0.000 C 
ATOM     13  C   UNL     1       8.767  -8.541   0.272  0.00  0.00    +0.000 C 
ATOM     14  C   UNL     1       7.992  -9.775  -0.191  0.00  0.00    +0.000 C 
ATOM     15  C   UNL     1       6.585  -9.794   0.396  0.00  0.00    +0.000 C 
ATOM     16  C   UNL     1       5.804  -8.540  -0.006  0.00  0.00    +0.000 C 
ENDBRANCH  10  11
ENDBRANCH   4   9
TORSDOF 3
