REMARK  Name = *****
REMARK  4 active torsions:
REMARK  status: ('A' for Active; 'I' for Inactive)
REMARK    1  A    between atoms: C_4  and  C_7
REMARK    2  A    between atoms: C_7  and  C_8
REMARK    3  A    between atoms: C_8  and  S_10
REMARK    4  A    between atoms: S_10  and  C_11
REMARK                            x       y       z     vdW  Elec       q    Type
REMARK                         _______ _______ _______ _____ _____    ______ ____
ROOT
ATOM      1  C   UNL     1      -0.704  -3.776   1.231  0.00  0.00    +0.000 C 
ATOM      2  O   UNL     1      -1.662  -3.187   1.716  0.00  0.00    +0.000 OA
ENDROOT
BRANCH   1   3
ATOM      3  C   UNL     1       0.442  -3.135   0.454  0.00  0.00    +0.000 C 
BRANCH   3   7
ATOM      4  C   UNL     1      -0.566   1.073  -0.255  0.00  0.00    +0.000 C 
ATOM      5  C   UNL     1      -0.783   0.087  -1.396  0.00  0.00    +0.000 C 
ATOM      6  C   UNL     1      -0.846  -1.353  -0.878  0.00  0.00    +0.000 C 
ATOM      7  C   UNL     1       0.216  -1.671   0.151  0.00  0.00    +0.000 C 
ATOM      8  C   UNL     1       0.935  -0.701   0.747  0.00  0.00    +0.000 C 
ATOM      9  C   UNL     1       0.728   0.765   0.498  0.00  0.00    +0.000 C 
ENDBRANCH   3   7
ENDBRANCH   1   3
BRANCH   1  10
ATOM     10  S   UNL     1      -0.532  -5.525   1.432  0.00  0.00    +0.000 S 
BRANCH  10  11
ATOM     11  C   UNL     1      -1.355  -6.086  -0.046  0.00  0.00    +0.000 A 
ATOM     12  C   UNL     1      -0.676  -6.934  -0.927  0.00  0.00    +0.000 A 
ATOM     13  C   UNL     1      -1.301  -7.389  -2.091  0.00  0.00    +0.000 A 
ATOM     14  C   UNL     1      -2.610  -7.003  -2.376  0.00  0.00    +0.000 A 
ATOM     15  C   UNL     1      -3.296  -6.167  -1.497  0.00  0.00    +0.000 A 
ATOM     16  C   UNL     1      -2.672  -5.712  -0.333  0.00  0.00    +0.000 A 
ENDBRANCH  10  11
ENDBRANCH   1  10
TORSDOF 4
