REMARK  Name = *****
REMARK  1 active torsions:
REMARK  status: ('A' for Active; 'I' for Inactive)
REMARK    1  A    between atoms: C_3  and  C_11
REMARK                            x       y       z     vdW  Elec       q    Type
REMARK                         _______ _______ _______ _____ _____    ______ ____
ROOT
ATOM      1  C   UNL     1       1.265   1.470  -0.156  0.00  0.00    +0.000 C 
ATOM      2  C   UNL     1       2.415   0.584  -0.654  0.00  0.00    +0.000 C 
ATOM      3  C   UNL     1       2.412  -0.790  -0.023  0.00  0.00    +0.000 C 
ATOM      4  C   UNL     1       1.263  -1.360   0.387  0.00  0.00    +0.000 C 
ATOM      5  C   UNL     1      -0.018  -0.658   0.240  0.00  0.00    +0.000 A 
ATOM      6  C   UNL     1      -1.225  -1.346   0.404  0.00  0.00    +0.000 A 
ATOM      7  C   UNL     1      -2.442  -0.672   0.278  0.00  0.00    +0.000 A 
ATOM      8  C   UNL     1      -2.459   0.693  -0.003  0.00  0.00    +0.000 A 
ATOM      9  C   UNL     1      -1.261   1.389  -0.159  0.00  0.00    +0.000 A 
ATOM     10  C   UNL     1      -0.037   0.718  -0.050  0.00  0.00    +0.000 A 
ENDROOT
BRANCH   3  11
ATOM     11  C   UNL     1       3.699  -1.507   0.088  0.00  0.00    +0.000 A 
ATOM     12  C   UNL     1       4.591  -1.542  -0.996  0.00  0.00    +0.000 A 
ATOM     13  C   UNL     1       5.814  -2.209  -0.890  0.00  0.00    +0.000 A 
ATOM     14  C   UNL     1       6.151  -2.838   0.302  0.00  0.00    +0.000 A 
ATOM     15  C   UNL     1       5.289  -2.812   1.390  0.00  0.00    +0.000 A 
ATOM     16  C   UNL     1       4.065  -2.147   1.284  0.00  0.00    +0.000 A 
ATOM     17  F   UNL     1       7.324  -3.476   0.403  0.00  0.00    +0.000 F 
ENDBRANCH   3  11
TORSDOF 1
