REMARK  Name = *****
REMARK  2 active torsions:
REMARK  status: ('A' for Active; 'I' for Inactive)
REMARK    1  A    between atoms: C_4  and  C_7
REMARK    2  A    between atoms: C_8  and  C_9
REMARK                            x       y       z     vdW  Elec       q    Type
REMARK                         _______ _______ _______ _____ _____    ______ ____
ROOT
ATOM      1  C   UNL     1      -0.838  -2.842  -0.030  0.00  0.00    +0.000 C 
ATOM      2  C   UNL     1      -1.165  -3.998  -0.049  0.00  0.00    +0.000 C 
ENDROOT
BRANCH   1   6
ATOM      3  C   UNL     1       0.348   1.274   0.353  0.00  0.00    +0.000 C 
ATOM      4  C   UNL     1       1.349   0.311  -0.275  0.00  0.00    +0.000 C 
ATOM      5  C   UNL     1       1.027  -1.139   0.099  0.00  0.00    +0.000 C 
ATOM      6  C   UNL     1      -0.442  -1.472  -0.011  0.00  0.00    +0.000 C 
ATOM      7  C   UNL     1      -1.382  -0.516  -0.110  0.00  0.00    +0.000 C 
ATOM      8  C   UNL     1      -1.080   0.954  -0.090  0.00  0.00    +0.000 C 
ENDBRANCH   1   6
BRANCH   2   9
ATOM      9  C   UNL     1      -1.555  -5.374  -0.075  0.00  0.00    +0.000 A 
ATOM     10  C   UNL     1      -0.666  -6.361   0.358  0.00  0.00    +0.000 A 
ATOM     11  C   UNL     1      -1.046  -7.704   0.331  0.00  0.00    +0.000 A 
ATOM     12  C   UNL     1      -2.314  -8.062  -0.129  0.00  0.00    +0.000 A 
ATOM     13  C   UNL     1      -3.203  -7.077  -0.561  0.00  0.00    +0.000 A 
ATOM     14  C   UNL     1      -2.824  -5.734  -0.534  0.00  0.00    +0.000 A 
ENDBRANCH   2   9
TORSDOF 2
