REMARK  Name = *****
REMARK  4 active torsions:
REMARK  status: ('A' for Active; 'I' for Inactive)
REMARK    1  A    between atoms: C_4  and  C_7
REMARK    2  A    between atoms: C_7  and  O_8
REMARK    3  A    between atoms: O_8  and  C_9
REMARK    4  A    between atoms: C_14  and  C_15
REMARK                            x       y       z     vdW  Elec       q    Type
REMARK                         _______ _______ _______ _____ _____    ______ ____
ROOT
ATOM      1  O   UNL     1      -3.558  -0.715  -0.497  0.00  0.00    +0.000 OA
ENDROOT
BRANCH   1   2
ATOM      2  C   UNL     1      -4.922  -0.672  -0.608  0.00  0.00    +0.000 A 
ATOM      3  C   UNL     1      -5.642   0.401  -1.144  0.00  0.00    +0.000 A 
ATOM      4  C   UNL     1      -7.036   0.350  -1.221  0.00  0.00    +0.000 A 
ATOM      5  C   UNL     1      -7.721  -0.771  -0.766  0.00  0.00    +0.000 A 
ATOM      6  C   UNL     1      -7.013  -1.848  -0.236  0.00  0.00    +0.000 A 
ATOM      7  C   UNL     1      -5.609  -1.815  -0.159  0.00  0.00    +0.000 A 
BRANCH   7   8
ATOM      8  C   UNL     1      -4.877  -2.987   0.439  0.00  0.00    +0.000 C 
ATOM      9 CL   UNL     1      -4.834  -2.857   2.212  0.00  0.00    +0.000 Cl
ENDBRANCH   7   8
ENDBRANCH   1   2
BRANCH   1  10
ATOM     10  C   UNL     1      -2.841   0.499  -0.700  0.00  0.00    +0.000 C 
BRANCH  10  14
ATOM     11  C   UNL     1       1.284  -0.272   0.298  0.00  0.00    +0.000 A 
ATOM     12  C   UNL     1       0.872  -0.308  -1.033  0.00  0.00    +0.000 A 
ATOM     13  C   UNL     1      -0.462  -0.056  -1.359  0.00  0.00    +0.000 A 
ATOM     14  C   UNL     1      -1.394   0.243  -0.356  0.00  0.00    +0.000 A 
ATOM     15  C   UNL     1      -0.971   0.261   0.981  0.00  0.00    +0.000 A 
ATOM     16  C   UNL     1       0.363   0.010   1.305  0.00  0.00    +0.000 A 
ENDBRANCH  10  14
ENDBRANCH   1  10
TORSDOF 4
