REMARK  Name = *****
REMARK  3 active torsions:
REMARK  status: ('A' for Active; 'I' for Inactive)
REMARK    1  A    between atoms: C_6  and  C_7
REMARK    2  A    between atoms: C_8  and  C_9
REMARK    3  A    between atoms: C_8  and  C_11
REMARK                            x       y       z     vdW  Elec       q    Type
REMARK                         _______ _______ _______ _____ _____    ______ ____
ROOT
ATOM      1  C   UNL     1      -3.390   0.165  -0.114  0.00  0.00    +0.000 C 
ATOM      2  C   UNL     1      -4.105   1.249   0.248  0.00  0.00    +0.000 C 
ENDROOT
BRANCH   1   8
ATOM      3  C   UNL     1      -1.216  -0.195  -1.241  0.00  0.00    +0.000 A 
ATOM      4  C   UNL     1       0.173  -0.337  -1.210  0.00  0.00    +0.000 A 
ATOM      5  C   UNL     1       0.844  -0.252   0.004  0.00  0.00    +0.000 A 
ATOM      6  C   UNL     1       0.153  -0.031   1.189  0.00  0.00    +0.000 A 
ATOM      7  C   UNL     1      -1.236   0.111   1.161  0.00  0.00    +0.000 A 
ATOM      8  C   UNL     1      -1.928   0.040  -0.056  0.00  0.00    +0.000 A 
ATOM      9  F   UNL     1       2.176  -0.391   0.033  0.00  0.00    +0.000 F 
ENDBRANCH   1   8
BRANCH   2  10
ATOM     10  C   UNL     1      -5.577   1.209   0.107  0.00  0.00    +0.000 A 
ATOM     11  C   UNL     1      -6.336   0.224   0.760  0.00  0.00    +0.000 A 
ATOM     12  C   UNL     1      -7.728   0.195   0.628  0.00  0.00    +0.000 A 
ATOM     13  C   UNL     1      -8.370   1.151  -0.155  0.00  0.00    +0.000 A 
ATOM     14  C   UNL     1      -7.634   2.138  -0.806  0.00  0.00    +0.000 A 
ATOM     15  C   UNL     1      -6.242   2.168  -0.674  0.00  0.00    +0.000 A 
ATOM     16 CL   UNL     1     -10.082   1.113  -0.317  0.00  0.00    +0.000 Cl
ENDBRANCH   2  10
BRANCH   2  17
ATOM     17  C   UNL     1      -3.492   2.453   0.721  0.00  0.00    +0.000 C 
ATOM     18  N   UNL     1      -3.008   3.435   1.106  0.00  0.00    +0.000 NA
ENDBRANCH   2  17
TORSDOF 3
