REMARK  Name = *****
REMARK  3 active torsions:
REMARK  status: ('A' for Active; 'I' for Inactive)
REMARK    1  A    between atoms: C_1  and  C_2
REMARK    2  A    between atoms: C_5  and  C_8
REMARK    3  A    between atoms: N_9  and  C_10
REMARK                            x       y       z     vdW  Elec       q    Type
REMARK                         _______ _______ _______ _____ _____    ______ ____
ROOT
ATOM      1  C   UNL     1      -5.411   1.073  -0.129  0.00  0.00    +0.000 A 
ATOM      2  C   UNL     1      -6.124   1.983   0.663  0.00  0.00    +0.000 A 
ATOM      3  C   UNL     1      -7.515   1.957   0.713  0.00  0.00    +0.000 A 
ATOM      4  C   UNL     1      -8.220   1.027  -0.035  0.00  0.00    +0.000 A 
ATOM      5  C   UNL     1      -7.537   0.123  -0.834  0.00  0.00    +0.000 A 
ATOM      6  C   UNL     1      -6.147   0.148  -0.886  0.00  0.00    +0.000 A 
ATOM      7  F   UNL     1      -5.509  -0.737  -1.668  0.00  0.00    +0.000 F 
ATOM      8  F   UNL     1      -8.217  -0.779  -1.557  0.00  0.00    +0.000 F 
ATOM      9  F   UNL     1      -9.559   1.000   0.016  0.00  0.00    +0.000 F 
ATOM     10  F   UNL     1      -8.174   2.832   1.486  0.00  0.00    +0.000 F 
ATOM     11  F   UNL     1      -5.464   2.894   1.397  0.00  0.00    +0.000 F 
ENDROOT
BRANCH   1  13
ATOM     12  C   UNL     1      -3.319   0.093   0.088  0.00  0.00    +0.000 C 
ATOM     13  N   UNL     1      -4.004   1.157  -0.190  0.00  0.00    +0.000 NA
BRANCH  12  18
ATOM     14  C   UNL     1       2.455  -0.028  -0.072  0.00  0.00    +0.000 C 
ATOM     15  C   UNL     1       0.956   0.017  -0.004  0.00  0.00    +0.000 A 
ATOM     16  C   UNL     1       0.270   1.205  -0.287  0.00  0.00    +0.000 A 
ATOM     17  C   UNL     1      -1.126   1.240  -0.257  0.00  0.00    +0.000 A 
ATOM     18  C   UNL     1      -1.844   0.082   0.048  0.00  0.00    +0.000 A 
ATOM     19  C   UNL     1      -1.171  -1.112   0.317  0.00  0.00    +0.000 A 
ATOM     20  C   UNL     1       0.226  -1.143   0.285  0.00  0.00    +0.000 A 
ENDBRANCH  12  18
ENDBRANCH   1  13
TORSDOF 2
