REMARK  Name = *****
REMARK  5 active torsions:
REMARK  status: ('A' for Active; 'I' for Inactive)
REMARK    1  A    between atoms: C_1  and  C_2
REMARK    2  A    between atoms: C_4  and  O_8
REMARK    3  A    between atoms: O_8  and  C_9
REMARK    4  A    between atoms: C_9  and  C_11
REMARK    5  A    between atoms: C_13  and  C_17
REMARK                            x       y       z     vdW  Elec       q    Type
REMARK                         _______ _______ _______ _____ _____    ______ ____
ROOT
ATOM      1  C   UNL     1      -2.369   3.729  -1.359  0.00  0.00    +0.000 C 
ATOM      2  O   UNL     1      -3.157   4.649  -1.204  0.00  0.00    +0.000 OA
ENDROOT
BRANCH   1   3
ATOM      3  C   UNL     1      -1.221   3.793  -2.309  0.00  0.00    +0.000 A 
ATOM      4  C   UNL     1      -0.308   2.739  -2.471  0.00  0.00    +0.000 A 
ATOM      5  C   UNL     1       0.758   2.847  -3.383  0.00  0.00    +0.000 A 
ATOM      6  C   UNL     1       0.905   4.032  -4.120  0.00  0.00    +0.000 A 
ATOM      7  C   UNL     1       0.000   5.082  -3.964  0.00  0.00    +0.000 A 
ATOM      8  C   UNL     1      -1.058   4.963  -3.063  0.00  0.00    +0.000 A 
BRANCH   5   9
ATOM      9  C   UNL     1       1.750   1.719  -3.532  0.00  0.00    +0.000 C 
ATOM     10  F   UNL     1       1.178   0.491  -3.399  0.00  0.00    +0.000 F 
ATOM     11  F   UNL     1       2.375   1.709  -4.742  0.00  0.00    +0.000 F 
ATOM     12  F   UNL     1       2.738   1.776  -2.599  0.00  0.00    +0.000 F 
ENDBRANCH   5   9
ENDBRANCH   1   3
BRANCH   1  13
ATOM     13  O   UNL     1      -2.373   2.503  -0.719  0.00  0.00    +0.000 OA
BRANCH  13  17
ATOM     14  C   UNL     1      -3.667   1.232   3.837  0.00  0.00    +0.000 C 
ATOM     15  C   UNL     1      -4.040   1.638   2.442  0.00  0.00    +0.000 A 
ATOM     16  C   UNL     1      -3.048   1.925   1.497  0.00  0.00    +0.000 A 
ATOM     17  C   UNL     1      -3.411   2.280   0.198  0.00  0.00    +0.000 A 
ATOM     18  C   UNL     1      -4.747   2.309  -0.195  0.00  0.00    +0.000 A 
ATOM     19  C   UNL     1      -5.737   2.011   0.739  0.00  0.00    +0.000 A 
ATOM     20  C   UNL     1      -5.386   1.675   2.050  0.00  0.00    +0.000 A 
ENDBRANCH  13  17
ENDBRANCH   1  13
TORSDOF 4
