REMARK  Name = *****
REMARK  3 active torsions:
REMARK  status: ('A' for Active; 'I' for Inactive)
REMARK    1  A    between atoms: C_3  and  O_8
REMARK    2  A    between atoms: O_8  and  C_9
REMARK    3  A    between atoms: C_9  and  C_10
REMARK                            x       y       z     vdW  Elec       q    Type
REMARK                         _______ _______ _______ _____ _____    ______ ____
ROOT
ATOM      1  O   UNL     1      -1.927   2.394  -0.088  0.00  0.00    +0.000 OA
ENDROOT
BRANCH   1   4
ATOM      2  C   UNL     1      -1.269  -1.177  -0.085  0.00  0.00    +0.000 A 
ATOM      3  C   UNL     1      -1.910   0.065  -0.106  0.00  0.00    +0.000 A 
ATOM      4  C   UNL     1      -1.172   1.254  -0.059  0.00  0.00    +0.000 A 
ATOM      5  C   UNL     1       0.218   1.192   0.007  0.00  0.00    +0.000 A 
ATOM      6  C   UNL     1       0.848  -0.051   0.027  0.00  0.00    +0.000 A 
ATOM      7  C   UNL     1       0.120  -1.234  -0.018  0.00  0.00    +0.000 A 
ATOM      8  F   UNL     1       2.185  -0.106   0.088  0.00  0.00    +0.000 F 
ENDBRANCH   1   4
BRANCH   1   9
ATOM      9  C   UNL     1      -1.233   3.638   0.014  0.00  0.00    +0.000 C 
BRANCH   9  10
ATOM     10  C   UNL     1      -2.223   4.783   0.012  0.00  0.00    +0.000 A 
ATOM     11  C   UNL     1      -3.457   4.679   0.678  0.00  0.00    +0.000 A 
ATOM     12  C   UNL     1      -4.345   5.756   0.700  0.00  0.00    +0.000 A 
ATOM     13  C   UNL     1      -3.997   6.943   0.069  0.00  0.00    +0.000 A 
ATOM     14  C   UNL     1      -2.776   7.076  -0.581  0.00  0.00    +0.000 A 
ATOM     15  C   UNL     1      -1.887   5.999  -0.606  0.00  0.00    +0.000 A 
ATOM     16  F   UNL     1      -4.848   7.977   0.092  0.00  0.00    +0.000 F 
ENDBRANCH   9  10
ENDBRANCH   1   9
TORSDOF 3
