REMARK  Name = *****
REMARK  2 active torsions:
REMARK  status: ('A' for Active; 'I' for Inactive)
REMARK    1  A    between atoms: C_4  and  C_7
REMARK    2  A    between atoms: C_8  and  C_11
REMARK                            x       y       z     vdW  Elec       q    Type
REMARK                         _______ _______ _______ _____ _____    ______ ____
ROOT
ATOM      1  C   UNL     1      -2.388  -0.276  -0.713  0.00  0.00    +0.000 C 
ATOM      2  C   UNL     1      -2.412  -1.474   0.099  0.00  0.00    +0.000 C 
ATOM      3  C   UNL     1      -2.951  -0.380   0.635  0.00  0.00    +0.000 C 
ATOM      4 CL   UNL     1      -4.646  -0.105   0.718  0.00  0.00    +0.000 Cl
ENDROOT
BRANCH   1   8
ATOM      5  C   UNL     1       1.314   1.911  -1.320  0.00  0.00    +0.000 A 
ATOM      6  C   UNL     1       1.018   0.792  -2.091  0.00  0.00    +0.000 A 
ATOM      7  C   UNL     1      -0.176   0.096  -1.880  0.00  0.00    +0.000 A 
ATOM      8  C   UNL     1      -1.100   0.487  -0.893  0.00  0.00    +0.000 A 
ATOM      9  C   UNL     1      -0.778   1.634  -0.143  0.00  0.00    +0.000 A 
ATOM     10  C   UNL     1       0.415   2.334  -0.347  0.00  0.00    +0.000 A 
ENDBRANCH   1   8
BRANCH   2  11
ATOM     11  C   UNL     1      -1.316  -2.263   0.654  0.00  0.00    +0.000 A 
ATOM     12  C   UNL     1      -1.005  -2.260   2.021  0.00  0.00    +0.000 A 
ATOM     13  C   UNL     1       0.033  -3.055   2.514  0.00  0.00    +0.000 A 
ATOM     14  C   UNL     1       0.762  -3.868   1.649  0.00  0.00    +0.000 A 
ATOM     15  C   UNL     1       0.451  -3.893   0.292  0.00  0.00    +0.000 A 
ATOM     16  C   UNL     1      -0.589  -3.101  -0.201  0.00  0.00    +0.000 A 
ENDBRANCH   2  11
TORSDOF 2
