REMARK  Name = *****
REMARK  5 active torsions:
REMARK  status: ('A' for Active; 'I' for Inactive)
REMARK    1  A    between atoms: N_2  and  C_3
REMARK    2  A    between atoms: C_6  and  C_9
REMARK    3  A    between atoms: C_9  and  C_10
REMARK    4  A    between atoms: C_10  and  C_11
REMARK    5  A    between atoms: C_16  and  N_17
REMARK                            x       y       z     vdW  Elec       q    Type
REMARK                         _______ _______ _______ _____ _____    ______ ____
ROOT
ATOM      1  C   UNL     1       3.764   0.018   0.265  0.00  0.00    +0.000 C 
ENDROOT
BRANCH   1   5
ATOM      2  C   UNL     1      -0.516  -0.006  -0.060  0.00  0.00    +0.000 A 
ATOM      3  C   UNL     1       0.083  -0.531   1.082  0.00  0.00    +0.000 A 
ATOM      4  C   UNL     1       1.474  -0.516   1.186  0.00  0.00    +0.000 A 
ATOM      5  C   UNL     1       2.259   0.024   0.154  0.00  0.00    +0.000 A 
ATOM      6  C   UNL     1       1.632   0.542  -0.990  0.00  0.00    +0.000 A 
ATOM      7  C   UNL     1       0.241   0.531  -1.099  0.00  0.00    +0.000 A 
BRANCH   2   9
ATOM      8  C   UNL     1      -3.068  -0.030  -0.260  0.00  0.00    +0.000 C 
ATOM      9  N   UNL     1      -1.900  -0.019  -0.168  0.00  0.00    +0.000 NA
ENDBRANCH   2   9
ENDBRANCH   1   5
BRANCH   1  10
ATOM     10  C   UNL     1       4.358  -1.317  -0.195  0.00  0.00    +0.000 C 
BRANCH  10  11
ATOM     11  C   UNL     1       5.862  -1.341  -0.057  0.00  0.00    +0.000 A 
ATOM     12  C   UNL     1       6.666  -1.020  -1.160  0.00  0.00    +0.000 A 
ATOM     13  C   UNL     1       8.060  -1.020  -1.051  0.00  0.00    +0.000 A 
ATOM     14  C   UNL     1       8.672  -1.337   0.161  0.00  0.00    +0.000 A 
ATOM     15  C   UNL     1       7.891  -1.654   1.270  0.00  0.00    +0.000 A 
ATOM     16  C   UNL     1       6.499  -1.651   1.154  0.00  0.00    +0.000 A 
BRANCH  16  17
ATOM     17  N   UNL     1       5.754  -1.964   2.287  0.00  0.00    +0.000 NA
ATOM     18  C   UNL     1       5.137  -2.226   3.249  0.00  0.00    +0.000 C 
ENDBRANCH  16  17
ENDBRANCH  10  11
ENDBRANCH   1  10
TORSDOF 5
