REMARK  Name = *****
REMARK  1 active torsions:
REMARK  status: ('A' for Active; 'I' for Inactive)
REMARK    1  A    between atoms: C_3  and  C_12
REMARK                            x       y       z     vdW  Elec       q    Type
REMARK                         _______ _______ _______ _____ _____    ______ ____
ROOT
ATOM      1  C   UNL     1      -1.159   1.525  -0.067  0.00  0.00    +0.000 C 
ATOM      2  C   UNL     1      -2.203   0.419  -0.108  0.00  0.00    +0.000 C 
ATOM      3  C   UNL     1      -2.332  -0.516  -1.295  0.00  0.00    +0.000 C 
ATOM      4  C   UNL     1      -1.518  -0.936  -0.084  0.00  0.00    +0.000 C 
ATOM      5  C   UNL     1      -0.058  -0.618  -0.006  0.00  0.00    +0.000 A 
ATOM      6  C   UNL     1       0.151   0.775   0.009  0.00  0.00    +0.000 A 
ATOM      7  C   UNL     1       1.425   1.319   0.077  0.00  0.00    +0.000 A 
ATOM      8  C   UNL     1       2.509   0.444   0.130  0.00  0.00    +0.000 A 
ATOM      9  C   UNL     1       2.318  -0.946   0.113  0.00  0.00    +0.000 A 
ATOM     10  C   UNL     1       1.027  -1.482   0.044  0.00  0.00    +0.000 A 
ATOM     11 CL   UNL     1       4.108   1.077   0.214  0.00  0.00    +0.000 Cl
ENDROOT
BRANCH   3  12
ATOM     12  C   UNL     1      -3.655  -1.189  -1.577  0.00  0.00    +0.000 A 
ATOM     13  C   UNL     1      -4.832  -0.441  -1.748  0.00  0.00    +0.000 A 
ATOM     14  C   UNL     1      -6.055  -1.059  -2.024  0.00  0.00    +0.000 A 
ATOM     15  C   UNL     1      -6.124  -2.444  -2.142  0.00  0.00    +0.000 A 
ATOM     16  C   UNL     1      -4.971  -3.208  -1.988  0.00  0.00    +0.000 A 
ATOM     17  C   UNL     1      -3.751  -2.584  -1.713  0.00  0.00    +0.000 A 
ENDBRANCH   3  12
TORSDOF 1
