REMARK  Name = *****
REMARK  4 active torsions:
REMARK  status: ('A' for Active; 'I' for Inactive)
REMARK    1  A    between atoms: N_2  and  C_3
REMARK    2  A    between atoms: C_8  and  O_9
REMARK    3  A    between atoms: O_9  and  C_10
REMARK    4  A    between atoms: C_10  and  C_12
REMARK                            x       y       z     vdW  Elec       q    Type
REMARK                         _______ _______ _______ _____ _____    ______ ____
ROOT
ATOM      1  O   UNL     1      -0.814   2.835  -1.304  0.00  0.00    +0.000 OA
ENDROOT
BRANCH   1   7
ATOM      2  C   UNL     1      -0.453   1.088  -2.954  0.00  0.00    +0.000 A 
ATOM      3  C   UNL     1       0.182  -0.088  -3.349  0.00  0.00    +0.000 A 
ATOM      4  C   UNL     1       1.073  -0.709  -2.471  0.00  0.00    +0.000 A 
ATOM      5  C   UNL     1       1.328  -0.150  -1.214  0.00  0.00    +0.000 A 
ATOM      6  C   UNL     1       0.689   1.030  -0.824  0.00  0.00    +0.000 A 
ATOM      7  C   UNL     1      -0.215   1.637  -1.694  0.00  0.00    +0.000 A 
BRANCH   2   9
ATOM      8  C   UNL     1      -2.030   2.252  -4.601  0.00  0.00    +0.000 C 
ATOM      9  N   UNL     1      -1.314   1.719  -3.841  0.00  0.00    +0.000 NA
ENDBRANCH   2   9
ENDBRANCH   1   7
BRANCH   1  10
ATOM     10  C   UNL     1      -2.078   2.644  -0.776  0.00  0.00    +0.000 C 
ATOM     11  O   UNL     1      -2.640   1.574  -0.594  0.00  0.00    +0.000 OA
BRANCH  10  12
ATOM     12  C   UNL     1      -2.689   3.958  -0.433  0.00  0.00    +0.000 A 
ATOM     13  C   UNL     1      -2.034   5.179  -0.649  0.00  0.00    +0.000 A 
ATOM     14  C   UNL     1      -2.658   6.380  -0.305  0.00  0.00    +0.000 A 
ATOM     15  C   UNL     1      -3.936   6.371   0.253  0.00  0.00    +0.000 A 
ATOM     16  C   UNL     1      -4.595   5.162   0.469  0.00  0.00    +0.000 A 
ATOM     17  C   UNL     1      -3.975   3.959   0.127  0.00  0.00    +0.000 A 
ENDBRANCH  10  12
ENDBRANCH   1  10
TORSDOF 4
