REMARK  Name = *****
REMARK  5 active torsions:
REMARK  status: ('A' for Active; 'I' for Inactive)
REMARK    1  A    between atoms: C_1  and  O_2
REMARK    2  A    between atoms: O_2  and  C_3
REMARK    3  A    between atoms: C_3  and  C_5
REMARK    4  A    between atoms: C_8  and  C_10
REMARK    5  A    between atoms: C_11  and  C_12
REMARK                            x       y       z     vdW  Elec       q    Type
REMARK                         _______ _______ _______ _____ _____    ______ ____
ROOT
ATOM      1  C   UNL     1       4.725  -0.584   0.913  0.00  0.00    +0.000 A 
ATOM      2  C   UNL     1       5.435   0.532   0.517  0.00  0.00    +0.000 A 
ATOM      3  C   UNL     1       6.846   0.328   0.565  0.00  0.00    +0.000 A 
ATOM      4  C   UNL     1       7.199  -0.939   0.998  0.00  0.00    +0.000 A 
ATOM      5  S   UNL     1       5.781  -1.860   1.341  0.00  0.00    +0.000 S 
ENDROOT
BRANCH   1   6
ATOM      6  C   UNL     1       3.291  -0.786   1.003  0.00  0.00    +0.000 C 
ATOM      7  O   UNL     1       2.718  -1.808   1.363  0.00  0.00    +0.000 OA
BRANCH   6   9
ATOM      8  C   UNL     1       1.218   0.258   0.668  0.00  0.00    +0.000 C 
ATOM      9  O   UNL     1       2.642   0.354   0.618  0.00  0.00    +0.000 OA
ENDBRANCH   6   9
ENDBRANCH   1   6
BRANCH   4  10
ATOM     10  C   UNL     1       8.473  -1.554   1.188  0.00  0.00    +0.000 C 
ATOM     11  C   UNL     1       9.628  -0.918   0.933  0.00  0.00    +0.000 C 
BRANCH  11  12
ATOM     12  C   UNL     1      10.950  -1.533   1.126  0.00  0.00    +0.000 A 
ATOM     13  C   UNL     1      11.217  -2.859   0.755  0.00  0.00    +0.000 A 
ATOM     14  C   UNL     1      12.495  -3.401   0.924  0.00  0.00    +0.000 A 
ATOM     15  C   UNL     1      13.515  -2.615   1.454  0.00  0.00    +0.000 A 
ATOM     16  C   UNL     1      13.271  -1.292   1.812  0.00  0.00    +0.000 A 
ATOM     17  C   UNL     1      11.992  -0.751   1.642  0.00  0.00    +0.000 A 
ATOM     18 CL   UNL     1      15.088  -3.281   1.660  0.00  0.00    +0.000 Cl
ENDBRANCH  11  12
ENDBRANCH   4  10
TORSDOF 4
