REMARK  Name = *****
REMARK  4 active torsions:
REMARK  status: ('A' for Active; 'I' for Inactive)
REMARK    1  A    between atoms: C_1  and  N_2
REMARK    2  A    between atoms: N_2  and  C_3
REMARK    3  A    between atoms: N_2  and  C_11
REMARK    4  A    between atoms: C_4  and  C_5
REMARK                            x       y       z     vdW  Elec       q    Type
REMARK                         _______ _______ _______ _____ _____    ______ ____
ROOT
ATOM      1  C   UNL     1       0.945   0.267  -0.056  0.00  0.00    +0.000 C 
ATOM      2  N   UNL     1       2.401   0.106  -0.110  0.00  0.00    +0.000 N 
ENDROOT
BRANCH   2   3
ATOM      3  C   UNL     1       3.144   1.018   0.686  0.00  0.00    +0.000 A 
ATOM      4  C   UNL     1       2.664   1.501   1.916  0.00  0.00    +0.000 A 
ATOM      5  C   UNL     1       3.412   2.396   2.691  0.00  0.00    +0.000 A 
ATOM      6  C   UNL     1       4.657   2.825   2.244  0.00  0.00    +0.000 A 
ATOM      7  C   UNL     1       5.161   2.366   1.033  0.00  0.00    +0.000 A 
ATOM      8  C   UNL     1       4.409   1.470   0.264  0.00  0.00    +0.000 A 
ATOM      9 CL   UNL     1       5.576   3.926   3.193  0.00  0.00    +0.000 Cl
ENDBRANCH   2   3
BRANCH   2  10
ATOM     10  C   UNL     1       3.008  -0.983  -0.731  0.00  0.00    +0.000 C 
ATOM     11  C   UNL     1       2.468  -1.927  -1.517  0.00  0.00    +0.000 C 
BRANCH  11  12
ATOM     12  C   UNL     1       3.237  -3.037  -2.098  0.00  0.00    +0.000 A 
ATOM     13  C   UNL     1       4.163  -3.772  -1.346  0.00  0.00    +0.000 A 
ATOM     14  C   UNL     1       4.856  -4.840  -1.921  0.00  0.00    +0.000 A 
ATOM     15  C   UNL     1       4.622  -5.190  -3.250  0.00  0.00    +0.000 A 
ATOM     16  C   UNL     1       3.691  -4.475  -4.002  0.00  0.00    +0.000 A 
ATOM     17  C   UNL     1       2.998  -3.408  -3.427  0.00  0.00    +0.000 A 
ENDBRANCH  11  12
ENDBRANCH   2  10
TORSDOF 3
