REMARK  Name = *****
REMARK  5 active torsions:
REMARK  status: ('A' for Active; 'I' for Inactive)
REMARK    1  A    between atoms: C_1  and  C_2
REMARK    2  A    between atoms: C_7  and  C_8
REMARK    3  A    between atoms: C_8  and  N_9
REMARK    4  A    between atoms: N_9  and  C_10
REMARK    5  A    between atoms: N_9  and  C_11
REMARK                            x       y       z     vdW  Elec       q    Type
REMARK                         _______ _______ _______ _____ _____    ______ ____
ROOT
ATOM      1  C   UNL     1       1.076  -2.408  -0.108  0.00  0.00    +0.000 C 
ENDROOT
BRANCH   1   8
ATOM      2  C   UNL     1      -1.776  -1.887   0.684  0.00  0.00    +0.000 C 
ATOM      3  C   UNL     1      -0.763  -0.777   0.617  0.00  0.00    +0.000 A 
ATOM      4  C   UNL     1      -1.175   0.530   0.929  0.00  0.00    +0.000 A 
ATOM      5  C   UNL     1      -0.278   1.596   0.875  0.00  0.00    +0.000 A 
ATOM      6  C   UNL     1       1.043   1.372   0.506  0.00  0.00    +0.000 A 
ATOM      7  C   UNL     1       1.468   0.079   0.200  0.00  0.00    +0.000 A 
ATOM      8  C   UNL     1       0.587  -1.017   0.271  0.00  0.00    +0.000 A 
ENDBRANCH   1   8
BRANCH   1   9
ATOM      9  N   UNL     1       2.498  -2.650   0.212  0.00  0.00    +0.000 N 
ATOM     10  C   UNL     1       3.191  -3.523  -0.742  0.00  0.00    +0.000 C 
BRANCH   9  11
ATOM     11  C   UNL     1       2.903  -2.797   1.552  0.00  0.00    +0.000 A 
ATOM     12  C   UNL     1       2.004  -2.830   2.631  0.00  0.00    +0.000 A 
ATOM     13  C   UNL     1       2.436  -2.965   3.957  0.00  0.00    +0.000 A 
ATOM     14  C   UNL     1       3.792  -3.056   4.245  0.00  0.00    +0.000 A 
ATOM     15  C   UNL     1       4.711  -3.002   3.207  0.00  0.00    +0.000 A 
ATOM     16  C   UNL     1       4.269  -2.869   1.884  0.00  0.00    +0.000 A 
ENDBRANCH   9  11
ENDBRANCH   1   9
TORSDOF 3
