REMARK  Name = *****
REMARK  3 active torsions:
REMARK  status: ('A' for Active; 'I' for Inactive)
REMARK    1  A    between atoms: C_1  and  C_2
REMARK    2  A    between atoms: C_3  and  C_13
REMARK    3  A    between atoms: N_4  and  C_12
REMARK                            x       y       z     vdW  Elec       q    Type
REMARK                         _______ _______ _______ _____ _____    ______ ____
ROOT
ATOM      1  C   UNL     1       1.027  -0.102   0.524  0.00  0.00    +0.000 C 
ATOM      2  C   UNL     1       2.502  -0.107   0.181  0.00  0.00    +0.000 C 
ATOM      3  C   UNL     1       3.173  -1.316  -0.115  0.00  0.00    +0.000 C 
ATOM      4  N   UNL     1       4.502  -1.302  -0.423  0.00  0.00    +0.000 N 
ATOM      5  C   UNL     1       5.191  -0.139  -0.450  0.00  0.00    +0.000 C 
ATOM      6  C   UNL     1       4.590   1.084  -0.172  0.00  0.00    +0.000 A 
ATOM      7  C   UNL     1       5.340   2.273  -0.213  0.00  0.00    +0.000 A 
ATOM      8  C   UNL     1       4.744   3.501   0.062  0.00  0.00    +0.000 A 
ATOM      9  C   UNL     1       3.395   3.553   0.380  0.00  0.00    +0.000 A 
ATOM     10  C   UNL     1       2.643   2.377   0.424  0.00  0.00    +0.000 A 
ATOM     11  C   UNL     1       3.220   1.115   0.150  0.00  0.00    +0.000 A 
ATOM     12  C   UNL     1       5.240  -2.550  -0.739  0.00  0.00    +0.000 C 
ENDROOT
BRANCH   3  13
ATOM     13  C   UNL     1       2.518  -2.628  -0.116  0.00  0.00    +0.000 A 
ATOM     14  C   UNL     1       1.913  -3.126  -1.283  0.00  0.00    +0.000 A 
ATOM     15  C   UNL     1       1.298  -4.379  -1.285  0.00  0.00    +0.000 A 
ATOM     16  C   UNL     1       1.274  -5.146  -0.122  0.00  0.00    +0.000 A 
ATOM     17  C   UNL     1       1.858  -4.661   1.046  0.00  0.00    +0.000 A 
ATOM     18  C   UNL     1       2.474  -3.409   1.052  0.00  0.00    +0.000 A 
ENDBRANCH   3  13
TORSDOF 1
