REMARK  Name = *****
REMARK  2 active torsions:
REMARK  status: ('A' for Active; 'I' for Inactive)
REMARK    1  A    between atoms: C_1  and  C_2
REMARK    2  A    between atoms: C_5  and  C_8
REMARK                            x       y       z     vdW  Elec       q    Type
REMARK                         _______ _______ _______ _____ _____    ______ ____
ROOT
ATOM      1  C   UNL     1      -2.318  -1.950  -0.028  0.00  0.00    +0.000 A 
ATOM      2  N   UNL     1      -2.426  -3.269   0.007  0.00  0.00    +0.000 NA
ATOM      3  C   UNL     1      -3.779  -3.489  -0.043  0.00  0.00    +0.000 A 
ATOM      4  C   UNL     1      -4.522  -4.677  -0.039  0.00  0.00    +0.000 A 
ATOM      5  C   UNL     1      -5.921  -4.581  -0.101  0.00  0.00    +0.000 A 
ATOM      6  C   UNL     1      -6.560  -3.336  -0.164  0.00  0.00    +0.000 A 
ATOM      7  C   UNL     1      -5.830  -2.141  -0.169  0.00  0.00    +0.000 A 
ATOM      8  C   UNL     1      -4.449  -2.280  -0.107  0.00  0.00    +0.000 A 
ATOM      9  O   UNL     1      -3.517  -1.286  -0.098  0.00  0.00    +0.000 OA
ENDROOT
BRANCH   1  14
ATOM     10  C   UNL     1       2.583   1.136   0.071  0.00  0.00    +0.000 C 
ATOM     11  C   UNL     1       1.307   0.349   0.073  0.00  0.00    +0.000 A 
ATOM     12  C   UNL     1       0.072   0.995  -0.034  0.00  0.00    +0.000 A 
ATOM     13  C   UNL     1      -1.114   0.256  -0.064  0.00  0.00    +0.000 A 
ATOM     14  C   UNL     1      -1.104  -1.141   0.000  0.00  0.00    +0.000 A 
ATOM     15  C   UNL     1       0.143  -1.782   0.092  0.00  0.00    +0.000 A 
ATOM     16  C   UNL     1       1.334  -1.048   0.123  0.00  0.00    +0.000 A 
ATOM     17  F   UNL     1      -2.264   0.939  -0.163  0.00  0.00    +0.000 F 
ENDBRANCH   1  14
TORSDOF 1
