REMARK  Name = *****
REMARK  3 active torsions:
REMARK  status: ('A' for Active; 'I' for Inactive)
REMARK    1  A    between atoms: C_4  and  S_7
REMARK    2  A    between atoms: S_7  and  C_8
REMARK    3  A    between atoms: C_9  and  C_10
REMARK                            x       y       z     vdW  Elec       q    Type
REMARK                         _______ _______ _______ _____ _____    ______ ____
ROOT
ATOM      1  C   UNL     1       3.484  -2.054  -0.124  0.00  0.00    +0.000 C 
ATOM      2  C   UNL     1       4.667  -2.624  -0.399  0.00  0.00    +0.000 C 
ENDROOT
BRANCH   2   3
ATOM      3  C   UNL     1       5.660  -2.190  -1.389  0.00  0.00    +0.000 A 
ATOM      4  C   UNL     1       6.919  -1.761  -0.957  0.00  0.00    +0.000 A 
ATOM      5  C   UNL     1       7.888  -1.369  -1.884  0.00  0.00    +0.000 A 
ATOM      6  C   UNL     1       7.606  -1.412  -3.248  0.00  0.00    +0.000 A 
ATOM      7  C   UNL     1       6.356  -1.846  -3.687  0.00  0.00    +0.000 A 
ATOM      8  C   UNL     1       5.387  -2.237  -2.761  0.00  0.00    +0.000 A 
ENDBRANCH   2   3
BRANCH   1   9
ATOM      9  S   UNL     1       2.873  -0.626  -0.889  0.00  0.00    +0.000 S 
BRANCH   9  13
ATOM     10  C   UNL     1      -1.600   0.282  -0.077  0.00  0.00    +0.000 C 
ATOM     11  C   UNL     1      -1.135  -1.162   0.087  0.00  0.00    +0.000 C 
ATOM     12  C   UNL     1       0.229  -1.393  -0.563  0.00  0.00    +0.000 C 
ATOM     13  C   UNL     1       1.275  -0.407  -0.027  0.00  0.00    +0.000 C 
ATOM     14  C   UNL     1       0.805   1.041  -0.214  0.00  0.00    +0.000 C 
ATOM     15  C   UNL     1      -0.559   1.270   0.438  0.00  0.00    +0.000 C 
ENDBRANCH   9  13
ENDBRANCH   1   9
TORSDOF 3
