REMARK  Name = *****
REMARK  2 active torsions:
REMARK  status: ('A' for Active; 'I' for Inactive)
REMARK    1  A    between atoms: C_5  and  C_7
REMARK    2  A    between atoms: N_9  and  C_10
REMARK                            x       y       z     vdW  Elec       q    Type
REMARK                         _______ _______ _______ _____ _____    ______ ____
ROOT
ATOM      1  C   UNL     1       0.683  -2.616   0.021  0.00  0.00    +0.000 C 
ATOM      2  O   UNL     1      -0.095  -3.559  -0.091  0.00  0.00    +0.000 OA
ATOM      3  N   UNL     1       2.055  -2.718   0.149  0.00  0.00    +0.000 N 
ATOM      4  H   UNL     1       2.541  -1.869   0.249  0.00  0.00    +0.000 HD
ENDROOT
BRANCH   1   9
ATOM      5  C   UNL     1      -1.873   0.177   0.100  0.00  0.00    +0.000 A 
ATOM      6  C   UNL     1      -1.073   1.318   0.064  0.00  0.00    +0.000 A 
ATOM      7  C   UNL     1       0.314   1.189   0.015  0.00  0.00    +0.000 A 
ATOM      8  C   UNL     1       0.894  -0.080   0.003  0.00  0.00    +0.000 A 
ATOM      9  C   UNL     1       0.110  -1.235   0.039  0.00  0.00    +0.000 A 
ATOM     10  C   UNL     1      -1.286  -1.092   0.086  0.00  0.00    +0.000 A 
ATOM     11  F   UNL     1       2.233  -0.153  -0.044  0.00  0.00    +0.000 F 
ENDBRANCH   1   9
BRANCH   3  12
ATOM     12  C   UNL     1       2.850  -3.891   0.155  0.00  0.00    +0.000 A 
ATOM     13  C   UNL     1       2.329  -5.175  -0.029  0.00  0.00    +0.000 A 
ATOM     14  C   UNL     1       3.168  -6.295  -0.019  0.00  0.00    +0.000 A 
ATOM     15  C   UNL     1       4.539  -6.149   0.177  0.00  0.00    +0.000 A 
ATOM     16  C   UNL     1       5.077  -4.878   0.363  0.00  0.00    +0.000 A 
ATOM     17  C   UNL     1       4.239  -3.759   0.351  0.00  0.00    +0.000 A 
ATOM     18 CL   UNL     1       4.964  -2.203   0.590  0.00  0.00    +0.000 Cl
ENDBRANCH   3  12
TORSDOF 2
