REMARK  Name = *****
REMARK  1 active torsions:
REMARK  status: ('A' for Active; 'I' for Inactive)
REMARK    1  A    between atoms: C_9  and  C_10
REMARK                            x       y       z     vdW  Elec       q    Type
REMARK                         _______ _______ _______ _____ _____    ______ ____
ROOT
ATOM      1  C   UNL     1      -2.595  -0.876  -0.014  0.00  0.00    +0.000 A 
ATOM      2  C   UNL     1      -2.711   0.504  -0.010  0.00  0.00    +0.000 A 
ATOM      3  C   UNL     1      -1.557   1.284  -0.003  0.00  0.00    +0.000 A 
ATOM      4  C   UNL     1      -0.271   0.699   0.001  0.00  0.00    +0.000 A 
ATOM      5  C   UNL     1      -0.133  -0.696  -0.003  0.00  0.00    +0.000 A 
ATOM      6  C   UNL     1      -1.325  -1.460  -0.010  0.00  0.00    +0.000 A 
ATOM      7  C   UNL     1       1.199  -1.415   0.002  0.00  0.00    +0.000 A 
ATOM      8  C   UNL     1       2.301  -0.632   0.005  0.00  0.00    +0.000 A 
ATOM      9  C   UNL     1       2.483   0.812   0.007  0.00  0.00    +0.000 A 
ATOM     10  S   UNL     1       1.082   1.849   0.011  0.00  0.00    +0.000 S 
ATOM     11  O   UNL     1       1.248  -2.684   0.001  0.00  0.00    +0.000 OA
ENDROOT
BRANCH   9  12
ATOM     12  C   UNL     1       3.718   1.377   0.006  0.00  0.00    +0.000 C 
ATOM     13  C   UNL     1       5.010   0.689   0.004  0.00  0.00    +0.000 C 
ATOM     14  C   UNL     1       5.976   1.623   0.005  0.00  0.00    +0.000 C 
ATOM     15  C   UNL     1       5.370   2.937   0.008  0.00  0.00    +0.000 C 
ATOM     16  C   UNL     1       4.035   2.808   0.009  0.00  0.00    +0.000 C 
ENDBRANCH   9  12
TORSDOF 1
