REMARK  Name = *****
REMARK  5 active torsions:
REMARK  status: ('A' for Active; 'I' for Inactive)
REMARK    1  A    between atoms: C_1  and  C_2
REMARK    2  A    between atoms: C_2  and  C_3
REMARK    3  A    between atoms: C_2  and  O_9
REMARK    4  A    between atoms: O_9  and  C_10
REMARK    5  A    between atoms: C_10  and  C_12
REMARK                            x       y       z     vdW  Elec       q    Type
REMARK                         _______ _______ _______ _____ _____    ______ ____
ROOT
ATOM      1  O   UNL     1       3.035   1.437   0.041  0.00  0.00    +0.000 OA
ENDROOT
BRANCH   1   3
ATOM      2  C   UNL     1       3.205  -0.650  -1.174  0.00  0.00    +0.000 C 
ATOM      3  C   UNL     1       2.571   0.075   0.012  0.00  0.00    +0.000 C 
BRANCH   3   4
ATOM      4  C   UNL     1       1.057   0.077  -0.110  0.00  0.00    +0.000 A 
ATOM      5  C   UNL     1       0.385   1.004  -0.922  0.00  0.00    +0.000 A 
ATOM      6  C   UNL     1      -1.006   0.978  -1.032  0.00  0.00    +0.000 A 
ATOM      7  C   UNL     1      -1.744   0.020  -0.339  0.00  0.00    +0.000 A 
ATOM      8  C   UNL     1      -1.091  -0.913   0.464  0.00  0.00    +0.000 A 
ATOM      9  C   UNL     1       0.301  -0.886   0.576  0.00  0.00    +0.000 A 
ENDBRANCH   3   4
ENDBRANCH   1   3
BRANCH   1  10
ATOM     10  C   UNL     1       4.198   1.650   0.701  0.00  0.00    +0.000 C 
ATOM     11  O   UNL     1       4.872   0.802   1.263  0.00  0.00    +0.000 OA
BRANCH  10  12
ATOM     12  C   UNL     1       4.559   3.093   0.665  0.00  0.00    +0.000 A 
ATOM     13  C   UNL     1       5.625   3.529   1.464  0.00  0.00    +0.000 A 
ATOM     14  C   UNL     1       6.005   4.873   1.460  0.00  0.00    +0.000 A 
ATOM     15  C   UNL     1       5.325   5.786   0.655  0.00  0.00    +0.000 A 
ATOM     16  C   UNL     1       4.265   5.360  -0.145  0.00  0.00    +0.000 A 
ATOM     17  C   UNL     1       3.880   4.018  -0.141  0.00  0.00    +0.000 A 
ENDBRANCH  10  12
ENDBRANCH   1  10
TORSDOF 4
