REMARK  Name = *****
REMARK  6 active torsions:
REMARK  status: ('A' for Active; 'I' for Inactive)
REMARK    1  A    between atoms: C_1  and  C_2
REMARK    2  A    between atoms: C_5  and  S_8
REMARK    3  A    between atoms: S_8  and  O_10
REMARK    4  A    between atoms: O_10  and  C_11
REMARK    5  A    between atoms: C_12  and  C_18
REMARK    6  A    between atoms: C_16  and  C_17
REMARK                            x       y       z     vdW  Elec       q    Type
REMARK                         _______ _______ _______ _____ _____    ______ ____
ROOT
ATOM      1  S   UNL     1      -3.542   0.521  -0.100  0.00  0.00    +0.000 S 
ATOM      2  O   UNL     1      -2.950   0.945   1.213  0.00  0.00    +0.000 OA
ENDROOT
BRANCH   1   7
ATOM      3  C   UNL     1       0.888   1.353  -4.245  0.00  0.00    +0.000 C 
ATOM      4  C   UNL     1      -0.201   1.147  -3.234  0.00  0.00    +0.000 A 
ATOM      5  C   UNL     1      -1.302   0.330  -3.518  0.00  0.00    +0.000 A 
ATOM      6  C   UNL     1      -2.308   0.142  -2.565  0.00  0.00    +0.000 A 
ATOM      7  C   UNL     1      -2.222   0.767  -1.317  0.00  0.00    +0.000 A 
ATOM      8  C   UNL     1      -1.117   1.572  -1.026  0.00  0.00    +0.000 A 
ATOM      9  C   UNL     1      -0.113   1.761  -1.979  0.00  0.00    +0.000 A 
ENDBRANCH   1   7
BRANCH   1  10
ATOM     10  O   UNL     1      -4.393   1.768  -0.679  0.00  0.00    +0.000 OA
BRANCH  10  11
ATOM     11  C   UNL     1      -5.723   1.755  -0.331  0.00  0.00    +0.000 A 
ATOM     12  C   UNL     1      -6.146   2.456   0.812  0.00  0.00    +0.000 A 
ATOM     13  C   UNL     1      -7.504   2.431   1.156  0.00  0.00    +0.000 A 
ATOM     14  C   UNL     1      -8.427   1.762   0.353  0.00  0.00    +0.000 A 
ATOM     15  C   UNL     1      -8.006   1.116  -0.808  0.00  0.00    +0.000 A 
ATOM     16  C   UNL     1      -6.654   1.122  -1.177  0.00  0.00    +0.000 A 
ATOM     17  C   UNL     1      -6.231   0.427  -2.439  0.00  0.00    +0.000 C 
ATOM     18  C   UNL     1      -5.182   3.185   1.707  0.00  0.00    +0.000 C 
ENDBRANCH  10  11
ENDBRANCH   1  10
TORSDOF 3
