REMARK  Name = *****
REMARK  3 active torsions:
REMARK  status: ('A' for Active; 'I' for Inactive)
REMARK    1  A    between atoms: C_1  and  C_2
REMARK    2  A    between atoms: C_5  and  C_7
REMARK    3  A    between atoms: N_8  and  C_9
REMARK                            x       y       z     vdW  Elec       q    Type
REMARK                         _______ _______ _______ _____ _____    ______ ____
ROOT
ATOM      1  C   UNL     1      -5.317   0.610   0.093  0.00  0.00    +0.000 A 
ATOM      2  C   UNL     1      -6.322   0.055  -0.712  0.00  0.00    +0.000 A 
ATOM      3  C   UNL     1      -7.583   0.639  -0.792  0.00  0.00    +0.000 A 
ATOM      4  C   UNL     1      -7.867   1.784  -0.063  0.00  0.00    +0.000 A 
ATOM      5  C   UNL     1      -6.892   2.345   0.748  0.00  0.00    +0.000 A 
ATOM      6  C   UNL     1      -5.632   1.762   0.830  0.00  0.00    +0.000 A 
ATOM      7  F   UNL     1      -4.703   2.323   1.620  0.00  0.00    +0.000 F 
ATOM      8  F   UNL     1      -7.163   3.454   1.452  0.00  0.00    +0.000 F 
ATOM      9  F   UNL     1      -9.080   2.348  -0.143  0.00  0.00    +0.000 F 
ATOM     10  F   UNL     1      -8.524   0.096  -1.577  0.00  0.00    +0.000 F 
ATOM     11  F   UNL     1      -6.071  -1.052  -1.428  0.00  0.00    +0.000 F 
ENDROOT
BRANCH   1  13
ATOM     12  C   UNL     1      -3.004   0.658  -0.080  0.00  0.00    +0.000 C 
ATOM     13  N   UNL     1      -4.067  -0.035   0.189  0.00  0.00    +0.000 NA
BRANCH  12  18
ATOM     14  C   UNL     1       2.215  -0.115  -0.180  0.00  0.00    +0.000 C 
ATOM     15  C   UNL     1       0.744  -0.305  -0.044  0.00  0.00    +0.000 A 
ATOM     16  C   UNL     1       0.054  -1.447   0.308  0.00  0.00    +0.000 A 
ATOM     17  C   UNL     1      -1.355  -1.238   0.336  0.00  0.00    +0.000 A 
ATOM     18  C   UNL     1      -1.697   0.057   0.004  0.00  0.00    +0.000 A 
ATOM     19  S   UNL     1      -0.318   1.005  -0.337  0.00  0.00    +0.000 S 
ENDBRANCH  12  18
ENDBRANCH   1  13
TORSDOF 2
