REMARK  Name = *****
REMARK  1 active torsions:
REMARK  status: ('A' for Active; 'I' for Inactive)
REMARK    1  A    between atoms: C_8  and  C_10
REMARK                            x       y       z     vdW  Elec       q    Type
REMARK                         _______ _______ _______ _____ _____    ______ ____
ROOT
ATOM      1  C   UNL     1      -2.642  -0.371   0.037  0.00  0.00    +0.000 A 
ATOM      2  C   UNL     1      -2.343   0.985   0.059  0.00  0.00    +0.000 A 
ATOM      3  C   UNL     1      -1.015   1.419   0.050  0.00  0.00    +0.000 A 
ATOM      4  C   UNL     1       0.016   0.460   0.018  0.00  0.00    +0.000 A 
ATOM      5  C   UNL     1      -0.260  -0.908  -0.006  0.00  0.00    +0.000 A 
ATOM      6  C   UNL     1      -1.615  -1.319   0.004  0.00  0.00    +0.000 A 
ATOM      7  C   UNL     1       0.949  -1.679  -0.039  0.00  0.00    +0.000 A 
ATOM      8  C   UNL     1       2.094  -0.906  -0.038  0.00  0.00    +0.000 A 
ATOM      9  S   UNL     1       1.711   0.759   0.001  0.00  0.00    +0.000 S 
ENDROOT
BRANCH   8  10
ATOM     10  C   UNL     1       3.533  -1.353  -0.069  0.00  0.00    +0.000 C 
ATOM     11  C   UNL     1       3.910  -2.160  -1.293  0.00  0.00    +0.000 C 
ATOM     12  C   UNL     1       4.402  -3.355  -0.928  0.00  0.00    +0.000 C 
ATOM     13  C   UNL     1       4.406  -3.451   0.509  0.00  0.00    +0.000 C 
ATOM     14  C   UNL     1       3.916  -2.318   1.033  0.00  0.00    +0.000 C 
ENDBRANCH   8  10
TORSDOF 1
