REMARK  Name = *****
REMARK  3 active torsions:
REMARK  status: ('A' for Active; 'I' for Inactive)
REMARK    1  A    between atoms: C_1  and  C_2
REMARK    2  A    between atoms: C_5  and  C_10
REMARK    3  A    between atoms: C_11  and  C_12
REMARK                            x       y       z     vdW  Elec       q    Type
REMARK                         _______ _______ _______ _____ _____    ______ ____
ROOT
ATOM      1  C   UNL     1       1.101   0.069  -0.014  0.00  0.00    +0.000 C 
ATOM      2  C   UNL     1       2.597   0.080  -0.009  0.00  0.00    +0.000 A 
ATOM      3  C   UNL     1       3.341  -1.102  -0.004  0.00  0.00    +0.000 A 
ATOM      4  C   UNL     1       4.736  -1.076   0.002  0.00  0.00    +0.000 A 
ATOM      5  C   UNL     1       5.423   0.137   0.003  0.00  0.00    +0.000 A 
ATOM      6  C   UNL     1       4.688   1.322  -0.002  0.00  0.00    +0.000 A 
ATOM      7  C   UNL     1       3.294   1.290  -0.007  0.00  0.00    +0.000 A 
ATOM      8  F   UNL     1       2.610   2.444  -0.011  0.00  0.00    +0.000 F 
ATOM      9  F   UNL     1       5.316   2.508  -0.000  0.00  0.00    +0.000 F 
ATOM     10  F   UNL     1       5.410  -2.236   0.006  0.00  0.00    +0.000 F 
ATOM     11  F   UNL     1       2.709  -2.285  -0.004  0.00  0.00    +0.000 F 
ENDROOT
BRANCH   5  12
ATOM     12  C   UNL     1       6.852   0.166   0.009  0.00  0.00    +0.000 C 
ATOM     13  C   UNL     1       8.053   0.190   0.015  0.00  0.00    +0.000 C 
BRANCH  13  14
ATOM     14  C   UNL     1       9.478   0.220   0.021  0.00  0.00    +0.000 A 
ATOM     15  C   UNL     1      10.244   1.366   0.023  0.00  0.00    +0.000 A 
ATOM     16  C   UNL     1      11.642   1.081   0.031  0.00  0.00    +0.000 A 
ATOM     17  C   UNL     1      11.890  -0.273   0.034  0.00  0.00    +0.000 A 
ATOM     18  S   UNL     1      10.445  -1.190   0.029  0.00  0.00    +0.000 S 
ENDBRANCH  13  14
ENDBRANCH   5  12
TORSDOF 2
