REMARK  Name = *****
REMARK  3 active torsions:
REMARK  status: ('A' for Active; 'I' for Inactive)
REMARK    1  A    between atoms: C_4  and  C_7
REMARK    2  A    between atoms: C_7  and  C_8
REMARK    3  A    between atoms: C_8  and  C_9
REMARK                            x       y       z     vdW  Elec       q    Type
REMARK                         _______ _______ _______ _____ _____    ______ ____
ROOT
ATOM      1  C   UNL     1      -2.771   0.743  -0.024  0.00  0.00    +0.000 C 
ATOM      2  F   UNL     1      -3.586  -0.344   0.171  0.00  0.00    +0.000 F 
ENDROOT
BRANCH   1   6
ATOM      3  C   UNL     1       1.374  -0.442   0.301  0.00  0.00    +0.000 A 
ATOM      4  C   UNL     1       0.971   0.806   0.771  0.00  0.00    +0.000 A 
ATOM      5  C   UNL     1      -0.367   1.192   0.674  0.00  0.00    +0.000 A 
ATOM      6  C   UNL     1      -1.315   0.331   0.101  0.00  0.00    +0.000 A 
ATOM      7  C   UNL     1      -0.897  -0.925  -0.364  0.00  0.00    +0.000 A 
ATOM      8  C   UNL     1       0.441  -1.308  -0.265  0.00  0.00    +0.000 A 
ENDBRANCH   1   6
BRANCH   1   9
ATOM      9  C   UNL     1      -3.116   1.357  -1.401  0.00  0.00    +0.000 C 
ATOM     10 CL   UNL     1      -2.217   2.889  -1.712  0.00  0.00    +0.000 Cl
BRANCH   9  11
ATOM     11  C   UNL     1      -4.601   1.636  -1.574  0.00  0.00    +0.000 A 
ATOM     12  C   UNL     1      -5.295   2.507  -0.716  0.00  0.00    +0.000 A 
ATOM     13  C   UNL     1      -6.660   2.743  -0.892  0.00  0.00    +0.000 A 
ATOM     14  C   UNL     1      -7.350   2.115  -1.926  0.00  0.00    +0.000 A 
ATOM     15  C   UNL     1      -6.677   1.252  -2.786  0.00  0.00    +0.000 A 
ATOM     16  C   UNL     1      -5.312   1.014  -2.613  0.00  0.00    +0.000 A 
ENDBRANCH   9  11
ENDBRANCH   1   9
TORSDOF 3
