REMARK  Name = *****
REMARK  2 active torsions:
REMARK  status: ('A' for Active; 'I' for Inactive)
REMARK    1  A    between atoms: C_2  and  C_10
REMARK    2  A    between atoms: C_10  and  C_11
REMARK                            x       y       z     vdW  Elec       q    Type
REMARK                         _______ _______ _______ _____ _____    ______ ____
ROOT
ATOM      1  C   UNL     1      -1.153  -1.459   0.350  0.00  0.00    +0.000 C 
ATOM      2  C   UNL     1      -2.348  -0.500   0.527  0.00  0.00    +0.000 C 
ATOM      3  S   UNL     1      -1.630   1.065   1.167  0.00  0.00    +0.000 S 
ATOM      4  C   UNL     1      -0.055   0.712   0.447  0.00  0.00    +0.000 A 
ATOM      5  C   UNL     1       0.996   1.600   0.283  0.00  0.00    +0.000 A 
ATOM      6  C   UNL     1       2.175   1.142  -0.310  0.00  0.00    +0.000 A 
ATOM      7  C   UNL     1       2.289  -0.193  -0.720  0.00  0.00    +0.000 A 
ATOM      8  C   UNL     1       1.227  -1.082  -0.543  0.00  0.00    +0.000 A 
ATOM      9  C   UNL     1       0.050  -0.618   0.034  0.00  0.00    +0.000 A 
ENDROOT
BRANCH   2  10
ATOM     10  C   UNL     1      -3.419  -1.097   1.446  0.00  0.00    +0.000 C 
BRANCH  10  11
ATOM     11  C   UNL     1      -4.725  -0.339   1.437  0.00  0.00    +0.000 A 
ATOM     12  C   UNL     1      -5.630  -0.495   0.377  0.00  0.00    +0.000 A 
ATOM     13  C   UNL     1      -6.834   0.211   0.365  0.00  0.00    +0.000 A 
ATOM     14  C   UNL     1      -7.145   1.081   1.408  0.00  0.00    +0.000 A 
ATOM     15  C   UNL     1      -6.251   1.245   2.465  0.00  0.00    +0.000 A 
ATOM     16  C   UNL     1      -5.047   0.539   2.480  0.00  0.00    +0.000 A 
ENDBRANCH  10  11
ENDBRANCH   2  10
TORSDOF 2
