REMARK  Name = *****
REMARK  4 active torsions:
REMARK  status: ('A' for Active; 'I' for Inactive)
REMARK    1  A    between atoms: C_1  and  C_2
REMARK    2  A    between atoms: C_2  and  C_10
REMARK    3  A    between atoms: C_3  and  C_4
REMARK    4  A    between atoms: C_15  and  N_16
REMARK                            x       y       z     vdW  Elec       q    Type
REMARK                         _______ _______ _______ _____ _____    ______ ____
ROOT
ATOM      1  C   UNL     1       0.936  -0.176   0.003  0.00  0.00    +0.000 C 
ATOM      2  C   UNL     1       2.429  -0.060   0.119  0.00  0.00    +0.000 C 
ATOM      3  C   UNL     1       3.111   0.854   0.834  0.00  0.00    +0.000 C 
ENDROOT
BRANCH   3   4
ATOM      4  C   UNL     1       2.487   1.895   1.651  0.00  0.00    +0.000 A 
ATOM      5  C   UNL     1       2.068   1.608   2.955  0.00  0.00    +0.000 A 
ATOM      6  C   UNL     1       1.469   2.600   3.733  0.00  0.00    +0.000 A 
ATOM      7  C   UNL     1       1.286   3.880   3.211  0.00  0.00    +0.000 A 
ATOM      8  C   UNL     1       1.701   4.170   1.912  0.00  0.00    +0.000 A 
ATOM      9  C   UNL     1       2.301   3.180   1.132  0.00  0.00    +0.000 A 
ENDBRANCH   3   4
BRANCH   2  10
ATOM     10  C   UNL     1       3.200  -1.067  -0.634  0.00  0.00    +0.000 A 
ATOM     11  C   UNL     1       3.552  -0.802  -1.965  0.00  0.00    +0.000 A 
ATOM     12  C   UNL     1       4.290  -1.733  -2.703  0.00  0.00    +0.000 A 
ATOM     13  C   UNL     1       4.688  -2.937  -2.120  0.00  0.00    +0.000 A 
ATOM     14  C   UNL     1       4.350  -3.215  -0.797  0.00  0.00    +0.000 A 
ATOM     15  C   UNL     1       3.613  -2.280  -0.066  0.00  0.00    +0.000 A 
BRANCH  15  16
ATOM     16  N   UNL     1       3.295  -2.589   1.253  0.00  0.00    +0.000 NA
ATOM     17  C   UNL     1       3.039  -2.873   2.362  0.00  0.00    +0.000 C 
ENDBRANCH  15  16
ENDBRANCH   2  10
TORSDOF 3
