REMARK  Name = *****
REMARK  6 active torsions:
REMARK  status: ('A' for Active; 'I' for Inactive)
REMARK    1  A    between atoms: C_1  and  C_2
REMARK    2  A    between atoms: C_4  and  C_18
REMARK    3  A    between atoms: C_5  and  C_9
REMARK    4  A    between atoms: C_6  and  C_8
REMARK    5  A    between atoms: C_9  and  N_10
REMARK    6  A    between atoms: N_10  and  C_11
REMARK                            x       y       z     vdW  Elec       q    Type
REMARK                         _______ _______ _______ _____ _____    ______ ____
ROOT
ATOM      1  C   UNL     1       2.175   1.931  -0.053  0.00  0.00    +0.000 C 
ATOM      2  C   UNL     1       1.087   0.898  -0.026  0.00  0.00    +0.000 A 
ATOM      3  C   UNL     1       1.392  -0.465  -0.115  0.00  0.00    +0.000 A 
ATOM      4  C   UNL     1       0.382  -1.440  -0.075  0.00  0.00    +0.000 A 
ATOM      5  C   UNL     1      -0.947  -1.022   0.111  0.00  0.00    +0.000 A 
ATOM      6  C   UNL     1      -1.278   0.343   0.197  0.00  0.00    +0.000 A 
ATOM      7  C   UNL     1      -0.247   1.292   0.131  0.00  0.00    +0.000 A 
ATOM      8  C   UNL     1      -2.697   0.810   0.371  0.00  0.00    +0.000 C 
ATOM      9  C   UNL     1       0.777  -2.886  -0.191  0.00  0.00    +0.000 C 
ENDROOT
BRANCH   5  10
ATOM     10  C   UNL     1      -2.046  -1.995   0.141  0.00  0.00    +0.000 C 
BRANCH  10  11
ATOM     11  N   UNL     1      -2.207  -2.852   1.121  0.00  0.00    +0.000 N 
ATOM     12  O   UNL     1      -1.416  -2.926   2.118  0.00  0.00    +0.000 OA
BRANCH  11  13
ATOM     13  C   UNL     1      -3.335  -3.763   1.032  0.00  0.00    +0.000 A 
ATOM     14  C   UNL     1      -3.098  -5.136   1.147  0.00  0.00    +0.000 A 
ATOM     15  C   UNL     1      -4.169  -6.026   1.069  0.00  0.00    +0.000 A 
ATOM     16  C   UNL     1      -5.467  -5.543   0.891  0.00  0.00    +0.000 A 
ATOM     17  C   UNL     1      -5.701  -4.169   0.796  0.00  0.00    +0.000 A 
ATOM     18  C   UNL     1      -4.636  -3.272   0.870  0.00  0.00    +0.000 A 
ENDBRANCH  11  13
ENDBRANCH  10  11
ENDBRANCH   5  10
TORSDOF 3
