REMARK  Name = *****
REMARK  4 active torsions:
REMARK  status: ('A' for Active; 'I' for Inactive)
REMARK    1  A    between atoms: C_1  and  S_2
REMARK    2  A    between atoms: S_2  and  C_3
REMARK    3  A    between atoms: C_8  and  C_9
REMARK    4  A    between atoms: C_10  and  C_11
REMARK                            x       y       z     vdW  Elec       q    Type
REMARK                         _______ _______ _______ _____ _____    ______ ____
ROOT
ATOM      1  C   UNL     1       3.233  -1.631   0.665  0.00  0.00    +0.000 A 
ATOM      2  C   UNL     1       4.104  -1.642   1.764  0.00  0.00    +0.000 A 
ATOM      3  C   UNL     1       4.508  -2.848   2.341  0.00  0.00    +0.000 A 
ATOM      4  C   UNL     1       4.049  -4.056   1.821  0.00  0.00    +0.000 A 
ATOM      5  C   UNL     1       3.190  -4.059   0.722  0.00  0.00    +0.000 A 
ATOM      6  C   UNL     1       2.780  -2.853   0.136  0.00  0.00    +0.000 A 
ENDROOT
BRANCH   1   8
ATOM      7  C   UNL     1       1.123   0.114   0.719  0.00  0.00    +0.000 C 
ATOM      8  S   UNL     1       2.777  -0.031  -0.006  0.00  0.00    +0.000 S 
ENDBRANCH   1   8
BRANCH   6   9
ATOM      9  C   UNL     1       1.907  -2.919  -1.000  0.00  0.00    +0.000 C 
ATOM     10  C   UNL     1       1.174  -2.962  -1.951  0.00  0.00    +0.000 C 
BRANCH  10  11
ATOM     11  C   UNL     1       0.301  -2.989  -3.083  0.00  0.00    +0.000 A 
ATOM     12  C   UNL     1      -0.315  -4.182  -3.467  0.00  0.00    +0.000 A 
ATOM     13  C   UNL     1      -1.169  -4.202  -4.572  0.00  0.00    +0.000 A 
ATOM     14  C   UNL     1      -1.408  -3.032  -5.291  0.00  0.00    +0.000 A 
ATOM     15  C   UNL     1      -0.794  -1.839  -4.909  0.00  0.00    +0.000 A 
ATOM     16  C   UNL     1       0.061  -1.817  -3.805  0.00  0.00    +0.000 A 
ENDBRANCH  10  11
ENDBRANCH   6   9
TORSDOF 3
