REMARK  Name = *****
REMARK  2 active torsions:
REMARK  status: ('A' for Active; 'I' for Inactive)
REMARK    1  A    between atoms: C_4  and  C_7
REMARK    2  A    between atoms: C_8  and  C_9
REMARK                            x       y       z     vdW  Elec       q    Type
REMARK                         _______ _______ _______ _____ _____    ______ ____
ROOT
ATOM      1  C   UNL     1       2.899   0.129  -0.251  0.00  0.00    +0.000 C 
ATOM      2  C   UNL     1       4.097   0.164  -0.330  0.00  0.00    +0.000 C 
ENDROOT
BRANCH   2   3
ATOM      3  C   UNL     1       5.527   0.206  -0.421  0.00  0.00    +0.000 A 
ATOM      4  C   UNL     1       6.165   1.451  -0.409  0.00  0.00    +0.000 A 
ATOM      5  C   UNL     1       7.552   1.559  -0.495  0.00  0.00    +0.000 A 
ATOM      6  C   UNL     1       8.329   0.408  -0.594  0.00  0.00    +0.000 A 
ATOM      7  C   UNL     1       7.713  -0.845  -0.608  0.00  0.00    +0.000 A 
ATOM      8  C   UNL     1       6.317  -0.948  -0.522  0.00  0.00    +0.000 A 
ATOM      9  I   UNL     1       5.499  -2.884  -0.552  0.00  0.00    +0.000 I 
ATOM     10  F   UNL     1       5.447   2.581  -0.314  0.00  0.00    +0.000 F 
ENDBRANCH   2   3
BRANCH   1  14
ATOM     11  C   UNL     1      -1.312  -0.027   0.027  0.00  0.00    +0.000 A 
ATOM     12  C   UNL     1      -0.662   1.206  -0.019  0.00  0.00    +0.000 A 
ATOM     13  C   UNL     1       0.731   1.259  -0.111  0.00  0.00    +0.000 A 
ATOM     14  C   UNL     1       1.473   0.077  -0.158  0.00  0.00    +0.000 A 
ATOM     15  C   UNL     1       0.821  -1.157  -0.113  0.00  0.00    +0.000 A 
ATOM     16  C   UNL     1      -0.572  -1.209  -0.020  0.00  0.00    +0.000 A 
ENDBRANCH   1  14
TORSDOF 2
