REMARK  Name = *****
REMARK  3 active torsions:
REMARK  status: ('A' for Active; 'I' for Inactive)
REMARK    1  A    between atoms: C_4  and  O_7
REMARK    2  A    between atoms: O_7  and  C_8
REMARK    3  A    between atoms: C_8  and  C_9
REMARK                            x       y       z     vdW  Elec       q    Type
REMARK                         _______ _______ _______ _____ _____    ______ ____
ROOT
ATOM      1  C   UNL     1      -3.589  -0.453  -0.414  0.00  0.00    +0.000 C 
ENDROOT
BRANCH   1   2
ATOM      2  C   UNL     1      -4.996   0.111  -0.458  0.00  0.00    +0.000 A 
ATOM      3  C   UNL     1      -5.318   1.327   0.170  0.00  0.00    +0.000 A 
ATOM      4  C   UNL     1      -6.619   1.836   0.130  0.00  0.00    +0.000 A 
ATOM      5  C   UNL     1      -7.622   1.139  -0.536  0.00  0.00    +0.000 A 
ATOM      6  C   UNL     1      -7.325  -0.071  -1.162  0.00  0.00    +0.000 A 
ATOM      7  C   UNL     1      -6.023  -0.582  -1.122  0.00  0.00    +0.000 A 
ATOM      8 CL   UNL     1      -5.733  -2.092  -1.913  0.00  0.00    +0.000 Cl
ENDBRANCH   1   2
BRANCH   1   9
ATOM      9  O   UNL     1      -2.682   0.438   0.241  0.00  0.00    +0.000 OA
BRANCH   9  13
ATOM     10  C   UNL     1       1.352  -0.516   0.647  0.00  0.00    +0.000 A 
ATOM     11  C   UNL     1       0.513  -1.444   0.033  0.00  0.00    +0.000 A 
ATOM     12  C   UNL     1      -0.849  -1.167  -0.126  0.00  0.00    +0.000 A 
ATOM     13  C   UNL     1      -1.376   0.042   0.330  0.00  0.00    +0.000 A 
ATOM     14  C   UNL     1      -0.528   0.967   0.946  0.00  0.00    +0.000 A 
ATOM     15  C   UNL     1       0.831   0.692   1.105  0.00  0.00    +0.000 A 
ENDBRANCH   9  13
ENDBRANCH   1   9
TORSDOF 3
