REMARK  Name = *****
REMARK  7 active torsions:
REMARK  status: ('A' for Active; 'I' for Inactive)
REMARK    1  A    between atoms: C_1  and  C_2
REMARK    2  A    between atoms: C_3  and  C_9
REMARK    3  A    between atoms: C_4  and  C_8
REMARK    4  A    between atoms: C_9  and  C_11
REMARK    5  A    between atoms: C_11  and  C_12
REMARK    6  A    between atoms: C_12  and  C_13
REMARK    7  A    between atoms: C_18  and  C_19
REMARK                            x       y       z     vdW  Elec       q    Type
REMARK                         _______ _______ _______ _____ _____    ______ ____
ROOT
ATOM      1  C   UNL     1       0.194   2.295  -0.930  0.00  0.00    +0.000 C 
ATOM      2  O   UNL     1      -0.756   2.682  -1.603  0.00  0.00    +0.000 OA
ENDROOT
BRANCH   1   5
ATOM      3  C   UNL     1       1.971   0.155  -1.950  0.00  0.00    +0.000 C 
ATOM      4  C   UNL     1       1.016  -0.071  -0.812  0.00  0.00    +0.000 A 
ATOM      5  C   UNL     1       0.159   0.939  -0.329  0.00  0.00    +0.000 A 
ATOM      6  C   UNL     1      -0.742   0.689   0.726  0.00  0.00    +0.000 A 
ATOM      7  C   UNL     1      -0.762  -0.587   1.306  0.00  0.00    +0.000 A 
ATOM      8  C   UNL     1       0.101  -1.585   0.855  0.00  0.00    +0.000 A 
ATOM      9  C   UNL     1       0.984  -1.329  -0.194  0.00  0.00    +0.000 A 
ATOM     10  C   UNL     1      -1.692   1.742   1.228  0.00  0.00    +0.000 C 
ENDBRANCH   1   5
BRANCH   1  11
ATOM     11  C   UNL     1       1.425   3.134  -0.663  0.00  0.00    +0.000 C 
BRANCH  11  12
ATOM     12  C   UNL     1       1.035   4.582  -0.378  0.00  0.00    +0.000 C 
BRANCH  12  13
ATOM     13  C   UNL     1       2.251   5.437  -0.093  0.00  0.00    +0.000 A 
ATOM     14  C   UNL     1       2.727   5.505   1.228  0.00  0.00    +0.000 A 
ATOM     15  C   UNL     1       3.854   6.262   1.545  0.00  0.00    +0.000 A 
ATOM     16  C   UNL     1       4.523   6.960   0.546  0.00  0.00    +0.000 A 
ATOM     17  C   UNL     1       4.066   6.899  -0.770  0.00  0.00    +0.000 A 
ATOM     18  C   UNL     1       2.936   6.136  -1.108  0.00  0.00    +0.000 A 
ATOM     19  C   UNL     1       2.475   6.117  -2.540  0.00  0.00    +0.000 C 
ENDBRANCH  12  13
ENDBRANCH  11  12
ENDBRANCH   1  11
TORSDOF 4
