REMARK  Name = *****
REMARK  4 active torsions:
REMARK  status: ('A' for Active; 'I' for Inactive)
REMARK    1  A    between atoms: C_5  and  C_6
REMARK    2  A    between atoms: C_7  and  C_8
REMARK    3  A    between atoms: C_11  and  C_14
REMARK    4  A    between atoms: C_14  and  S_15
REMARK                            x       y       z     vdW  Elec       q    Type
REMARK                         _______ _______ _______ _____ _____    ______ ____
ROOT
ATOM      1  C   UNL     1      -4.158  -2.797  -0.024  0.00  0.00    +0.000 A 
ATOM      2  C   UNL     1      -5.134  -2.300  -0.897  0.00  0.00    +0.000 A 
ATOM      3  C   UNL     1      -6.432  -2.819  -0.886  0.00  0.00    +0.000 A 
ATOM      4  C   UNL     1      -6.779  -3.851  -0.004  0.00  0.00    +0.000 A 
ATOM      5  C   UNL     1      -5.797  -4.364   0.853  0.00  0.00    +0.000 A 
ATOM      6  C   UNL     1      -4.499  -3.844   0.839  0.00  0.00    +0.000 A 
ENDROOT
BRANCH   1   8
ATOM      7  C   UNL     1      -2.443  -1.009  -0.176  0.00  0.00    +0.000 C 
ATOM      8  C   UNL     1      -2.774  -2.302  -0.031  0.00  0.00    +0.000 C 
BRANCH   7  13
ATOM      9  C   UNL     1       0.152  -1.336  -0.030  0.00  0.00    +0.000 C 
ATOM     10  C   UNL     1       1.235  -0.297  -0.110  0.00  0.00    +0.000 C 
ATOM     11  C   UNL     1       0.687   0.916  -0.276  0.00  0.00    +0.000 C 
ATOM     12  C   UNL     1      -0.749   0.789  -0.319  0.00  0.00    +0.000 C 
ATOM     13  C   UNL     1      -1.096  -0.501  -0.180  0.00  0.00    +0.000 C 
ENDBRANCH   7  13
ENDBRANCH   1   8
BRANCH   4  14
ATOM     14  C   UNL     1      -8.173  -4.422  -0.000  0.00  0.00    +0.000 C 
BRANCH  14  15
ATOM     15  S   UNL     1      -8.299  -5.914  -1.023  0.00  0.00    +0.000 S 
ATOM     16  H   UNL     1      -7.992  -5.608  -2.312  0.00  0.00    +0.000 HD
ENDBRANCH  14  15
ENDBRANCH   4  14
TORSDOF 4
