REMARK  Name = *****
REMARK  3 active torsions:
REMARK  status: ('A' for Active; 'I' for Inactive)
REMARK    1  A    between atoms: C_5  and  O_7
REMARK    2  A    between atoms: O_7  and  C_8
REMARK    3  A    between atoms: C_8  and  C_10
REMARK                            x       y       z     vdW  Elec       q    Type
REMARK                         _______ _______ _______ _____ _____    ______ ____
ROOT
ATOM      1  C   UNL     1       2.150  -2.432  -0.564  0.00  0.00    +0.000 C 
ATOM      2  O   UNL     1       2.594  -1.569  -1.303  0.00  0.00    +0.000 OA
ENDROOT
BRANCH   1   3
ATOM      3  C   UNL     1       2.841  -3.690  -0.280  0.00  0.00    +0.000 A 
ATOM      4  C   UNL     1       4.174  -3.669   0.112  0.00  0.00    +0.000 A 
ATOM      5  C   UNL     1       4.856  -4.859   0.370  0.00  0.00    +0.000 A 
ATOM      6  C   UNL     1       4.199  -6.082   0.227  0.00  0.00    +0.000 A 
ATOM      7  C   UNL     1       2.863  -6.108  -0.175  0.00  0.00    +0.000 A 
ATOM      8  C   UNL     1       2.192  -4.912  -0.429  0.00  0.00    +0.000 A 
ATOM      9  F   UNL     1       0.916  -4.968  -0.838  0.00  0.00    +0.000 F 
ATOM     10  F   UNL     1       4.828  -2.511   0.275  0.00  0.00    +0.000 F 
ENDBRANCH   1   3
BRANCH   1  11
ATOM     11  O   UNL     1       0.973  -2.424   0.159  0.00  0.00    +0.000 OA
BRANCH  11  16
ATOM     12  C   UNL     1      -1.549   0.020  -0.918  0.00  0.00    +0.000 A 
ATOM     13  C   UNL     1      -1.159   1.146  -0.184  0.00  0.00    +0.000 A 
ATOM     14  C   UNL     1      -0.053   1.082   0.666  0.00  0.00    +0.000 A 
ATOM     15  C   UNL     1       0.662  -0.106   0.772  0.00  0.00    +0.000 A 
ATOM     16  C   UNL     1       0.284  -1.219   0.024  0.00  0.00    +0.000 A 
ATOM     17  C   UNL     1      -0.830  -1.172  -0.811  0.00  0.00    +0.000 A 
ATOM     18  F   UNL     1       1.708  -0.175   1.608  0.00  0.00    +0.000 F 
ENDBRANCH  11  16
ENDBRANCH   1  11
TORSDOF 3
