REMARK  Name = *****
REMARK  5 active torsions:
REMARK  status: ('A' for Active; 'I' for Inactive)
REMARK    1  A    between atoms: C_1  and  C_2
REMARK    2  A    between atoms: C_7  and  N_8
REMARK    3  A    between atoms: N_8  and  C_9
REMARK    4  A    between atoms: N_8  and  C_10
REMARK    5  A    between atoms: C_10  and  C_11
REMARK                            x       y       z     vdW  Elec       q    Type
REMARK                         _______ _______ _______ _____ _____    ______ ____
ROOT
ATOM      1  N   UNL     1       0.994  -1.955  -0.857  0.00  0.00    +0.000 N 
ATOM      2  C   UNL     1       0.330  -3.256  -0.725  0.00  0.00    +0.000 C 
ENDROOT
BRANCH   1   9
ATOM      3  C   UNL     1       0.519   0.458  -2.358  0.00  0.00    +0.000 C 
ATOM      4  C   UNL     1       0.053   0.297  -0.937  0.00  0.00    +0.000 A 
ATOM      5  C   UNL     1      -0.613   1.362  -0.308  0.00  0.00    +0.000 A 
ATOM      6  C   UNL     1      -1.055   1.248   1.009  0.00  0.00    +0.000 A 
ATOM      7  C   UNL     1      -0.830   0.071   1.714  0.00  0.00    +0.000 A 
ATOM      8  C   UNL     1      -0.162  -0.992   1.103  0.00  0.00    +0.000 A 
ATOM      9  C   UNL     1       0.287  -0.900  -0.226  0.00  0.00    +0.000 A 
ENDBRANCH   1   9
BRANCH   1  10
ATOM     10  C   UNL     1       2.413  -1.936  -0.448  0.00  0.00    +0.000 C 
BRANCH  10  11
ATOM     11  C   UNL     1       3.273  -2.790  -1.358  0.00  0.00    +0.000 A 
ATOM     12  C   UNL     1       4.125  -3.768  -0.824  0.00  0.00    +0.000 A 
ATOM     13  C   UNL     1       4.933  -4.538  -1.661  0.00  0.00    +0.000 A 
ATOM     14  C   UNL     1       4.903  -4.338  -3.040  0.00  0.00    +0.000 A 
ATOM     15  C   UNL     1       4.066  -3.365  -3.584  0.00  0.00    +0.000 A 
ATOM     16  C   UNL     1       3.259  -2.593  -2.748  0.00  0.00    +0.000 A 
ENDBRANCH  10  11
ENDBRANCH   1  10
TORSDOF 3
