REMARK  Name = *****
REMARK  6 active torsions:
REMARK  status: ('A' for Active; 'I' for Inactive)
REMARK    1  A    between atoms: C_1  and  O_2
REMARK    2  A    between atoms: O_2  and  C_3
REMARK    3  A    between atoms: C_6  and  N_9
REMARK    4  A    between atoms: N_9  and  N_10
REMARK    5  A    between atoms: N_10  and  C_11
REMARK    6  A    between atoms: C_11  and  C_12
REMARK                            x       y       z     vdW  Elec       q    Type
REMARK                         _______ _______ _______ _____ _____    ______ ____
ROOT
ATOM      1  N   UNL     1       5.069   2.861  -4.067  0.00  0.00    +0.000 NA
ENDROOT
BRANCH   1   5
ATOM      2  C   UNL     1       3.090   0.680  -1.068  0.00  0.00    +0.000 A 
ATOM      3  C   UNL     1       2.680   1.980  -1.354  0.00  0.00    +0.000 A 
ATOM      4  C   UNL     1       3.329   2.723  -2.351  0.00  0.00    +0.000 A 
ATOM      5  C   UNL     1       4.399   2.202  -3.093  0.00  0.00    +0.000 A 
ATOM      6  C   UNL     1       4.791   0.890  -2.785  0.00  0.00    +0.000 A 
ATOM      7  C   UNL     1       4.150   0.140  -1.790  0.00  0.00    +0.000 A 
BRANCH   2   9
ATOM      8  C   UNL     1       1.462   0.381   0.626  0.00  0.00    +0.000 C 
ATOM      9  O   UNL     1       2.545  -0.150  -0.124  0.00  0.00    +0.000 OA
ENDBRANCH   2   9
ENDBRANCH   1   5
BRANCH   1  10
ATOM     10  N   UNL     1       4.600   4.220  -4.324  0.00  0.00    +0.000 NA
BRANCH  10  11
ATOM     11  C   UNL     1       4.272   5.261  -4.550  0.00  0.00    +0.000 C 
BRANCH  11  12
ATOM     12  C   UNL     1       3.843   6.596  -4.833  0.00  0.00    +0.000 A 
ATOM     13  C   UNL     1       2.556   6.828  -5.320  0.00  0.00    +0.000 A 
ATOM     14  C   UNL     1       2.135   8.131  -5.595  0.00  0.00    +0.000 A 
ATOM     15  C   UNL     1       3.004   9.203  -5.382  0.00  0.00    +0.000 A 
ATOM     16  C   UNL     1       4.291   8.973  -4.895  0.00  0.00    +0.000 A 
ATOM     17  C   UNL     1       4.710   7.669  -4.620  0.00  0.00    +0.000 A 
ENDBRANCH  11  12
ENDBRANCH  10  11
ENDBRANCH   1  10
TORSDOF 5
