REMARK  Name = *****
REMARK  2 active torsions:
REMARK  status: ('A' for Active; 'I' for Inactive)
REMARK    1  A    between atoms: C_2  and  C_12
REMARK    2  A    between atoms: C_3  and  N_4
REMARK                            x       y       z     vdW  Elec       q    Type
REMARK                         _______ _______ _______ _____ _____    ______ ____
ROOT
ATOM      1  C   UNL     1       0.041   0.743   0.122  0.00  0.00    +0.000 C 
ATOM      2  C   UNL     1       0.806  -0.532   0.365  0.00  0.00    +0.000 C 
ATOM      3  C   UNL     1      -0.666  -0.577  -0.015  0.00  0.00    +0.000 C 
ENDROOT
BRANCH   3   4
ATOM      4  N   UNL     1      -1.652  -1.022   0.920  0.00  0.00    +0.000 N 
ATOM      5  C   UNL     1      -1.720  -2.317   1.421  0.00  0.00    +0.000 A 
ATOM      6  O   UNL     1      -0.898  -3.208   1.255  0.00  0.00    +0.000 OA
ATOM      7  C   UNL     1      -2.978  -2.481   2.196  0.00  0.00    +0.000 A 
ATOM      8  C   UNL     1      -3.729  -1.379   2.135  0.00  0.00    +0.000 A 
ATOM      9  S   UNL     1      -3.043  -0.090   1.208  0.00  0.00    +0.000 S 
ATOM     10 CL   UNL     1      -5.255  -1.180   2.885  0.00  0.00    +0.000 Cl
ATOM     11 CL   UNL     1      -3.332  -3.939   3.000  0.00  0.00    +0.000 Cl
ENDBRANCH   3   4
BRANCH   2  12
ATOM     12  C   UNL     1       1.839  -1.016  -0.624  0.00  0.00    +0.000 A 
ATOM     13  C   UNL     1       2.843  -0.168  -1.119  0.00  0.00    +0.000 A 
ATOM     14  C   UNL     1       3.803  -0.626  -2.026  0.00  0.00    +0.000 A 
ATOM     15  C   UNL     1       3.782  -1.952  -2.451  0.00  0.00    +0.000 A 
ATOM     16  C   UNL     1       2.806  -2.817  -1.965  0.00  0.00    +0.000 A 
ATOM     17  C   UNL     1       1.849  -2.352  -1.059  0.00  0.00    +0.000 A 
ENDBRANCH   2  12
TORSDOF 2
