REMARK  Name = *****
REMARK  3 active torsions:
REMARK  status: ('A' for Active; 'I' for Inactive)
REMARK    1  A    between atoms: C_4  and  O_7
REMARK    2  A    between atoms: O_7  and  C_8
REMARK    3  A    between atoms: C_8  and  C_9
REMARK                            x       y       z     vdW  Elec       q    Type
REMARK                         _______ _______ _______ _____ _____    ______ ____
ROOT
ATOM      1  O   UNL     1      -2.573   0.316  -0.681  0.00  0.00    +0.000 OA
ENDROOT
BRANCH   1   5
ATOM      2  C   UNL     1       1.325  -0.623   0.445  0.00  0.00    +0.000 A 
ATOM      3  C   UNL     1       0.996   0.611  -0.110  0.00  0.00    +0.000 A 
ATOM      4  C   UNL     1      -0.326   0.880  -0.471  0.00  0.00    +0.000 A 
ATOM      5  C   UNL     1      -1.326  -0.079  -0.283  0.00  0.00    +0.000 A 
ATOM      6  C   UNL     1      -0.990  -1.313   0.275  0.00  0.00    +0.000 A 
ATOM      7  C   UNL     1       0.334  -1.583   0.637  0.00  0.00    +0.000 A 
ENDBRANCH   1   5
BRANCH   1   8
ATOM      8  C   UNL     1      -3.630  -0.636  -0.552  0.00  0.00    +0.000 C 
BRANCH   8   9
ATOM      9  C   UNL     1      -4.918  -0.068  -1.080  0.00  0.00    +0.000 A 
ATOM     10  C   UNL     1      -6.105   0.001  -0.372  0.00  0.00    +0.000 A 
ATOM     11  S   UNL     1      -7.380   0.693  -1.277  0.00  0.00    +0.000 S 
ATOM     12  C   UNL     1      -6.367   0.919  -2.633  0.00  0.00    +0.000 A 
ATOM     13  C   UNL     1      -5.086   0.472  -2.400  0.00  0.00    +0.000 A 
ENDBRANCH   8   9
ENDBRANCH   1   8
TORSDOF 3
