REMARK  Name = *****
REMARK  4 active torsions:
REMARK  status: ('A' for Active; 'I' for Inactive)
REMARK    1  A    between atoms: C_4  and  C_7
REMARK    2  A    between atoms: C_7  and  C_8
REMARK    3  A    between atoms: C_8  and  C_9
REMARK    4  A    between atoms: C_9  and  C_11
REMARK                            x       y       z     vdW  Elec       q    Type
REMARK                         _______ _______ _______ _____ _____    ______ ____
ROOT
ATOM      1  C   UNL     1      -5.150  -0.695   0.154  0.00  0.00    +0.000 C 
ATOM      2  O   UNL     1      -5.695   0.344   0.522  0.00  0.00    +0.000 OA
ENDROOT
BRANCH   1   3
ATOM      3  C   UNL     1      -6.001  -1.768  -0.415  0.00  0.00    +0.000 A 
ATOM      4  C   UNL     1      -5.926  -3.112  -0.032  0.00  0.00    +0.000 A 
ATOM      5  C   UNL     1      -6.771  -4.052  -0.637  0.00  0.00    +0.000 A 
ATOM      6  C   UNL     1      -7.692  -3.652  -1.608  0.00  0.00    +0.000 A 
ATOM      7  C   UNL     1      -7.778  -2.310  -1.969  0.00  0.00    +0.000 A 
ATOM      8  C   UNL     1      -6.943  -1.366  -1.377  0.00  0.00    +0.000 A 
ATOM      9 CL   UNL     1      -8.921  -1.818  -3.156  0.00  0.00    +0.000 Cl
ATOM     10 CL   UNL     1      -4.882  -3.687   1.215  0.00  0.00    +0.000 Cl
ENDBRANCH   1   3
BRANCH   1  11
ATOM     11  C   UNL     1      -3.650  -0.893   0.192  0.00  0.00    +0.000 C 
BRANCH  11  12
ATOM     12  C   UNL     1      -2.927   0.409  -0.152  0.00  0.00    +0.000 C 
BRANCH  12  16
ATOM     13  C   UNL     1       1.345  -0.174  -0.197  0.00  0.00    +0.000 A 
ATOM     14  C   UNL     1       0.625  -0.209  -1.390  0.00  0.00    +0.000 A 
ATOM     15  C   UNL     1      -0.758  -0.015  -1.379  0.00  0.00    +0.000 A 
ATOM     16  C   UNL     1      -1.431   0.220  -0.173  0.00  0.00    +0.000 A 
ATOM     17  C   UNL     1      -0.698   0.249   1.021  0.00  0.00    +0.000 A 
ATOM     18  C   UNL     1       0.684   0.054   1.008  0.00  0.00    +0.000 A 
ENDBRANCH  12  16
ENDBRANCH  11  12
ENDBRANCH   1  11
TORSDOF 4
