REMARK  Name = *****
REMARK  4 active torsions:
REMARK  status: ('A' for Active; 'I' for Inactive)
REMARK    1  A    between atoms: C_4  and  S_7
REMARK    2  A    between atoms: S_7  and  N_8
REMARK    3  A    between atoms: N_8  and  C_9
REMARK    4  A    between atoms: C_12  and  C_15
REMARK                            x       y       z     vdW  Elec       q    Type
REMARK                         _______ _______ _______ _____ _____    ______ ____
ROOT
ATOM      1  N   UNL     1      -4.010  -0.680  -0.216  0.00  0.00    +0.000 N 
ATOM      2  H   UNL     1      -3.558  -1.468   0.162  0.00  0.00    +0.000 HD
ENDROOT
BRANCH   1   3
ATOM      3  C   UNL     1      -5.367  -0.787  -0.604  0.00  0.00    +0.000 A 
ATOM      4  C   UNL     1      -5.893  -2.061  -0.874  0.00  0.00    +0.000 A 
ATOM      5  C   UNL     1      -7.240  -2.232  -1.217  0.00  0.00    +0.000 A 
ATOM      6  C   UNL     1      -8.095  -1.130  -1.271  0.00  0.00    +0.000 A 
ATOM      7  C   UNL     1      -7.599   0.138  -0.967  0.00  0.00    +0.000 A 
ATOM      8  C   UNL     1      -6.251   0.302  -0.626  0.00  0.00    +0.000 A 
BRANCH   6   9
ATOM      9  C   UNL     1      -9.473  -1.300  -1.626  0.00  0.00    +0.000 C 
ATOM     10  N   UNL     1     -10.589  -1.439  -1.915  0.00  0.00    +0.000 NA
ENDBRANCH   6   9
ENDBRANCH   1   3
BRANCH   1  11
ATOM     11  S   UNL     1      -3.157   0.742  -0.381  0.00  0.00    +0.000 S 
BRANCH  11  15
ATOM     12  C   UNL     1      -1.626   1.651   3.859  0.00  0.00    +0.000 A 
ATOM     13  C   UNL     1      -2.538   0.613   3.680  0.00  0.00    +0.000 A 
ATOM     14  C   UNL     1      -3.018   0.312   2.402  0.00  0.00    +0.000 A 
ATOM     15  C   UNL     1      -2.586   1.043   1.288  0.00  0.00    +0.000 A 
ATOM     16  C   UNL     1      -1.671   2.086   1.483  0.00  0.00    +0.000 A 
ATOM     17  C   UNL     1      -1.193   2.389   2.761  0.00  0.00    +0.000 A 
ENDBRANCH  11  15
ENDBRANCH   1  11
TORSDOF 4
