REMARK  Name = *****
REMARK  3 active torsions:
REMARK  status: ('A' for Active; 'I' for Inactive)
REMARK    1  A    between atoms: C_2  and  C_3
REMARK    2  A    between atoms: C_4  and  C_8
REMARK    3  A    between atoms: C_9  and  C_10
REMARK                            x       y       z     vdW  Elec       q    Type
REMARK                         _______ _______ _______ _____ _____    ______ ____
ROOT
ATOM      1  C   UNL     1       3.981   2.519   0.053  0.00  0.00    +0.000 C 
ATOM      2  C   UNL     1       3.600   3.658   0.032  0.00  0.00    +0.000 C 
ENDROOT
BRANCH   2   3
ATOM      3  C   UNL     1       3.138   5.011   0.004  0.00  0.00    +0.000 A 
ATOM      4  C   UNL     1       1.818   5.290  -0.360  0.00  0.00    +0.000 A 
ATOM      5  C   UNL     1       1.367   6.611  -0.389  0.00  0.00    +0.000 A 
ATOM      6  C   UNL     1       2.233   7.652  -0.056  0.00  0.00    +0.000 A 
ATOM      7  C   UNL     1       3.550   7.375   0.308  0.00  0.00    +0.000 A 
ATOM      8  C   UNL     1       4.004   6.055   0.338  0.00  0.00    +0.000 A 
ENDBRANCH   2   3
BRANCH   1  10
ATOM      9  C   UNL     1       3.587   0.064   0.090  0.00  0.00    +0.000 A 
ATOM     10  C   UNL     1       4.429   1.159   0.074  0.00  0.00    +0.000 A 
ATOM     11  C   UNL     1       5.805   0.779   0.080  0.00  0.00    +0.000 A 
ATOM     12  C   UNL     1       5.966  -0.588   0.101  0.00  0.00    +0.000 A 
ATOM     13  S   UNL     1       4.465  -1.408   0.113  0.00  0.00    +0.000 S 
BRANCH   9  15
ATOM     14  C   UNL     1       0.957   0.125   0.089  0.00  0.00    +0.000 C 
ATOM     15  C   UNL     1       2.158   0.097   0.089  0.00  0.00    +0.000 C 
ENDBRANCH   9  15
ENDBRANCH   1  10
TORSDOF 3
