REMARK  Name = *****
REMARK  4 active torsions:
REMARK  status: ('A' for Active; 'I' for Inactive)
REMARK    1  A    between atoms: C_1  and  C_2
REMARK    2  A    between atoms: C_7  and  O_8
REMARK    3  A    between atoms: O_8  and  C_9
REMARK    4  A    between atoms: C_9  and  C_11
REMARK                            x       y       z     vdW  Elec       q    Type
REMARK                         _______ _______ _______ _____ _____    ______ ____
ROOT
ATOM      1  C   UNL     1       1.981  -2.705   0.073  0.00  0.00    +0.000 C 
ATOM      2  O   UNL     1       2.118  -2.339   1.230  0.00  0.00    +0.000 OA
ENDROOT
BRANCH   1   3
ATOM      3  C   UNL     1       2.701  -3.874  -0.472  0.00  0.00    +0.000 A 
ATOM      4  C   UNL     1       2.158  -4.674  -1.479  0.00  0.00    +0.000 A 
ATOM      5  C   UNL     1       2.868  -5.772  -1.953  0.00  0.00    +0.000 A 
ATOM      6  C   UNL     1       4.115  -6.079  -1.420  0.00  0.00    +0.000 A 
ATOM      7  C   UNL     1       4.663  -5.301  -0.406  0.00  0.00    +0.000 A 
ATOM      8  C   UNL     1       3.954  -4.197   0.075  0.00  0.00    +0.000 A 
ATOM      9  F   UNL     1       4.798  -7.137  -1.875  0.00  0.00    +0.000 F 
ATOM     10  F   UNL     1       2.345  -6.540  -2.919  0.00  0.00    +0.000 F 
ATOM     11  F   UNL     1       0.941  -4.424  -1.983  0.00  0.00    +0.000 F 
ENDBRANCH   1   3
BRANCH   1  12
ATOM     12  O   UNL     1       1.262  -2.099  -0.935  0.00  0.00    +0.000 OA
BRANCH  12  19
ATOM     13  C   UNL     1       2.523   0.514  -0.937  0.00  0.00    +0.000 C 
ATOM     14  C   UNL     1       1.099   0.291  -0.525  0.00  0.00    +0.000 A 
ATOM     15  C   UNL     1       0.310   1.370  -0.103  0.00  0.00    +0.000 A 
ATOM     16  C   UNL     1      -1.015   1.171   0.296  0.00  0.00    +0.000 A 
ATOM     17  C   UNL     1      -1.570  -0.109   0.283  0.00  0.00    +0.000 A 
ATOM     18  C   UNL     1      -0.797  -1.195  -0.120  0.00  0.00    +0.000 A 
ATOM     19  C   UNL     1       0.532  -0.990  -0.497  0.00  0.00    +0.000 A 
ENDBRANCH  12  19
ENDBRANCH   1  12
TORSDOF 3
