REMARK  Name = *****
REMARK  5 active torsions:
REMARK  status: ('A' for Active; 'I' for Inactive)
REMARK    1  A    between atoms: N_2  and  C_3
REMARK    2  A    between atoms: C_3  and  C_4
REMARK    3  A    between atoms: C_7  and  O_10
REMARK    4  A    between atoms: O_10  and  C_11
REMARK    5  A    between atoms: C_11  and  C_12
REMARK                            x       y       z     vdW  Elec       q    Type
REMARK                         _______ _______ _______ _____ _____    ______ ____
ROOT
ATOM      1  C   UNL     1       4.111  -0.454   1.187  0.00  0.00    +0.000 A 
ATOM      2  C   UNL     1       4.355   0.347   2.308  0.00  0.00    +0.000 A 
ATOM      3  C   UNL     1       4.480  -0.230   3.574  0.00  0.00    +0.000 A 
ATOM      4  C   UNL     1       4.357  -1.610   3.745  0.00  0.00    +0.000 A 
ATOM      5  C   UNL     1       4.132  -2.417   2.631  0.00  0.00    +0.000 A 
ATOM      6  C   UNL     1       4.004  -1.842   1.361  0.00  0.00    +0.000 A 
ENDROOT
BRANCH   1   7
ATOM      7  C   UNL     1       3.943   0.164  -0.178  0.00  0.00    +0.000 C 
BRANCH   7   9
ATOM      8  C   UNL     1       5.713  -0.694  -1.885  0.00  0.00    +0.000 C 
ATOM      9  N   UNL     1       4.924  -0.315  -1.104  0.00  0.00    +0.000 NA
ENDBRANCH   7   9
ENDBRANCH   1   7
BRANCH   4  10
ATOM     10  O   UNL     1       4.479  -2.038   5.038  0.00  0.00    +0.000 OA
BRANCH  10  11
ATOM     11  C   UNL     1       4.144  -3.400   5.305  0.00  0.00    +0.000 C 
BRANCH  11  12
ATOM     12  C   UNL     1       4.050  -3.605   6.800  0.00  0.00    +0.000 A 
ATOM     13  C   UNL     1       3.312  -2.716   7.597  0.00  0.00    +0.000 A 
ATOM     14  C   UNL     1       3.188  -2.927   8.971  0.00  0.00    +0.000 A 
ATOM     15  C   UNL     1       3.791  -4.035   9.562  0.00  0.00    +0.000 A 
ATOM     16  C   UNL     1       4.518  -4.931   8.781  0.00  0.00    +0.000 A 
ATOM     17  C   UNL     1       4.645  -4.721   7.406  0.00  0.00    +0.000 A 
ENDBRANCH  11  12
ENDBRANCH  10  11
ENDBRANCH   4  10
TORSDOF 5
