REMARK  Name = *****
REMARK  2 active torsions:
REMARK  status: ('A' for Active; 'I' for Inactive)
REMARK    1  A    between atoms: C_4  and  C_7
REMARK    2  A    between atoms: C_7  and  C_8
REMARK                            x       y       z     vdW  Elec       q    Type
REMARK                         _______ _______ _______ _____ _____    ______ ____
ROOT
ATOM      1  C   UNL     1      -4.163  -0.813  -0.178  0.00  0.00    +0.000 A 
ATOM      2  C   UNL     1      -4.593  -1.697  -1.145  0.00  0.00    +0.000 A 
ATOM      3  C   UNL     1      -5.483  -2.703  -0.640  0.00  0.00    +0.000 A 
ATOM      4  C   UNL     1      -6.130  -3.776  -1.299  0.00  0.00    +0.000 A 
ATOM      5  C   UNL     1      -6.965  -4.644  -0.588  0.00  0.00    +0.000 A 
ATOM      6  C   UNL     1      -7.168  -4.462   0.773  0.00  0.00    +0.000 A 
ATOM      7  C   UNL     1      -6.543  -3.411   1.450  0.00  0.00    +0.000 A 
ATOM      8  C   UNL     1      -5.704  -2.539   0.729  0.00  0.00    +0.000 A 
ATOM      9  S   UNL     1      -4.839  -1.185   1.346  0.00  0.00    +0.000 S 
ENDROOT
BRANCH   1  10
ATOM     10  C   UNL     1      -3.240   0.360  -0.336  0.00  0.00    +0.000 C 
BRANCH  10  14
ATOM     11  C   UNL     1       0.911  -0.726   0.150  0.00  0.00    +0.000 A 
ATOM     12  C   UNL     1       0.307  -0.825  -1.102  0.00  0.00    +0.000 A 
ATOM     13  C   UNL     1      -1.033  -0.471  -1.262  0.00  0.00    +0.000 A 
ATOM     14  C   UNL     1      -1.783  -0.009  -0.170  0.00  0.00    +0.000 A 
ATOM     15  C   UNL     1      -1.166   0.078   1.087  0.00  0.00    +0.000 A 
ATOM     16  C   UNL     1       0.175  -0.276   1.244  0.00  0.00    +0.000 A 
ENDBRANCH  10  14
ENDBRANCH   1  10
TORSDOF 2
