REMARK  Name = *****
REMARK  5 active torsions:
REMARK  status: ('A' for Active; 'I' for Inactive)
REMARK    1  A    between atoms: C_1  and  C_2
REMARK    2  A    between atoms: C_4  and  S_8
REMARK    3  A    between atoms: S_8  and  S_9
REMARK    4  A    between atoms: S_9  and  C_10
REMARK    5  A    between atoms: C_10  and  C_11
REMARK                            x       y       z     vdW  Elec       q    Type
REMARK                         _______ _______ _______ _____ _____    ______ ____
ROOT
ATOM      1  S   UNL     1      -2.151   2.931  -1.720  0.00  0.00    +0.000 S 
ENDROOT
BRANCH   1   5
ATOM      2  C   UNL     1       1.967  -0.322  -1.038  0.00  0.00    +0.000 C 
ATOM      3  C   UNL     1       0.666   0.223  -0.525  0.00  0.00    +0.000 A 
ATOM      4  C   UNL     1      -0.030   1.196  -1.255  0.00  0.00    +0.000 A 
ATOM      5  C   UNL     1      -1.258   1.690  -0.799  0.00  0.00    +0.000 A 
ATOM      6  C   UNL     1      -1.805   1.184   0.383  0.00  0.00    +0.000 A 
ATOM      7  C   UNL     1      -1.126   0.203   1.108  0.00  0.00    +0.000 A 
ATOM      8  C   UNL     1       0.102  -0.278   0.654  0.00  0.00    +0.000 A 
ENDBRANCH   1   5
BRANCH   1   9
ATOM      9  S   UNL     1      -0.873   4.542  -1.635  0.00  0.00    +0.000 S 
BRANCH   9  10
ATOM     10  C   UNL     1      -1.269   5.245  -0.003  0.00  0.00    +0.000 C 
BRANCH  10  11
ATOM     11  C   UNL     1      -0.408   6.445   0.304  0.00  0.00    +0.000 A 
ATOM     12  C   UNL     1      -0.816   7.733  -0.075  0.00  0.00    +0.000 A 
ATOM     13  C   UNL     1      -0.014   8.840   0.202  0.00  0.00    +0.000 A 
ATOM     14  C   UNL     1       1.206   8.673   0.855  0.00  0.00    +0.000 A 
ATOM     15  C   UNL     1       1.627   7.398   1.228  0.00  0.00    +0.000 A 
ATOM     16  C   UNL     1       0.826   6.289   0.952  0.00  0.00    +0.000 A 
ENDBRANCH  10  11
ENDBRANCH   9  10
ENDBRANCH   1   9
TORSDOF 4
