REMARK  Name = *****
REMARK  3 active torsions:
REMARK  status: ('A' for Active; 'I' for Inactive)
REMARK    1  A    between atoms: C_4  and  C_7
REMARK    2  A    between atoms: C_7  and  O_9
REMARK    3  A    between atoms: O_9  and  C_10
REMARK                            x       y       z     vdW  Elec       q    Type
REMARK                         _______ _______ _______ _____ _____    ______ ____
ROOT
ATOM      1  C   UNL     1      -4.316  -1.335   1.458  0.00  0.00    +0.000 A 
ATOM      2  C   UNL     1      -5.362  -1.603   0.581  0.00  0.00    +0.000 A 
ATOM      3  C   UNL     1      -6.670  -1.633   1.058  0.00  0.00    +0.000 A 
ATOM      4  C   UNL     1      -6.941  -1.409   2.405  0.00  0.00    +0.000 A 
ATOM      5  C   UNL     1      -5.884  -1.159   3.275  0.00  0.00    +0.000 A 
ATOM      6  C   UNL     1      -4.572  -1.126   2.810  0.00  0.00    +0.000 A 
ATOM      7  F   UNL     1      -3.562  -0.899   3.661  0.00  0.00    +0.000 F 
ATOM      8  F   UNL     1      -6.140  -0.958   4.574  0.00  0.00    +0.000 F 
ATOM      9  F   UNL     1      -7.684  -1.890   0.221  0.00  0.00    +0.000 F 
ATOM     10  F   UNL     1      -5.113  -1.836  -0.715  0.00  0.00    +0.000 F 
ENDROOT
BRANCH   1  11
ATOM     11  O   UNL     1      -3.004  -1.319   0.990  0.00  0.00    +0.000 OA
BRANCH  11  12
ATOM     12  C   UNL     1      -2.633  -0.046   0.604  0.00  0.00    +0.000 C 
ATOM     13  O   UNL     1      -3.331   0.957   0.640  0.00  0.00    +0.000 OA
BRANCH  12  17
ATOM     14  C   UNL     1       1.422   0.072  -0.793  0.00  0.00    +0.000 A 
ATOM     15  C   UNL     1       0.880  -1.145  -0.383  0.00  0.00    +0.000 A 
ATOM     16  C   UNL     1      -0.439  -1.208   0.075  0.00  0.00    +0.000 A 
ATOM     17  C   UNL     1      -1.223  -0.046   0.124  0.00  0.00    +0.000 A 
ATOM     18  C   UNL     1      -0.669   1.173  -0.291  0.00  0.00    +0.000 A 
ATOM     19  C   UNL     1       0.649   1.231  -0.748  0.00  0.00    +0.000 A 
ENDBRANCH  12  17
ENDBRANCH  11  12
ENDBRANCH   1  11
TORSDOF 3
