REMARK  Name = *****
REMARK  1 active torsions:
REMARK  status: ('A' for Active; 'I' for Inactive)
REMARK    1  A    between atoms: C_3  and  C_8
REMARK                            x       y       z     vdW  Elec       q    Type
REMARK                         _______ _______ _______ _____ _____    ______ ____
ROOT
ATOM      1  C   UNL     1      -1.949   2.547  -0.091  0.00  0.00    +0.000 A 
ATOM      2  N   UNL     1      -1.811   3.485  -1.013  0.00  0.00    +0.000 NA
ATOM      3  C   UNL     1      -2.647   4.485  -0.593  0.00  0.00    +0.000 A 
ATOM      4  C   UNL     1      -3.268   4.114   0.588  0.00  0.00    +0.000 A 
ATOM      5  O   UNL     1      -2.824   2.867   0.918  0.00  0.00    +0.000 OA
ATOM      6  C   UNL     1      -4.179   4.894   1.288  0.00  0.00    +0.000 A 
ATOM      7  C   UNL     1      -4.458   6.140   0.717  0.00  0.00    +0.000 A 
ATOM      8  C   UNL     1      -3.856   6.560  -0.476  0.00  0.00    +0.000 A 
ATOM      9  C   UNL     1      -2.939   5.737  -1.149  0.00  0.00    +0.000 A 
ATOM     10 CL   UNL     1      -5.577   7.187   1.506  0.00  0.00    +0.000 Cl
ENDROOT
BRANCH   1  13
ATOM     11  C   UNL     1      -0.944  -0.912   1.082  0.00  0.00    +0.000 A 
ATOM     12  C   UNL     1      -1.575   0.336   1.031  0.00  0.00    +0.000 A 
ATOM     13  C   UNL     1      -1.302   1.240  -0.011  0.00  0.00    +0.000 A 
ATOM     14  C   UNL     1      -0.383   0.864  -1.000  0.00  0.00    +0.000 A 
ATOM     15  C   UNL     1       0.239  -0.379  -0.939  0.00  0.00    +0.000 A 
ATOM     16  C   UNL     1      -0.033  -1.269   0.092  0.00  0.00    +0.000 A 
ATOM     17  F   UNL     1       1.116  -0.724  -1.891  0.00  0.00    +0.000 F 
ENDBRANCH   1  13
TORSDOF 1
