REMARK  Name = *****
REMARK  3 active torsions:
REMARK  status: ('A' for Active; 'I' for Inactive)
REMARK    1  A    between atoms: C_4  and  C_7
REMARK    2  A    between atoms: C_7  and  C_16
REMARK    3  A    between atoms: C_8  and  C_9
REMARK                            x       y       z     vdW  Elec       q    Type
REMARK                         _______ _______ _______ _____ _____    ______ ____
ROOT
ATOM      1  C   UNL     1      -2.861   0.368  -0.487  0.00  0.00    +0.000 C 
ATOM      2  C   UNL     1      -3.423   1.540  -0.125  0.00  0.00    +0.000 C 
ENDROOT
BRANCH   2   3
ATOM      3  C   UNL     1      -4.838   1.897  -0.279  0.00  0.00    +0.000 A 
ATOM      4  C   UNL     1      -5.601   2.176   0.863  0.00  0.00    +0.000 A 
ATOM      5  C   UNL     1      -6.945   2.535   0.741  0.00  0.00    +0.000 A 
ATOM      6  C   UNL     1      -7.519   2.622  -0.522  0.00  0.00    +0.000 A 
ATOM      7  C   UNL     1      -6.774   2.359  -1.665  0.00  0.00    +0.000 A 
ATOM      8  C   UNL     1      -5.430   2.000  -1.546  0.00  0.00    +0.000 A 
ATOM      9  F   UNL     1      -8.807   2.970  -0.638  0.00  0.00    +0.000 F 
ENDBRANCH   2   3
BRANCH   1  13
ATOM     10  C   UNL     1       1.325  -0.228   0.215  0.00  0.00    +0.000 A 
ATOM     11  C   UNL     1       0.392  -1.098   0.774  0.00  0.00    +0.000 A 
ATOM     12  C   UNL     1      -0.972  -0.904   0.546  0.00  0.00    +0.000 A 
ATOM     13  C   UNL     1      -1.417   0.168  -0.242  0.00  0.00    +0.000 A 
ATOM     14  C   UNL     1      -0.466   1.035  -0.803  0.00  0.00    +0.000 A 
ATOM     15  C   UNL     1       0.898   0.838  -0.574  0.00  0.00    +0.000 A 
ENDBRANCH   1  13
BRANCH   1  16
ATOM     16  C   UNL     1      -3.618  -0.705  -1.057  0.00  0.00    +0.000 C 
ATOM     17  N   UNL     1      -4.224  -1.580  -1.520  0.00  0.00    +0.000 NA
ENDBRANCH   1  16
TORSDOF 3
