REMARK  Name = *****
REMARK  5 active torsions:
REMARK  status: ('A' for Active; 'I' for Inactive)
REMARK    1  A    between atoms: C_1  and  C_2
REMARK    2  A    between atoms: C_6  and  C_7
REMARK    3  A    between atoms: C_7  and  C_8
REMARK    4  A    between atoms: C_8  and  C_9
REMARK    5  A    between atoms: C_9  and  C_10
REMARK                            x       y       z     vdW  Elec       q    Type
REMARK                         _______ _______ _______ _____ _____    ______ ____
ROOT
ATOM      1  C   UNL     1       2.959   2.486   0.620  0.00  0.00    +0.000 C 
ENDROOT
BRANCH   1   7
ATOM      2  C   UNL     1       0.924   0.528   2.272  0.00  0.00    +0.000 C 
ATOM      3  C   UNL     1       1.789   0.173   1.061  0.00  0.00    +0.000 C 
ATOM      4  C   UNL     1       2.256  -1.295   1.115  0.00  0.00    +0.000 C 
ATOM      5  S   UNL     1       3.978  -1.270   1.712  0.00  0.00    +0.000 S 
ATOM      6  C   UNL     1       4.162   0.390   1.304  0.00  0.00    +0.000 C 
ATOM      7  C   UNL     1       3.032   1.032   0.987  0.00  0.00    +0.000 C 
ATOM      8  F   UNL     1       5.360   1.000   1.317  0.00  0.00    +0.000 F 
ENDBRANCH   1   7
BRANCH   1   9
ATOM      9  C   UNL     1       2.538   2.703  -0.835  0.00  0.00    +0.000 C 
BRANCH   9  10
ATOM     10  C   UNL     1       2.553   4.191  -1.196  0.00  0.00    +0.000 C 
BRANCH  10  11
ATOM     11  C   UNL     1       2.103   4.421  -2.617  0.00  0.00    +0.000 A 
ATOM     12  C   UNL     1       0.754   4.667  -2.905  0.00  0.00    +0.000 A 
ATOM     13  C   UNL     1       0.336   4.861  -4.222  0.00  0.00    +0.000 A 
ATOM     14  C   UNL     1       1.261   4.805  -5.263  0.00  0.00    +0.000 A 
ATOM     15  C   UNL     1       2.604   4.554  -4.989  0.00  0.00    +0.000 A 
ATOM     16  C   UNL     1       3.024   4.360  -3.672  0.00  0.00    +0.000 A 
ENDBRANCH  10  11
ENDBRANCH   9  10
ENDBRANCH   1   9
TORSDOF 4
