REMARK  Name = *****
REMARK  3 active torsions:
REMARK  status: ('A' for Active; 'I' for Inactive)
REMARK    1  A    between atoms: C_4  and  C_7
REMARK    2  A    between atoms: C_7  and  C_8
REMARK    3  A    between atoms: C_8  and  C_9
REMARK                            x       y       z     vdW  Elec       q    Type
REMARK                         _______ _______ _______ _____ _____    ______ ____
ROOT
ATOM      1  C   UNL     1       3.287  -2.095   0.321  0.00  0.00    +0.000 C 
ENDROOT
BRANCH   1   2
ATOM      2  C   UNL     1       4.670  -2.445  -0.176  0.00  0.00    +0.000 C 
ATOM      3  C   UNL     1       5.784  -2.023   0.453  0.00  0.00    +0.000 C 
ATOM      4  C   UNL     1       7.224  -2.174   0.038  0.00  0.00    +0.000 C 
ATOM      5  C   UNL     1       7.468  -2.245  -1.470  0.00  0.00    +0.000 C 
ATOM      6  C   UNL     1       7.116  -3.586  -2.111  0.00  0.00    +0.000 C 
ATOM      7  C   UNL     1       5.894  -4.273  -1.528  0.00  0.00    +0.000 C 
ATOM      8  C   UNL     1       4.718  -3.337  -1.381  0.00  0.00    +0.000 C 
ATOM      9  O   UNL     1       3.794  -3.339  -2.193  0.00  0.00    +0.000 OA
ENDBRANCH   1   2
BRANCH   1  10
ATOM     10  C   UNL     1       2.727  -0.846  -0.371  0.00  0.00    +0.000 C 
BRANCH  10  14
ATOM     11  C   UNL     1      -1.475   0.404  -0.232  0.00  0.00    +0.000 C 
ATOM     12  C   UNL     1      -1.120  -0.956   0.357  0.00  0.00    +0.000 C 
ATOM     13  C   UNL     1       0.253  -1.437  -0.111  0.00  0.00    +0.000 C 
ATOM     14  C   UNL     1       1.355  -0.405   0.179  0.00  0.00    +0.000 C 
ATOM     15  C   UNL     1       0.977   0.964  -0.415  0.00  0.00    +0.000 C 
ATOM     16  C   UNL     1      -0.394   1.436   0.063  0.00  0.00    +0.000 C 
ENDBRANCH  10  14
ENDBRANCH   1  10
TORSDOF 3
