REMARK  Name = *****
REMARK  5 active torsions:
REMARK  status: ('A' for Active; 'I' for Inactive)
REMARK    1  A    between atoms: C_1  and  C_2
REMARK    2  A    between atoms: C_3  and  N_9
REMARK    3  A    between atoms: C_4  and  C_8
REMARK    4  A    between atoms: N_9  and  C_10
REMARK    5  A    between atoms: C_11  and  C_13
REMARK                            x       y       z     vdW  Elec       q    Type
REMARK                         _______ _______ _______ _____ _____    ______ ____
ROOT
ATOM      1  N   UNL     1      -0.004   2.517  -0.256  0.00  0.00    +0.000 N 
ATOM      2  C   UNL     1      -1.311   3.072  -0.598  0.00  0.00    +0.000 C 
ATOM      3  C   UNL     1       1.154   3.280  -0.100  0.00  0.00    +0.000 C 
ATOM      4  O   UNL     1       2.265   2.863   0.218  0.00  0.00    +0.000 OA
ENDROOT
BRANCH   3   5
ATOM      5  C   UNL     1       1.063   4.723  -0.305  0.00  0.00    +0.000 A 
ATOM      6  C   UNL     1       0.554   5.542   0.697  0.00  0.00    +0.000 A 
ATOM      7  C   UNL     1       0.534   6.920   0.519  0.00  0.00    +0.000 A 
ATOM      8  C   UNL     1       1.032   7.479  -0.652  0.00  0.00    +0.000 A 
ATOM      9  C   UNL     1       1.549   6.660  -1.648  0.00  0.00    +0.000 A 
ATOM     10  C   UNL     1       1.570   5.280  -1.476  0.00  0.00    +0.000 A 
ATOM     11  F   UNL     1       2.055   4.499  -2.451  0.00  0.00    +0.000 F 
ATOM     12  F   UNL     1       2.018   7.199  -2.782  0.00  0.00    +0.000 F 
ATOM     13  F   UNL     1       1.003   8.807  -0.825  0.00  0.00    +0.000 F 
ATOM     14  F   UNL     1       0.025   7.711   1.474  0.00  0.00    +0.000 F 
ATOM     15  F   UNL     1       0.063   5.014   1.827  0.00  0.00    +0.000 F 
ENDBRANCH   3   5
BRANCH   1  18
ATOM     16  C   UNL     1      -1.423   1.291   2.009  0.00  0.00    +0.000 C 
ATOM     17  C   UNL     1      -0.647   0.497   0.993  0.00  0.00    +0.000 A 
ATOM     18  C   UNL     1       0.060   1.103  -0.071  0.00  0.00    +0.000 A 
ATOM     19  C   UNL     1       0.800   0.305  -0.973  0.00  0.00    +0.000 A 
ATOM     20  C   UNL     1       0.838  -1.086  -0.783  0.00  0.00    +0.000 A 
ATOM     21  C   UNL     1       0.129  -1.685   0.254  0.00  0.00    +0.000 A 
ATOM     22  C   UNL     1      -0.614  -0.900   1.131  0.00  0.00    +0.000 A 
ATOM     23  C   UNL     1       1.564   0.879  -2.136  0.00  0.00    +0.000 C 
ENDBRANCH   1  18
TORSDOF 2
