REMARK  Name = *****
REMARK  3 active torsions:
REMARK  status: ('A' for Active; 'I' for Inactive)
REMARK    1  A    between atoms: C_1  and  C_2
REMARK    2  A    between atoms: C_4  and  S_8
REMARK    3  A    between atoms: S_8  and  C_9
REMARK                            x       y       z     vdW  Elec       q    Type
REMARK                         _______ _______ _______ _____ _____    ______ ____
ROOT
ATOM      1  S   UNL     1      -1.106   1.188   0.237  0.00  0.00    +0.000 S 
ENDROOT
BRANCH   1   5
ATOM      2  C   UNL     1      -6.018  -0.092   1.619  0.00  0.00    +0.000 C 
ATOM      3  C   UNL     1      -5.113   0.643   0.675  0.00  0.00    +0.000 A 
ATOM      4  C   UNL     1      -3.722   0.608   0.854  0.00  0.00    +0.000 A 
ATOM      5  C   UNL     1      -2.867   1.265  -0.037  0.00  0.00    +0.000 A 
ATOM      6  C   UNL     1      -3.409   1.936  -1.136  0.00  0.00    +0.000 A 
ATOM      7  C   UNL     1      -4.791   1.965  -1.331  0.00  0.00    +0.000 A 
ATOM      8  C   UNL     1      -5.639   1.319  -0.431  0.00  0.00    +0.000 A 
ENDBRANCH   1   5
BRANCH   1   9
ATOM      9  C   UNL     1      -0.737   2.969   0.472  0.00  0.00    +0.000 C 
ATOM     10  C   UNL     1      -0.341   3.678  -0.860  0.00  0.00    +0.000 C 
ATOM     11  C   UNL     1       1.062   4.246  -0.545  0.00  0.00    +0.000 C 
ATOM     12  C   UNL     1       1.658   3.114   0.293  0.00  0.00    +0.000 C 
ATOM     13  C   UNL     1       0.537   3.167   1.339  0.00  0.00    +0.000 C 
ATOM     14  C   UNL     1       0.615   4.645   1.673  0.00  0.00    +0.000 C 
ATOM     15  C   UNL     1       0.918   5.291   0.537  0.00  0.00    +0.000 C 
ENDBRANCH   1   9
TORSDOF 2
