REMARK  Name = *****
REMARK  1 active torsions:
REMARK  status: ('A' for Active; 'I' for Inactive)
REMARK    1  A    between atoms: C_9  and  C_11
REMARK                            x       y       z     vdW  Elec       q    Type
REMARK                         _______ _______ _______ _____ _____    ______ ____
ROOT
ATOM      1  C   UNL     1      -2.125  -0.956  -0.522  0.00  0.00    +0.000 C 
ATOM      2  C   UNL     1      -2.261   0.559  -0.423  0.00  0.00    +0.000 C 
ATOM      3  C   UNL     1      -1.492   1.114   0.775  0.00  0.00    +0.000 C 
ATOM      4  C   UNL     1      -0.021   0.681   0.784  0.00  0.00    +0.000 C 
ATOM      5  C   UNL     1       0.123  -0.830   0.641  0.00  0.00    +0.000 C 
ATOM      6  C   UNL     1      -0.661  -1.384  -0.561  0.00  0.00    +0.000 C 
ATOM      7  C   UNL     1       1.610  -1.120   0.531  0.00  0.00    +0.000 C 
ATOM      8  O   UNL     1       2.230  -0.362  -0.516  0.00  0.00    +0.000 OA
ATOM      9  C   UNL     1       1.709   0.847  -0.828  0.00  0.00    +0.000 C 
ATOM     10  N   UNL     1       0.678   1.391  -0.286  0.00  0.00    +0.000 NA
ENDROOT
BRANCH   9  11
ATOM     11  C   UNL     1       2.468   1.486  -1.934  0.00  0.00    +0.000 A 
ATOM     12  C   UNL     1       3.592   0.880  -2.513  0.00  0.00    +0.000 A 
ATOM     13  C   UNL     1       4.268   1.506  -3.566  0.00  0.00    +0.000 A 
ATOM     14  C   UNL     1       3.822   2.738  -4.042  0.00  0.00    +0.000 A 
ATOM     15  C   UNL     1       2.709   3.353  -3.474  0.00  0.00    +0.000 A 
ATOM     16  C   UNL     1       2.033   2.728  -2.422  0.00  0.00    +0.000 A 
ATOM     17 CL   UNL     1       4.652   3.502  -5.341  0.00  0.00    +0.000 Cl
ENDBRANCH   9  11
TORSDOF 1
