REMARK  Name = *****
REMARK  3 active torsions:
REMARK  status: ('A' for Active; 'I' for Inactive)
REMARK    1  A    between atoms: C_4  and  O_7
REMARK    2  A    between atoms: O_7  and  C_8
REMARK    3  A    between atoms: C_8  and  C_9
REMARK                            x       y       z     vdW  Elec       q    Type
REMARK                         _______ _______ _______ _____ _____    ______ ____
ROOT
ATOM      1  C   UNL     1      -3.633  -0.650  -0.301  0.00  0.00    +0.000 C 
ENDROOT
BRANCH   1   2
ATOM      2  C   UNL     1      -5.035  -0.098  -0.429  0.00  0.00    +0.000 A 
ATOM      3  C   UNL     1      -5.344   0.817  -1.447  0.00  0.00    +0.000 A 
ATOM      4  C   UNL     1      -6.640   1.320  -1.581  0.00  0.00    +0.000 A 
ATOM      5  C   UNL     1      -7.635   0.909  -0.697  0.00  0.00    +0.000 A 
ATOM      6  C   UNL     1      -7.345   0.001   0.318  0.00  0.00    +0.000 A 
ATOM      7  C   UNL     1      -6.049  -0.503   0.452  0.00  0.00    +0.000 A 
ATOM      8 CL   UNL     1      -9.233   1.527  -0.861  0.00  0.00    +0.000 Cl
ENDBRANCH   1   2
BRANCH   1   9
ATOM      9  O   UNL     1      -2.734   0.437  -0.097  0.00  0.00    +0.000 OA
BRANCH   9  13
ATOM     10  C   UNL     1       1.365  -0.203   0.277  0.00  0.00    +0.000 A 
ATOM     11  C   UNL     1       0.540  -1.308   0.070  0.00  0.00    +0.000 A 
ATOM     12  C   UNL     1      -0.842  -1.142  -0.061  0.00  0.00    +0.000 A 
ATOM     13  C   UNL     1      -1.405   0.133   0.014  0.00  0.00    +0.000 A 
ATOM     14  C   UNL     1      -0.572   1.236   0.221  0.00  0.00    +0.000 A 
ATOM     15  C   UNL     1       0.808   1.071   0.353  0.00  0.00    +0.000 A 
ENDBRANCH   9  13
ENDBRANCH   1   9
TORSDOF 3
