REMARK  Name = *****
REMARK  4 active torsions:
REMARK  status: ('A' for Active; 'I' for Inactive)
REMARK    1  A    between atoms: C_1  and  C_2
REMARK    2  A    between atoms: C_2  and  C_10
REMARK    3  A    between atoms: C_10  and  S_11
REMARK    4  A    between atoms: S_11  and  C_12
REMARK                            x       y       z     vdW  Elec       q    Type
REMARK                         _______ _______ _______ _____ _____    ______ ____
ROOT
ATOM      1  C   UNL     1       1.122   0.054  -0.085  0.00  0.00    +0.000 C 
ATOM      2  C   UNL     1       2.668   0.111   0.023  0.00  0.00    +0.000 C 
ATOM      3  C   UNL     1       3.136   1.279  -0.887  0.00  0.00    +0.000 C 
ATOM      4  C   UNL     1       4.633   1.595  -0.873  0.00  0.00    +0.000 C 
ATOM      5  C   UNL     1       5.462   0.794  -1.875  0.00  0.00    +0.000 C 
ATOM      6  C   UNL     1       5.063  -0.666  -2.069  0.00  0.00    +0.000 C 
ATOM      7  C   UNL     1       4.700  -1.376  -0.778  0.00  0.00    +0.000 C 
ATOM      8  C   UNL     1       3.220  -1.243  -0.466  0.00  0.00    +0.000 C 
ATOM      9  O   UNL     1       2.500  -2.243  -0.543  0.00  0.00    +0.000 OA
ENDROOT
BRANCH   2  10
ATOM     10  C   UNL     1       3.077   0.232   1.513  0.00  0.00    +0.000 C 
BRANCH  10  11
ATOM     11  S   UNL     1       2.599   1.801   2.330  0.00  0.00    +0.000 S 
BRANCH  11  12
ATOM     12  C   UNL     1       3.273   1.494   3.951  0.00  0.00    +0.000 A 
ATOM     13  C   UNL     1       4.655   1.500   4.165  0.00  0.00    +0.000 A 
ATOM     14  C   UNL     1       5.170   1.261   5.441  0.00  0.00    +0.000 A 
ATOM     15  C   UNL     1       4.306   1.023   6.508  0.00  0.00    +0.000 A 
ATOM     16  C   UNL     1       2.927   1.028   6.303  0.00  0.00    +0.000 A 
ATOM     17  C   UNL     1       2.411   1.266   5.027  0.00  0.00    +0.000 A 
ENDBRANCH  11  12
ENDBRANCH  10  11
ENDBRANCH   2  10
TORSDOF 3
