REMARK  Name = *****
REMARK  4 active torsions:
REMARK  status: ('A' for Active; 'I' for Inactive)
REMARK    1  A    between atoms: C_1  and  C_2
REMARK    2  A    between atoms: C_3  and  C_16
REMARK    3  A    between atoms: C_5  and  C_7
REMARK    4  A    between atoms: C_8  and  C_9
REMARK                            x       y       z     vdW  Elec       q    Type
REMARK                         _______ _______ _______ _____ _____    ______ ____
ROOT
ATOM      1  C   UNL     1      -2.248  -1.763  -0.013  0.00  0.00    +0.000 C 
ATOM      2  C   UNL     1      -3.556  -1.459  -0.004  0.00  0.00    +0.000 C 
ENDROOT
BRANCH   2   3
ATOM      3  C   UNL     1      -4.635  -2.456  -0.030  0.00  0.00    +0.000 A 
ATOM      4  C   UNL     1      -4.545  -3.679   0.648  0.00  0.00    +0.000 A 
ATOM      5  C   UNL     1      -5.611  -4.580   0.614  0.00  0.00    +0.000 A 
ATOM      6  C   UNL     1      -6.779  -4.273  -0.082  0.00  0.00    +0.000 A 
ATOM      7  C   UNL     1      -6.884  -3.052  -0.745  0.00  0.00    +0.000 A 
ATOM      8  C   UNL     1      -5.820  -2.147  -0.714  0.00  0.00    +0.000 A 
ATOM      9 CL   UNL     1      -5.485  -6.082   1.445  0.00  0.00    +0.000 Cl
ENDBRANCH   2   3
BRANCH   1  14
ATOM     10  C   UNL     1       2.222   0.091  -0.006  0.00  0.00    +0.000 C 
ATOM     11  C   UNL     1       0.750   0.138   0.005  0.00  0.00    +0.000 A 
ATOM     12  C   UNL     1      -0.195   1.139   0.011  0.00  0.00    +0.000 A 
ATOM     13  N   UNL     1      -1.450   0.568   0.022  0.00  0.00    +0.000 NA
ATOM     14  C   UNL     1      -1.254  -0.745  -0.001  0.00  0.00    +0.000 A 
ATOM     15  O   UNL     1       0.094  -1.056  -0.007  0.00  0.00    +0.000 OA
BRANCH  12  16
ATOM     16  C   UNL     1      -0.019   2.609   0.034  0.00  0.00    +0.000 C 
ATOM     17 CL   UNL     1       0.675   3.163  -1.506  0.00  0.00    +0.000 Cl
ENDBRANCH  12  16
ENDBRANCH   1  14
TORSDOF 3
