REMARK  Name = *****
REMARK  2 active torsions:
REMARK  status: ('A' for Active; 'I' for Inactive)
REMARK    1  A    between atoms: C_3  and  N_8
REMARK    2  A    between atoms: C_9  and  C_10
REMARK                            x       y       z     vdW  Elec       q    Type
REMARK                         _______ _______ _______ _____ _____    ______ ____
ROOT
ATOM      1  N   UNL     1       2.368   2.483  -0.488  0.00  0.00    +0.000 NA
ATOM      2  C   UNL     1       1.990   3.505   0.213  0.00  0.00    +0.000 C 
ENDROOT
BRANCH   1   5
ATOM      3  C   UNL     1       1.486  -0.873   0.808  0.00  0.00    +0.000 A 
ATOM      4  C   UNL     1       2.173   0.325   0.596  0.00  0.00    +0.000 A 
ATOM      5  C   UNL     1       1.660   1.293  -0.272  0.00  0.00    +0.000 A 
ATOM      6  C   UNL     1       0.465   1.045  -0.950  0.00  0.00    +0.000 A 
ATOM      7  C   UNL     1      -0.219  -0.150  -0.737  0.00  0.00    +0.000 A 
ATOM      8  C   UNL     1       0.284  -1.109   0.142  0.00  0.00    +0.000 A 
ATOM      9 CL   UNL     1      -1.699  -0.447  -1.564  0.00  0.00    +0.000 Cl
ENDBRANCH   1   5
BRANCH   2  10
ATOM     10  C   UNL     1       2.645   4.821   0.087  0.00  0.00    +0.000 A 
ATOM     11  C   UNL     1       3.717   5.007  -0.793  0.00  0.00    +0.000 A 
ATOM     12  C   UNL     1       4.323   6.261  -0.896  0.00  0.00    +0.000 A 
ATOM     13  C   UNL     1       3.855   7.322  -0.120  0.00  0.00    +0.000 A 
ATOM     14  C   UNL     1       2.786   7.140   0.758  0.00  0.00    +0.000 A 
ATOM     15  C   UNL     1       2.178   5.886   0.864  0.00  0.00    +0.000 A 
ATOM     16 CL   UNL     1       4.601   8.866  -0.246  0.00  0.00    +0.000 Cl
ENDBRANCH   2  10
TORSDOF 2
