REMARK  Name = *****
REMARK  3 active torsions:
REMARK  status: ('A' for Active; 'I' for Inactive)
REMARK    1  A    between atoms: C_4  and  C_7
REMARK    2  A    between atoms: C_7  and  C_8
REMARK    3  A    between atoms: C_8  and  C_9
REMARK                            x       y       z     vdW  Elec       q    Type
REMARK                         _______ _______ _______ _____ _____    ______ ____
ROOT
ATOM      1  C   UNL     1      -0.080   0.985   2.156  0.00  0.00    +0.000 C 
ENDROOT
BRANCH   1   5
ATOM      2  C   UNL     1      -0.144  -1.836  -0.496  0.00  0.00    +0.000 C 
ATOM      3  C   UNL     1       1.137  -1.312   0.137  0.00  0.00    +0.000 C 
ATOM      4  S   UNL     1       1.400   0.460  -0.153  0.00  0.00    +0.000 S 
ATOM      5  C   UNL     1      -0.098   1.150   0.629  0.00  0.00    +0.000 C 
ATOM      6  S   UNL     1      -1.601   0.522  -0.193  0.00  0.00    +0.000 S 
ATOM      7  C   UNL     1      -1.417  -1.259   0.106  0.00  0.00    +0.000 C 
ENDBRANCH   1   5
BRANCH   1   8
ATOM      8  C   UNL     1      -1.194   1.775   2.854  0.00  0.00    +0.000 C 
BRANCH   8   9
ATOM      9  C   UNL     1      -1.094   1.654   4.356  0.00  0.00    +0.000 A 
ATOM     10  C   UNL     1      -0.322   2.562   5.092  0.00  0.00    +0.000 A 
ATOM     11  C   UNL     1      -0.213   2.435   6.478  0.00  0.00    +0.000 A 
ATOM     12  C   UNL     1      -0.871   1.399   7.139  0.00  0.00    +0.000 A 
ATOM     13  C   UNL     1      -1.636   0.487   6.414  0.00  0.00    +0.000 A 
ATOM     14  C   UNL     1      -1.746   0.612   5.028  0.00  0.00    +0.000 A 
ENDBRANCH   8   9
ENDBRANCH   1   8
TORSDOF 3
