REMARK  Name = *****
REMARK  2 active torsions:
REMARK  status: ('A' for Active; 'I' for Inactive)
REMARK    1  A    between atoms: C_4  and  S_7
REMARK    2  A    between atoms: S_7  and  C_8
REMARK                            x       y       z     vdW  Elec       q    Type
REMARK                         _______ _______ _______ _____ _____    ______ ____
ROOT
ATOM      1  C   UNL     1       0.678   1.251  -0.313  0.00  0.00    +0.000 C 
ATOM      2  C   UNL     1       1.435   0.039   0.222  0.00  0.00    +0.000 C 
ATOM      3  C   UNL     1       0.745  -1.274  -0.164  0.00  0.00    +0.000 C 
ATOM      4  C   UNL     1      -0.741  -1.311   0.235  0.00  0.00    +0.000 C 
ATOM      5  C   UNL     1      -1.485  -0.062  -0.270  0.00  0.00    +0.000 C 
ATOM      6  C   UNL     1      -0.786   1.246   0.117  0.00  0.00    +0.000 C 
ATOM      7 CL   UNL     1      -0.846  -1.346   2.055  0.00  0.00    +0.000 Cl
ENDROOT
BRANCH   4   8
ATOM      8  S   UNL     1      -1.573  -2.887  -0.309  0.00  0.00    +0.000 S 
BRANCH   8   9
ATOM      9  C   UNL     1      -1.441  -2.818  -2.083  0.00  0.00    +0.000 A 
ATOM     10  C   UNL     1      -0.351  -3.405  -2.733  0.00  0.00    +0.000 A 
ATOM     11  C   UNL     1      -0.262  -3.378  -4.126  0.00  0.00    +0.000 A 
ATOM     12  C   UNL     1      -1.273  -2.782  -4.878  0.00  0.00    +0.000 A 
ATOM     13  C   UNL     1      -2.378  -2.222  -4.239  0.00  0.00    +0.000 A 
ATOM     14  C   UNL     1      -2.466  -2.248  -2.845  0.00  0.00    +0.000 A 
ENDBRANCH   8   9
ENDBRANCH   4   8
TORSDOF 2
