REMARK  Name = *****
REMARK  5 active torsions:
REMARK  status: ('A' for Active; 'I' for Inactive)
REMARK    1  A    between atoms: C_1  and  N_2
REMARK    2  A    between atoms: N_2  and  C_3
REMARK    3  A    between atoms: N_2  and  C_9
REMARK    4  A    between atoms: C_9  and  S_10
REMARK    5  A    between atoms: C_9  and  C_12
REMARK                            x       y       z     vdW  Elec       q    Type
REMARK                         _______ _______ _______ _____ _____    ______ ____
ROOT
ATOM      1  C   UNL     1       3.240  -0.884  -1.003  0.00  0.00    +0.000 C 
ENDROOT
BRANCH   1   2
ATOM      2  C   UNL     1       2.581  -2.215  -1.025  0.00  0.00    +0.000 A 
ATOM      3  C   UNL     1       2.433  -2.940  -2.215  0.00  0.00    +0.000 A 
ATOM      4  C   UNL     1       1.798  -4.186  -2.197  0.00  0.00    +0.000 A 
ATOM      5  C   UNL     1       1.315  -4.703  -0.996  0.00  0.00    +0.000 A 
ATOM      6  C   UNL     1       1.457  -3.986   0.191  0.00  0.00    +0.000 A 
ATOM      7  C   UNL     1       2.089  -2.740   0.179  0.00  0.00    +0.000 A 
ATOM      8 CL   UNL     1       0.533  -6.235  -0.980  0.00  0.00    +0.000 Cl
ENDBRANCH   1   2
BRANCH   1  10
ATOM      9  C   UNL     1       1.166   0.395  -0.664  0.00  0.00    +0.000 C 
ATOM     10  N   UNL     1       2.574   0.161  -0.344  0.00  0.00    +0.000 N 
BRANCH  10  11
ATOM     11  C   UNL     1       3.203   1.021   0.626  0.00  0.00    +0.000 A 
ATOM     12  C   UNL     1       4.391   0.644   1.270  0.00  0.00    +0.000 A 
ATOM     13  C   UNL     1       4.981   1.457   2.245  0.00  0.00    +0.000 A 
ATOM     14  C   UNL     1       4.386   2.661   2.606  0.00  0.00    +0.000 A 
ATOM     15  C   UNL     1       3.199   3.047   1.995  0.00  0.00    +0.000 A 
ATOM     16  C   UNL     1       2.611   2.232   1.021  0.00  0.00    +0.000 A 
ENDBRANCH  10  11
ENDBRANCH   1  10
BRANCH   1  17
ATOM     17  S   UNL     1       4.675  -0.701  -1.800  0.00  0.00    +0.000 S 
ATOM     18  O   UNL     1       5.242   0.676  -1.803  0.00  0.00    +0.000 OA
ENDBRANCH   1  17
TORSDOF 4
