REMARK  Name = *****
REMARK  4 active torsions:
REMARK  status: ('A' for Active; 'I' for Inactive)
REMARK    1  A    between atoms: C_1  and  C_2
REMARK    2  A    between atoms: C_2  and  C_3
REMARK    3  A    between atoms: C_2  and  S_10
REMARK    4  A    between atoms: S_10  and  C_11
REMARK                            x       y       z     vdW  Elec       q    Type
REMARK                         _______ _______ _______ _____ _____    ______ ____
ROOT
ATOM      1  C   UNL     1       0.796  -0.181  -0.010  0.00  0.00    +0.000 C 
ATOM      2  C   UNL     1       2.326  -0.207  -0.064  0.00  0.00    +0.000 C 
ENDROOT
BRANCH   2   3
ATOM      3  C   UNL     1       2.928  -0.748   1.227  0.00  0.00    +0.000 A 
ATOM      4  C   UNL     1       2.558  -2.002   1.748  0.00  0.00    +0.000 A 
ATOM      5  C   UNL     1       3.123  -2.476   2.934  0.00  0.00    +0.000 A 
ATOM      6  C   UNL     1       4.062  -1.701   3.603  0.00  0.00    +0.000 A 
ATOM      7  C   UNL     1       4.450  -0.463   3.107  0.00  0.00    +0.000 A 
ATOM      8  C   UNL     1       3.887   0.012   1.921  0.00  0.00    +0.000 A 
ATOM      9  F   UNL     1       4.603  -2.156   4.741  0.00  0.00    +0.000 F 
ENDBRANCH   2   3
BRANCH   2  10
ATOM     10  S   UNL     1       2.928  -1.195  -1.501  0.00  0.00    +0.000 S 
BRANCH  10  11
ATOM     11  C   UNL     1       2.369  -0.186  -2.860  0.00  0.00    +0.000 A 
ATOM     12  C   UNL     1       2.850   1.112  -3.053  0.00  0.00    +0.000 A 
ATOM     13  C   UNL     1       2.399   1.879  -4.130  0.00  0.00    +0.000 A 
ATOM     14  C   UNL     1       1.472   1.347  -5.025  0.00  0.00    +0.000 A 
ATOM     15  C   UNL     1       1.001   0.047  -4.849  0.00  0.00    +0.000 A 
ATOM     16  C   UNL     1       1.452  -0.719  -3.772  0.00  0.00    +0.000 A 
ENDBRANCH  10  11
ENDBRANCH   2  10
TORSDOF 3
