REMARK  Name = *****
REMARK  5 active torsions:
REMARK  status: ('A' for Active; 'I' for Inactive)
REMARK    1  A    between atoms: C_1  and  C_2
REMARK    2  A    between atoms: C_4  and  C_8
REMARK    3  A    between atoms: C_8  and  N_9
REMARK    4  A    between atoms: N_9  and  C_10
REMARK    5  A    between atoms: N_9  and  C_11
REMARK                            x       y       z     vdW  Elec       q    Type
REMARK                         _______ _______ _______ _____ _____    ______ ____
ROOT
ATOM      1  C   UNL     1      -1.899   2.555  -0.098  0.00  0.00    +0.000 C 
ENDROOT
BRANCH   1   5
ATOM      2  C   UNL     1      -1.193  -2.317   1.048  0.00  0.00    +0.000 C 
ATOM      3  C   UNL     1      -0.960  -1.152   0.133  0.00  0.00    +0.000 A 
ATOM      4  C   UNL     1      -1.511   0.104   0.428  0.00  0.00    +0.000 A 
ATOM      5  C   UNL     1      -1.270   1.210  -0.402  0.00  0.00    +0.000 A 
ATOM      6  C   UNL     1      -0.469   1.040  -1.540  0.00  0.00    +0.000 A 
ATOM      7  C   UNL     1       0.097  -0.200  -1.831  0.00  0.00    +0.000 A 
ATOM      8  C   UNL     1      -0.143  -1.290  -0.995  0.00  0.00    +0.000 A 
ENDBRANCH   1   5
BRANCH   1   9
ATOM      9  N   UNL     1      -0.897   3.634  -0.088  0.00  0.00    +0.000 N 
ATOM     10  C   UNL     1       0.056   3.587   1.030  0.00  0.00    +0.000 C 
BRANCH   9  11
ATOM     11  C   UNL     1      -1.374   4.943  -0.302  0.00  0.00    +0.000 A 
ATOM     12  C   UNL     1      -2.686   5.350  -0.017  0.00  0.00    +0.000 A 
ATOM     13  C   UNL     1      -3.104   6.666  -0.247  0.00  0.00    +0.000 A 
ATOM     14  C   UNL     1      -2.216   7.602  -0.769  0.00  0.00    +0.000 A 
ATOM     15  C   UNL     1      -0.910   7.222  -1.062  0.00  0.00    +0.000 A 
ATOM     16  C   UNL     1      -0.498   5.907  -0.829  0.00  0.00    +0.000 A 
ENDBRANCH   9  11
ENDBRANCH   1   9
TORSDOF 3
