REMARK  Name = *****
REMARK  1 active torsions:
REMARK  status: ('A' for Active; 'I' for Inactive)
REMARK    1  A    between atoms: C_4  and  C_6
REMARK                            x       y       z     vdW  Elec       q    Type
REMARK                         _______ _______ _______ _____ _____    ______ ____
ROOT
ATOM      1  C   UNL     1       0.012  -2.398   1.087  0.00  0.00    +0.000 A 
ATOM      2  C   UNL     1       0.094  -3.787   1.217  0.00  0.00    +0.000 A 
ATOM      3  C   UNL     1       0.031  -4.134   2.569  0.00  0.00    +0.000 A 
ATOM      4  C   UNL     1      -0.088  -3.104   3.416  0.00  0.00    +0.000 A 
ATOM      5  S   UNL     1      -0.136  -1.624   2.648  0.00  0.00    +0.000 S 
ATOM      6  S   UNL     1      -0.158  -3.576   5.018  0.00  0.00    +0.000 S 
ATOM      7  C   UNL     1      -0.020  -5.245   4.544  0.00  0.00    +0.000 A 
ATOM      8  C   UNL     1       0.076  -5.398   3.167  0.00  0.00    +0.000 A 
ENDROOT
BRANCH   1  12
ATOM      9  C   UNL     1       0.984  -2.585  -2.478  0.00  0.00    +0.000 C 
ATOM     10  C   UNL     1      -0.374  -1.995  -2.798  0.00  0.00    +0.000 C 
ATOM     11  S   UNL     1      -1.339  -1.982  -1.269  0.00  0.00    +0.000 S 
ATOM     12  C   UNL     1       0.036  -1.545  -0.151  0.00  0.00    +0.000 C 
ATOM     13  S   UNL     1       1.629  -1.717  -1.028  0.00  0.00    +0.000 S 
ENDBRANCH   1  12
TORSDOF 1
