REMARK  Name = *****
REMARK  4 active torsions:
REMARK  status: ('A' for Active; 'I' for Inactive)
REMARK    1  A    between atoms: C_4  and  C_7
REMARK    2  A    between atoms: C_7  and  C_8
REMARK    3  A    between atoms: C_7  and  S_10
REMARK    4  A    between atoms: S_10  and  C_11
REMARK                            x       y       z     vdW  Elec       q    Type
REMARK                         _______ _______ _______ _____ _____    ______ ____
ROOT
ATOM      1  C   UNL     1      -2.866   0.151  -0.781  0.00  0.00    +0.000 C 
ENDROOT
BRANCH   1   5
ATOM      2  C   UNL     1       1.254  -0.257   0.514  0.00  0.00    +0.000 A 
ATOM      3  C   UNL     1       0.352   0.494   1.264  0.00  0.00    +0.000 A 
ATOM      4  C   UNL     1      -0.972   0.625   0.841  0.00  0.00    +0.000 A 
ATOM      5  C   UNL     1      -1.412   0.008  -0.343  0.00  0.00    +0.000 A 
ATOM      6  C   UNL     1      -0.490  -0.757  -1.081  0.00  0.00    +0.000 A 
ATOM      7  C   UNL     1       0.834  -0.883  -0.656  0.00  0.00    +0.000 A 
ENDBRANCH   1   5
BRANCH   1   8
ATOM      8  C   UNL     1      -2.994   0.521  -2.209  0.00  0.00    +0.000 C 
ATOM      9  N   UNL     1      -3.098   0.818  -3.328  0.00  0.00    +0.000 NA
ENDBRANCH   1   8
BRANCH   1  10
ATOM     10  S   UNL     1      -3.787  -1.399  -0.370  0.00  0.00    +0.000 S 
BRANCH  10  11
ATOM     11  C   UNL     1      -5.455  -0.844  -0.661  0.00  0.00    +0.000 A 
ATOM     12  C   UNL     1      -6.145  -1.290  -1.792  0.00  0.00    +0.000 A 
ATOM     13  C   UNL     1      -7.451  -0.861  -2.032  0.00  0.00    +0.000 A 
ATOM     14  C   UNL     1      -8.076   0.008  -1.140  0.00  0.00    +0.000 A 
ATOM     15  C   UNL     1      -7.398   0.445  -0.003  0.00  0.00    +0.000 A 
ATOM     16  C   UNL     1      -6.091   0.017   0.239  0.00  0.00    +0.000 A 
ENDBRANCH  10  11
ENDBRANCH   1  10
TORSDOF 4
