REMARK  Name = *****
REMARK  4 active torsions:
REMARK  status: ('A' for Active; 'I' for Inactive)
REMARK    1  A    between atoms: C_3  and  C_19
REMARK    2  A    between atoms: C_6  and  C_7
REMARK    3  A    between atoms: C_8  and  C_9
REMARK    4  A    between atoms: C_12  and  C_15
REMARK                            x       y       z     vdW  Elec       q    Type
REMARK                         _______ _______ _______ _____ _____    ______ ____
ROOT
ATOM      1  C   UNL     1       3.862  -0.070   0.015  0.00  0.00    +0.000 C 
ATOM      2  C   UNL     1       4.761   0.928   0.050  0.00  0.00    +0.000 C 
ENDROOT
BRANCH   1   8
ATOM      3  C   UNL     1       1.798   1.184  -0.688  0.00  0.00    +0.000 A 
ATOM      4  C   UNL     1       0.406   1.335  -0.682  0.00  0.00    +0.000 A 
ATOM      5  C   UNL     1      -0.394   0.435   0.028  0.00  0.00    +0.000 A 
ATOM      6  C   UNL     1       0.212  -0.610   0.720  0.00  0.00    +0.000 A 
ATOM      7  C   UNL     1       1.598  -0.766   0.717  0.00  0.00    +0.000 A 
ATOM      8  C   UNL     1       2.408   0.140   0.023  0.00  0.00    +0.000 A 
ATOM      9  F   UNL     1      -0.531  -1.493   1.403  0.00  0.00    +0.000 F 
BRANCH   5  10
ATOM     10  C   UNL     1      -1.816   0.581   0.039  0.00  0.00    +0.000 C 
ATOM     11  N   UNL     1      -2.967   0.729   0.026  0.00  0.00    +0.000 NA
ENDBRANCH   5  10
ENDBRANCH   1   8
BRANCH   2  12
ATOM     12  C   UNL     1       6.215   0.717   0.062  0.00  0.00    +0.000 A 
ATOM     13  C   UNL     1       7.017   1.580   0.817  0.00  0.00    +0.000 A 
ATOM     14  C   UNL     1       8.403   1.424   0.826  0.00  0.00    +0.000 A 
ATOM     15  C   UNL     1       9.017   0.421   0.081  0.00  0.00    +0.000 A 
ATOM     16  C   UNL     1       8.226  -0.435  -0.690  0.00  0.00    +0.000 A 
ATOM     17  C   UNL     1       6.834  -0.283  -0.703  0.00  0.00    +0.000 A 
ATOM     18  F   UNL     1       9.138   2.264   1.569  0.00  0.00    +0.000 F 
BRANCH  15  19
ATOM     19  C   UNL     1      10.439   0.274   0.098  0.00  0.00    +0.000 C 
ATOM     20  N   UNL     1      11.590   0.127   0.090  0.00  0.00    +0.000 NA
ENDBRANCH  15  19
ENDBRANCH   2  12
TORSDOF 4
