REMARK  Name = *****
REMARK  3 active torsions:
REMARK  status: ('A' for Active; 'I' for Inactive)
REMARK    1  A    between atoms: C_5  and  N_8
REMARK    2  A    between atoms: N_8  and  C_9
REMARK    3  A    between atoms: C_9  and  C_10
REMARK                            x       y       z     vdW  Elec       q    Type
REMARK                         _______ _______ _______ _____ _____    ______ ____
ROOT
ATOM      1  N   UNL     1      -2.498   0.277  -1.587  0.00  0.00    +0.000 NA
ENDROOT
BRANCH   1   6
ATOM      2  C   UNL     1       1.942  -1.615   0.490  0.00  0.00    +0.000 C 
ATOM      3  C   UNL     1       0.763  -1.029   0.228  0.00  0.00    +0.000 C 
ATOM      4  C   UNL     1       0.723   0.358  -0.213  0.00  0.00    +0.000 C 
ATOM      5  C   UNL     1      -0.458   0.950  -0.458  0.00  0.00    +0.000 C 
ATOM      6  C   UNL     1      -1.791   0.251  -0.296  0.00  0.00    +0.000 C 
ATOM      7  C   UNL     1      -1.654  -1.195   0.126  0.00  0.00    +0.000 C 
ATOM      8  C   UNL     1      -0.473  -1.787   0.372  0.00  0.00    +0.000 C 
ENDBRANCH   1   6
BRANCH   1   9
ATOM      9  C   UNL     1      -3.374   1.052  -1.675  0.00  0.00    +0.000 C 
BRANCH   9  10
ATOM     10  C   UNL     1      -4.346   1.912  -1.792  0.00  0.00    +0.000 C 
ATOM     11  C   UNL     1      -5.438   1.765  -2.821  0.00  0.00    +0.000 C 
ATOM     12  C   UNL     1      -5.587   3.040  -3.651  0.00  0.00    +0.000 C 
ATOM     13  C   UNL     1      -5.755   4.277  -2.769  0.00  0.00    +0.000 C 
ATOM     14  C   UNL     1      -4.616   4.400  -1.756  0.00  0.00    +0.000 C 
ATOM     15  C   UNL     1      -4.463   3.133  -0.916  0.00  0.00    +0.000 C 
ENDBRANCH   9  10
ENDBRANCH   1   9
TORSDOF 3
