REMARK  Name = *****
REMARK  4 active torsions:
REMARK  status: ('A' for Active; 'I' for Inactive)
REMARK    1  A    between atoms: C_2  and  C_12
REMARK    2  A    between atoms: C_4  and  C_8
REMARK    3  A    between atoms: C_12  and  C_13
REMARK    4  A    between atoms: C_13  and  C_14
REMARK                            x       y       z     vdW  Elec       q    Type
REMARK                         _______ _______ _______ _____ _____    ______ ____
ROOT
ATOM      1  C   UNL     1       0.650   1.309  -0.125  0.00  0.00    +0.000 C 
ATOM      2  C   UNL     1       1.321  -0.023   0.215  0.00  0.00    +0.000 C 
ATOM      3  O   UNL     1       0.555  -1.100  -0.331  0.00  0.00    +0.000 OA
ATOM      4  C   UNL     1      -0.777  -1.187   0.214  0.00  0.00    +0.000 C 
ATOM      5  C   UNL     1      -1.548   0.091  -0.122  0.00  0.00    +0.000 C 
ATOM      6  C   UNL     1      -0.784   1.307   0.391  0.00  0.00    +0.000 C 
ATOM      7 CL   UNL     1      -1.618   2.808  -0.096  0.00  0.00    +0.000 Cl
ENDROOT
BRANCH   4   8
ATOM      8  C   UNL     1      -1.518  -2.420  -0.320  0.00  0.00    +0.000 C 
ATOM      9  F   UNL     1      -0.862  -3.561  -0.012  0.00  0.00    +0.000 F 
ATOM     10  F   UNL     1      -2.751  -2.508   0.236  0.00  0.00    +0.000 F 
ATOM     11  F   UNL     1      -1.680  -2.378  -1.660  0.00  0.00    +0.000 F 
ENDBRANCH   4   8
BRANCH   2  12
ATOM     12  C   UNL     1       2.736  -0.083  -0.369  0.00  0.00    +0.000 C 
BRANCH  12  13
ATOM     13  C   UNL     1       3.452  -1.386   0.003  0.00  0.00    +0.000 C 
BRANCH  13  14
ATOM     14  C   UNL     1       4.872  -1.402  -0.509  0.00  0.00    +0.000 A 
ATOM     15  C   UNL     1       5.924  -0.945   0.296  0.00  0.00    +0.000 A 
ATOM     16  C   UNL     1       7.234  -0.943  -0.187  0.00  0.00    +0.000 A 
ATOM     17  C   UNL     1       7.502  -1.393  -1.479  0.00  0.00    +0.000 A 
ATOM     18  C   UNL     1       6.462  -1.844  -2.289  0.00  0.00    +0.000 A 
ATOM     19  C   UNL     1       5.152  -1.846  -1.808  0.00  0.00    +0.000 A 
ENDBRANCH  13  14
ENDBRANCH  12  13
ENDBRANCH   2  12
TORSDOF 4
