REMARK  Name = *****
REMARK  5 active torsions:
REMARK  status: ('A' for Active; 'I' for Inactive)
REMARK    1  A    between atoms: C_1  and  C_2
REMARK    2  A    between atoms: C_2  and  C_4
REMARK    3  A    between atoms: C_4  and  C_5
REMARK    4  A    between atoms: C_4  and  C_13
REMARK    5  A    between atoms: C_5  and  C_6
REMARK                            x       y       z     vdW  Elec       q    Type
REMARK                         _______ _______ _______ _____ _____    ______ ____
ROOT
ATOM      1  C   UNL     1       3.151   0.922   0.589  0.00  0.00    +0.000 C 
ENDROOT
BRANCH   1   2
ATOM      2  C   UNL     1       4.651   0.980   0.351  0.00  0.00    +0.000 A 
ATOM      3  C   UNL     1       5.199   1.971  -0.480  0.00  0.00    +0.000 A 
ATOM      4  C   UNL     1       6.576   2.023  -0.710  0.00  0.00    +0.000 A 
ATOM      5  C   UNL     1       7.424   1.090  -0.114  0.00  0.00    +0.000 A 
ATOM      6  C   UNL     1       6.895   0.104   0.714  0.00  0.00    +0.000 A 
ATOM      7  C   UNL     1       5.522   0.056   0.940  0.00  0.00    +0.000 A 
ATOM      8  F   UNL     1       5.041  -0.902   1.743  0.00  0.00    +0.000 F 
ENDBRANCH   1   2
BRANCH   1  10
ATOM      9  C   UNL     1       2.449  -0.472  -1.475  0.00  0.00    +0.000 C 
ATOM     10  C   UNL     1       2.559  -0.377   0.028  0.00  0.00    +0.000 C 
ATOM     11  O   UNL     1       2.197  -1.316   0.738  0.00  0.00    +0.000 OA
ENDBRANCH   1  10
BRANCH   1  12
ATOM     12  C   UNL     1       2.805   1.130   2.077  0.00  0.00    +0.000 C 
BRANCH  12  13
ATOM     13  C   UNL     1       1.370   1.569   2.284  0.00  0.00    +0.000 A 
ATOM     14  C   UNL     1       0.382   0.632   2.618  0.00  0.00    +0.000 A 
ATOM     15  C   UNL     1      -0.944   1.032   2.791  0.00  0.00    +0.000 A 
ATOM     16  C   UNL     1      -1.289   2.371   2.629  0.00  0.00    +0.000 A 
ATOM     17  C   UNL     1      -0.319   3.314   2.297  0.00  0.00    +0.000 A 
ATOM     18  C   UNL     1       1.008   2.915   2.124  0.00  0.00    +0.000 A 
ATOM     19 CL   UNL     1      -2.924   2.865   2.839  0.00  0.00    +0.000 Cl
ENDBRANCH  12  13
ENDBRANCH   1  12
TORSDOF 4
