REMARK  Name = *****
REMARK  6 active torsions:
REMARK  status: ('A' for Active; 'I' for Inactive)
REMARK    1  A    between atoms: C_1  and  C_2
REMARK    2  A    between atoms: C_5  and  S_8
REMARK    3  A    between atoms: S_8  and  C_9
REMARK    4  A    between atoms: C_9  and  C_10
REMARK    5  A    between atoms: C_12  and  O_17
REMARK    6  A    between atoms: O_17  and  C_18
REMARK                            x       y       z     vdW  Elec       q    Type
REMARK                         _______ _______ _______ _____ _____    ______ ____
ROOT
ATOM      1  C   UNL     1      -4.123   1.382  -0.106  0.00  0.00    +0.000 C 
ENDROOT
BRANCH   1   2
ATOM      2  C   UNL     1      -5.661   1.470  -0.097  0.00  0.00    +0.000 C 
ATOM      3  C   UNL     1      -6.331   0.274  -0.806  0.00  0.00    +0.000 C 
ATOM      4  C   UNL     1      -7.864   0.391  -0.815  0.00  0.00    +0.000 C 
ATOM      5  C   UNL     1      -8.301   1.717  -1.464  0.00  0.00    +0.000 C 
ATOM      6  C   UNL     1      -7.590   2.907  -0.861  0.00  0.00    +0.000 C 
ATOM      7  C   UNL     1      -8.250   3.985  -0.407  0.00  0.00    +0.000 C 
ATOM      8  C   UNL     1      -6.090   2.787  -0.778  0.00  0.00    +0.000 C 
BRANCH   4   9
ATOM      9  O   UNL     1      -8.421   0.343   0.506  0.00  0.00    +0.000 OA
ATOM     10  C   UNL     1      -8.359  -0.938   1.115  0.00  0.00    +0.000 C 
ENDBRANCH   4   9
ENDBRANCH   1   2
BRANCH   1  11
ATOM     11  S   UNL     1      -3.496  -0.039   0.861  0.00  0.00    +0.000 S 
BRANCH  11  16
ATOM     12  C   UNL     1       2.485   1.067   1.381  0.00  0.00    +0.000 C 
ATOM     13  C   UNL     1       1.010   0.834   1.249  0.00  0.00    +0.000 A 
ATOM     14  C   UNL     1       0.350   1.135   0.053  0.00  0.00    +0.000 A 
ATOM     15  C   UNL     1      -1.020   0.885  -0.086  0.00  0.00    +0.000 A 
ATOM     16  C   UNL     1      -1.752   0.332   0.967  0.00  0.00    +0.000 A 
ATOM     17  C   UNL     1      -1.084   0.005   2.152  0.00  0.00    +0.000 A 
ATOM     18  C   UNL     1       0.285   0.252   2.293  0.00  0.00    +0.000 A 
ENDBRANCH  11  16
ENDBRANCH   1  11
TORSDOF 4
