REMARK  Name = *****
REMARK  5 active torsions:
REMARK  status: ('A' for Active; 'I' for Inactive)
REMARK    1  A    between atoms: C_1  and  C_2
REMARK    2  A    between atoms: C_5  and  S_8
REMARK    3  A    between atoms: S_8  and  O_10
REMARK    4  A    between atoms: O_10  and  C_11
REMARK    5  A    between atoms: C_11  and  C_18
REMARK                            x       y       z     vdW  Elec       q    Type
REMARK                         _______ _______ _______ _____ _____    ______ ____
ROOT
ATOM      1  S   UNL     1      -3.235   3.061   0.456  0.00  0.00    +0.000 S 
ATOM      2  O   UNL     1      -3.425   4.118  -0.591  0.00  0.00    +0.000 OA
ENDROOT
BRANCH   1   7
ATOM      3  C   UNL     1       2.167   0.422  -0.692  0.00  0.00    +0.000 C 
ATOM      4  C   UNL     1       0.856   1.094  -0.406  0.00  0.00    +0.000 A 
ATOM      5  C   UNL     1       0.163   0.815   0.778  0.00  0.00    +0.000 A 
ATOM      6  C   UNL     1      -1.074   1.413   1.032  0.00  0.00    +0.000 A 
ATOM      7  C   UNL     1      -1.637   2.292   0.101  0.00  0.00    +0.000 A 
ATOM      8  C   UNL     1      -0.952   2.563  -1.087  0.00  0.00    +0.000 A 
ATOM      9  C   UNL     1       0.283   1.962  -1.342  0.00  0.00    +0.000 A 
ENDBRANCH   1   7
BRANCH   1  10
ATOM     10  O   UNL     1      -4.046   1.749  -0.016  0.00  0.00    +0.000 OA
BRANCH  10  11
ATOM     11  C   UNL     1      -5.477   1.788   0.031  0.00  0.00    +0.000 C 
ATOM     12  C   UNL     1      -6.149   2.712  -1.012  0.00  0.00    +0.000 C 
ATOM     13  C   UNL     1      -5.563   2.202  -2.349  0.00  0.00    +0.000 C 
ATOM     14  C   UNL     1      -5.463   0.686  -2.119  0.00  0.00    +0.000 C 
ATOM     15  C   UNL     1      -6.023   0.524  -0.686  0.00  0.00    +0.000 C 
ATOM     16  C   UNL     1      -7.544   0.766  -0.762  0.00  0.00    +0.000 C 
ATOM     17  C   UNL     1      -7.631   2.288  -0.964  0.00  0.00    +0.000 C 
ATOM     18  C   UNL     1      -5.950   1.919   1.486  0.00  0.00    +0.000 C 
ENDBRANCH  10  11
ENDBRANCH   1  10
TORSDOF 3
