REMARK  Name = *****
REMARK  3 active torsions:
REMARK  status: ('A' for Active; 'I' for Inactive)
REMARK    1  A    between atoms: C_4  and  C_7
REMARK    2  A    between atoms: C_7  and  C_8
REMARK    3  A    between atoms: C_9  and  C_10
REMARK                            x       y       z     vdW  Elec       q    Type
REMARK                         _______ _______ _______ _____ _____    ______ ____
ROOT
ATOM      1  C   UNL     1       2.731  -0.817  -0.340  0.00  0.00    +0.000 C 
ENDROOT
BRANCH   1   5
ATOM      2  C   UNL     1      -1.456   0.477  -0.215  0.00  0.00    +0.000 C 
ATOM      3  C   UNL     1      -1.146  -0.973   0.137  0.00  0.00    +0.000 C 
ATOM      4  C   UNL     1       0.245  -1.386  -0.340  0.00  0.00    +0.000 C 
ATOM      5  C   UNL     1       1.338  -0.444   0.198  0.00  0.00    +0.000 C 
ATOM      6  C   UNL     1       1.009   1.014  -0.165  0.00  0.00    +0.000 C 
ATOM      7  C   UNL     1      -0.382   1.422   0.312  0.00  0.00    +0.000 C 
ENDBRANCH   1   5
BRANCH   1   8
ATOM      8  C   UNL     1       3.199  -2.111   0.179  0.00  0.00    +0.000 C 
ATOM      9  C   UNL     1       3.578  -3.169   0.601  0.00  0.00    +0.000 C 
BRANCH   9  10
ATOM     10  C   UNL     1       4.021  -4.432   1.101  0.00  0.00    +0.000 A 
ATOM     11  C   UNL     1       4.978  -4.557   2.083  0.00  0.00    +0.000 A 
ATOM     12  S   UNL     1       5.294  -6.196   2.468  0.00  0.00    +0.000 S 
ATOM     13  C   UNL     1       4.149  -6.743   1.318  0.00  0.00    +0.000 A 
ATOM     14  C   UNL     1       3.540  -5.697   0.657  0.00  0.00    +0.000 A 
ENDBRANCH   9  10
ENDBRANCH   1   8
TORSDOF 3
