REMARK  Name = *****
REMARK  3 active torsions:
REMARK  status: ('A' for Active; 'I' for Inactive)
REMARK    1  A    between atoms: C_4  and  O_7
REMARK    2  A    between atoms: O_7  and  C_8
REMARK    3  A    between atoms: C_8  and  C_10
REMARK                            x       y       z     vdW  Elec       q    Type
REMARK                         _______ _______ _______ _____ _____    ______ ____
ROOT
ATOM      1  C   UNL     1       0.665  -3.429   1.217  0.00  0.00    +0.000 C 
ATOM      2  O   UNL     1       0.965  -2.837   2.241  0.00  0.00    +0.000 OA
ENDROOT
BRANCH   1   3
ATOM      3  C   UNL     1       0.815  -4.886   1.070  0.00  0.00    +0.000 A 
ATOM      4  C   UNL     1      -0.260  -5.725   0.744  0.00  0.00    +0.000 A 
ATOM      5  C   UNL     1      -0.022  -7.102   0.621  0.00  0.00    +0.000 A 
ATOM      6  C   UNL     1       1.261  -7.624   0.833  0.00  0.00    +0.000 A 
ATOM      7  C   UNL     1       2.317  -6.782   1.179  0.00  0.00    +0.000 A 
ATOM      8  C   UNL     1       2.094  -5.414   1.303  0.00  0.00    +0.000 A 
ATOM      9 CL   UNL     1      -1.272  -8.228   0.215  0.00  0.00    +0.000 Cl
ATOM     10 CL   UNL     1      -1.860  -5.084   0.548  0.00  0.00    +0.000 Cl
ENDBRANCH   1   3
BRANCH   1  11
ATOM     11  O   UNL     1       0.288  -2.922   0.009  0.00  0.00    +0.000 OA
BRANCH  11  15
ATOM     12  C   UNL     1      -0.204   1.312   0.185  0.00  0.00    +0.000 C 
ATOM     13  C   UNL     1      -1.448   0.432   0.286  0.00  0.00    +0.000 C 
ATOM     14  C   UNL     1      -1.083  -0.987   0.729  0.00  0.00    +0.000 C 
ATOM     15  C   UNL     1       0.122  -1.526   0.002  0.00  0.00    +0.000 C 
ATOM     16  C   UNL     1       0.951  -0.755  -0.717  0.00  0.00    +0.000 C 
ATOM     17  C   UNL     1       0.807   0.736  -0.810  0.00  0.00    +0.000 C 
ENDBRANCH  11  15
ENDBRANCH   1  11
TORSDOF 3
