REMARK  Name = *****
REMARK  5 active torsions:
REMARK  status: ('A' for Active; 'I' for Inactive)
REMARK    1  A    between atoms: C_1  and  C_2
REMARK    2  A    between atoms: C_5  and  C_8
REMARK    3  A    between atoms: C_8  and  C_10
REMARK    4  A    between atoms: C_10  and  C_11
REMARK    5  A    between atoms: C_11  and  C_12
REMARK                            x       y       z     vdW  Elec       q    Type
REMARK                         _______ _______ _______ _____ _____    ______ ____
ROOT
ATOM      1  C   UNL     1      -3.276   0.217   0.609  0.00  0.00    +0.000 C 
ATOM      2  O   UNL     1      -3.837  -0.698   1.209  0.00  0.00    +0.000 OA
ENDROOT
BRANCH   1   7
ATOM      3  C   UNL     1       2.486  -0.153  -0.023  0.00  0.00    +0.000 C 
ATOM      4  C   UNL     1       0.994  -0.052   0.105  0.00  0.00    +0.000 A 
ATOM      5  C   UNL     1       0.350   1.180  -0.059  0.00  0.00    +0.000 A 
ATOM      6  C   UNL     1      -1.036   1.287   0.095  0.00  0.00    +0.000 A 
ATOM      7  C   UNL     1      -1.795   0.157   0.421  0.00  0.00    +0.000 A 
ATOM      8  C   UNL     1      -1.150  -1.072   0.607  0.00  0.00    +0.000 A 
ATOM      9  C   UNL     1       0.235  -1.174   0.453  0.00  0.00    +0.000 A 
ENDBRANCH   1   7
BRANCH   1  10
ATOM     10  C   UNL     1      -4.025   1.435   0.116  0.00  0.00    +0.000 C 
BRANCH  10  11
ATOM     11  C   UNL     1      -5.489   1.098  -0.153  0.00  0.00    +0.000 C 
ATOM     12  F   UNL     1      -5.531   0.368  -1.312  0.00  0.00    +0.000 F 
BRANCH  11  13
ATOM     13  C   UNL     1      -6.315   2.364  -0.260  0.00  0.00    +0.000 A 
ATOM     14  C   UNL     1      -6.633   2.905  -1.514  0.00  0.00    +0.000 A 
ATOM     15  C   UNL     1      -7.377   4.082  -1.609  0.00  0.00    +0.000 A 
ATOM     16  C   UNL     1      -7.809   4.730  -0.453  0.00  0.00    +0.000 A 
ATOM     17  C   UNL     1      -7.500   4.202   0.799  0.00  0.00    +0.000 A 
ATOM     18  C   UNL     1      -6.757   3.025   0.897  0.00  0.00    +0.000 A 
ENDBRANCH  11  13
ENDBRANCH  10  11
ENDBRANCH   1  10
TORSDOF 4
