REMARK  Name = *****
REMARK  4 active torsions:
REMARK  status: ('A' for Active; 'I' for Inactive)
REMARK    1  A    between atoms: C_4  and  C_7
REMARK    2  A    between atoms: C_7  and  S_8
REMARK    3  A    between atoms: S_8  and  C_9
REMARK    4  A    between atoms: C_12  and  C_14
REMARK                            x       y       z     vdW  Elec       q    Type
REMARK                         _______ _______ _______ _____ _____    ______ ____
ROOT
ATOM      1  S   UNL     1      -3.767  -1.391  -0.212  0.00  0.00    +0.000 S 
ENDROOT
BRANCH   1   2
ATOM      2  C   UNL     1      -5.444  -0.921  -0.366  0.00  0.00    +0.000 A 
ATOM      3  N   UNL     1      -5.821   0.337  -0.397  0.00  0.00    +0.000 NA
ATOM      4  C   UNL     1      -7.195   0.405  -0.528  0.00  0.00    +0.000 A 
ATOM      5  C   UNL     1      -7.853  -0.807  -0.580  0.00  0.00    +0.000 A 
ATOM      6  S   UNL     1      -6.706  -2.078  -0.473  0.00  0.00    +0.000 S 
BRANCH   5   7
ATOM      7  C   UNL     1      -9.308  -1.083  -0.700  0.00  0.00    +0.000 C 
ATOM      8 CL   UNL     1      -9.831  -0.898  -2.389  0.00  0.00    +0.000 Cl
ENDBRANCH   5   7
ENDBRANCH   1   2
BRANCH   1   9
ATOM      9  C   UNL     1      -2.971   0.240  -0.179  0.00  0.00    +0.000 C 
BRANCH   9  13
ATOM     10  C   UNL     1       1.311  -0.134   0.196  0.00  0.00    +0.000 A 
ATOM     11  C   UNL     1       0.724  -0.082  -1.067  0.00  0.00    +0.000 A 
ATOM     12  C   UNL     1      -0.661   0.041  -1.190  0.00  0.00    +0.000 A 
ATOM     13  C   UNL     1      -1.472   0.120  -0.048  0.00  0.00    +0.000 A 
ATOM     14  C   UNL     1      -0.870   0.058   1.217  0.00  0.00    +0.000 A 
ATOM     15  C   UNL     1       0.515  -0.065   1.337  0.00  0.00    +0.000 A 
ENDBRANCH   9  13
ENDBRANCH   1   9
TORSDOF 4
