REMARK  Name = *****
REMARK  5 active torsions:
REMARK  status: ('A' for Active; 'I' for Inactive)
REMARK    1  A    between atoms: C_1  and  C_2
REMARK    2  A    between atoms: C_4  and  C_17
REMARK    3  A    between atoms: C_5  and  C_9
REMARK    4  A    between atoms: C_6  and  C_8
REMARK    5  A    between atoms: C_10  and  C_11
REMARK                            x       y       z     vdW  Elec       q    Type
REMARK                         _______ _______ _______ _____ _____    ______ ____
ROOT
ATOM      1  C   UNL     1       2.157   1.917   0.150  0.00  0.00    +0.000 C 
ATOM      2  C   UNL     1       1.047   0.913   0.049  0.00  0.00    +0.000 A 
ATOM      3  C   UNL     1       1.325  -0.457   0.070  0.00  0.00    +0.000 A 
ATOM      4  C   UNL     1       0.294  -1.409   0.007  0.00  0.00    +0.000 A 
ATOM      5  C   UNL     1      -1.047  -0.972  -0.054  0.00  0.00    +0.000 A 
ATOM      6  C   UNL     1      -1.338   0.409  -0.067  0.00  0.00    +0.000 A 
ATOM      7  C   UNL     1      -0.284   1.335  -0.007  0.00  0.00    +0.000 A 
ATOM      8  C   UNL     1      -2.754   0.920  -0.120  0.00  0.00    +0.000 C 
ATOM      9  C   UNL     1       0.653  -2.871   0.036  0.00  0.00    +0.000 C 
ENDROOT
BRANCH   5  10
ATOM     10  C   UNL     1      -2.144  -1.952  -0.090  0.00  0.00    +0.000 C 
ATOM     11  C   UNL     1      -2.652  -2.473   1.039  0.00  0.00    +0.000 C 
BRANCH  11  12
ATOM     12  C   UNL     1      -3.755  -3.442   1.079  0.00  0.00    +0.000 A 
ATOM     13  C   UNL     1      -3.937  -4.415   0.095  0.00  0.00    +0.000 A 
ATOM     14  C   UNL     1      -4.988  -5.309   0.231  0.00  0.00    +0.000 A 
ATOM     15  N   UNL     1      -5.851  -5.303   1.268  0.00  0.00    +0.000 NA
ATOM     16  C   UNL     1      -5.648  -4.364   2.216  0.00  0.00    +0.000 A 
ATOM     17  C   UNL     1      -4.626  -3.429   2.170  0.00  0.00    +0.000 A 
ENDBRANCH  11  12
ENDBRANCH   5  10
TORSDOF 2
