REMARK  Name = *****
REMARK  7 active torsions:
REMARK  status: ('A' for Active; 'I' for Inactive)
REMARK    1  A    between atoms: C_1  and  C_2
REMARK    2  A    between atoms: C_5  and  S_8
REMARK    3  A    between atoms: S_8  and  N_10
REMARK    4  A    between atoms: N_10  and  C_11
REMARK    5  A    between atoms: N_10  and  C_12
REMARK    6  A    between atoms: C_14  and  O_18
REMARK    7  A    between atoms: O_18  and  C_19
REMARK                            x       y       z     vdW  Elec       q    Type
REMARK                         _______ _______ _______ _____ _____    ______ ____
ROOT
ATOM      1  N   UNL     1      -4.113   1.411  -0.715  0.00  0.00    +0.000 N 
ATOM      2  C   UNL     1      -3.375   2.536  -1.288  0.00  0.00    +0.000 C 
ENDROOT
BRANCH   1   3
ATOM      3  C   UNL     1      -5.447   1.695  -0.325  0.00  0.00    +0.000 A 
ATOM      4  C   UNL     1      -5.760   2.913   0.320  0.00  0.00    +0.000 A 
ATOM      5  C   UNL     1      -7.067   3.232   0.707  0.00  0.00    +0.000 A 
ATOM      6  C   UNL     1      -8.093   2.323   0.460  0.00  0.00    +0.000 A 
ATOM      7  C   UNL     1      -7.817   1.109  -0.158  0.00  0.00    +0.000 A 
ATOM      8  C   UNL     1      -6.508   0.801  -0.542  0.00  0.00    +0.000 A 
BRANCH   5   9
ATOM      9  O   UNL     1      -7.466   4.384   1.329  0.00  0.00    +0.000 OA
ATOM     10  C   UNL     1      -6.458   5.337   1.637  0.00  0.00    +0.000 C 
ENDBRANCH   5   9
ENDBRANCH   1   3
BRANCH   1  11
ATOM     11  S   UNL     1      -3.530  -0.147  -0.997  0.00  0.00    +0.000 S 
ATOM     12  O   UNL     1      -4.247  -1.162  -0.158  0.00  0.00    +0.000 OA
BRANCH  11  17
ATOM     13  C   UNL     1       1.847   0.700   1.804  0.00  0.00    +0.000 C 
ATOM     14  C   UNL     1       0.530   0.509   1.110  0.00  0.00    +0.000 A 
ATOM     15  C   UNL     1       0.466   0.347  -0.280  0.00  0.00    +0.000 A 
ATOM     16  C   UNL     1      -0.763   0.151  -0.913  0.00  0.00    +0.000 A 
ATOM     17  C   UNL     1      -1.943   0.117  -0.163  0.00  0.00    +0.000 A 
ATOM     18  C   UNL     1      -1.882   0.264   1.226  0.00  0.00    +0.000 A 
ATOM     19  C   UNL     1      -0.653   0.460   1.858  0.00  0.00    +0.000 A 
ENDBRANCH  11  17
ENDBRANCH   1  11
TORSDOF 4
