REMARK  Name = *****
REMARK  4 active torsions:
REMARK  status: ('A' for Active; 'I' for Inactive)
REMARK    1  A    between atoms: C_1  and  C_2
REMARK    2  A    between atoms: C_3  and  C_8
REMARK    3  A    between atoms: C_9  and  S_10
REMARK    4  A    between atoms: S_10  and  C_11
REMARK                            x       y       z     vdW  Elec       q    Type
REMARK                         _______ _______ _______ _____ _____    ______ ____
ROOT
ATOM      1  C   UNL     1       2.544  -2.443  -0.318  0.00  0.00    +0.000 C 
ATOM      2  C   UNL     1       3.213  -3.580  -0.564  0.00  0.00    +0.000 C 
ENDROOT
BRANCH   1   5
ATOM      3  C   UNL     1       0.993   0.299   0.161  0.00  0.00    +0.000 C 
ATOM      4  C   UNL     1       2.442  -0.004   0.079  0.00  0.00    +0.000 C 
ATOM      5  C   UNL     1       3.137  -1.136  -0.117  0.00  0.00    +0.000 C 
ATOM      6  C   UNL     1       4.629  -0.935  -0.126  0.00  0.00    +0.000 C 
ATOM      7  C   UNL     1       4.842   0.556   0.088  0.00  0.00    +0.000 C 
ATOM      8  C   UNL     1       3.444   1.072   0.212  0.00  0.00    +0.000 C 
ATOM      9  O   UNL     1       3.150   2.244   0.397  0.00  0.00    +0.000 OA
ENDBRANCH   1   5
BRANCH   2  10
ATOM     10  S   UNL     1       2.361  -5.065  -0.833  0.00  0.00    +0.000 S 
BRANCH  10  11
ATOM     11  C   UNL     1       3.344  -5.797  -2.133  0.00  0.00    +0.000 A 
ATOM     12  C   UNL     1       3.842  -5.054  -3.211  0.00  0.00    +0.000 A 
ATOM     13  C   UNL     1       4.573  -5.677  -4.226  0.00  0.00    +0.000 A 
ATOM     14  C   UNL     1       4.795  -7.052  -4.182  0.00  0.00    +0.000 A 
ATOM     15  C   UNL     1       4.289  -7.804  -3.124  0.00  0.00    +0.000 A 
ATOM     16  C   UNL     1       3.566  -7.179  -2.105  0.00  0.00    +0.000 A 
ENDBRANCH  10  11
ENDBRANCH   2  10
TORSDOF 3
