REMARK  Name = *****
REMARK  6 active torsions:
REMARK  status: ('A' for Active; 'I' for Inactive)
REMARK    1  A    between atoms: C_1  and  C_2
REMARK    2  A    between atoms: C_4  and  C_18
REMARK    3  A    between atoms: C_5  and  N_9
REMARK    4  A    between atoms: C_6  and  C_8
REMARK    5  A    between atoms: N_9  and  C_10
REMARK    6  A    between atoms: C_10  and  C_12
REMARK                            x       y       z     vdW  Elec       q    Type
REMARK                         _______ _______ _______ _____ _____    ______ ____
ROOT
ATOM      1  N   UNL     1      -1.239  -2.404  -0.439  0.00  0.00    +0.000 N 
ATOM      2  H   UNL     1      -1.777  -2.392  -1.264  0.00  0.00    +0.000 HD
ENDROOT
BRANCH   1   7
ATOM      3  C   UNL     1       1.630   2.433   0.690  0.00  0.00    +0.000 C 
ATOM      4  C   UNL     1       0.896   1.169   0.353  0.00  0.00    +0.000 A 
ATOM      5  C   UNL     1       1.584  -0.040   0.222  0.00  0.00    +0.000 A 
ATOM      6  C   UNL     1       0.910  -1.240  -0.071  0.00  0.00    +0.000 A 
ATOM      7  C   UNL     1      -0.497  -1.232  -0.155  0.00  0.00    +0.000 A 
ATOM      8  C   UNL     1      -1.199  -0.011  -0.056  0.00  0.00    +0.000 A 
ATOM      9  C   UNL     1      -0.493   1.174   0.209  0.00  0.00    +0.000 A 
ATOM     10  C   UNL     1      -2.698   0.060  -0.180  0.00  0.00    +0.000 C 
ATOM     11  C   UNL     1       1.763  -2.451  -0.337  0.00  0.00    +0.000 C 
ENDBRANCH   1   7
BRANCH   1  12
ATOM     12  C   UNL     1      -1.293  -3.574   0.319  0.00  0.00    +0.000 C 
ATOM     13  S   UNL     1      -0.586  -3.836   1.823  0.00  0.00    +0.000 S 
BRANCH  12  14
ATOM     14  C   UNL     1      -2.162  -4.612  -0.316  0.00  0.00    +0.000 A 
ATOM     15  C   UNL     1      -1.930  -4.964  -1.654  0.00  0.00    +0.000 A 
ATOM     16  C   UNL     1      -2.744  -5.911  -2.277  0.00  0.00    +0.000 A 
ATOM     17  C   UNL     1      -3.789  -6.506  -1.571  0.00  0.00    +0.000 A 
ATOM     18  C   UNL     1      -4.025  -6.156  -0.240  0.00  0.00    +0.000 A 
ATOM     19  C   UNL     1      -3.214  -5.209   0.389  0.00  0.00    +0.000 A 
ENDBRANCH  12  14
ENDBRANCH   1  12
TORSDOF 3
