REMARK  Name = *****
REMARK  2 active torsions:
REMARK  status: ('A' for Active; 'I' for Inactive)
REMARK    1  A    between atoms: N_4  and  S_7
REMARK    2  A    between atoms: S_7  and  C_8
REMARK                            x       y       z     vdW  Elec       q    Type
REMARK                         _______ _______ _______ _____ _____    ______ ____
ROOT
ATOM      1  C   UNL     1       5.292  -0.578  -0.536  0.00  0.00    +0.000 C 
ATOM      2  C   UNL     1       5.876  -0.277  -1.723  0.00  0.00    +0.000 C 
ATOM      3  C   UNL     1       6.888  -1.008  -2.505  0.00  0.00    +0.000 C 
ATOM      4  C   UNL     1       7.469  -2.206  -2.277  0.00  0.00    +0.000 C 
ATOM      5  C   UNL     1       7.160  -3.037  -1.129  0.00  0.00    +0.000 C 
ATOM      6  C   UNL     1       8.110  -3.429  -0.252  0.00  0.00    +0.000 C 
ATOM      7  C   UNL     1       7.787  -3.726   1.147  0.00  0.00    +0.000 C 
ATOM      8  C   UNL     1       6.913  -3.015   1.899  0.00  0.00    +0.000 C 
ATOM      9  C   UNL     1       6.159  -1.852   1.422  0.00  0.00    +0.000 C 
ATOM     10  C   UNL     1       5.612  -1.807   0.184  0.00  0.00    +0.000 C 
ATOM     11  C   UNL     1       5.715  -3.012  -0.709  0.00  0.00    +0.000 C 
ENDROOT
BRANCH   1  12
ATOM     12  S   UNL     1       4.125   0.499   0.204  0.00  0.00    +0.000 S 
BRANCH  12  16
ATOM     13  C   UNL     1       0.934   1.358  -3.001  0.00  0.00    +0.000 C 
ATOM     14  C   UNL     1       1.481  -0.047  -2.795  0.00  0.00    +0.000 C 
ATOM     15  C   UNL     1       2.061  -0.219  -1.391  0.00  0.00    +0.000 C 
ATOM     16  N   UNL     1       3.102   0.783  -1.095  0.00  0.00    +0.000 NA
ATOM     17  C   UNL     1       2.562   2.146  -1.247  0.00  0.00    +0.000 C 
ATOM     18  C   UNL     1       1.994   2.390  -2.645  0.00  0.00    +0.000 C 
ENDBRANCH  12  16
ENDBRANCH   1  12
TORSDOF 2
