REMARK  Name = *****
REMARK  4 active torsions:
REMARK  status: ('A' for Active; 'I' for Inactive)
REMARK    1  A    between atoms: C_4  and  O_7
REMARK    2  A    between atoms: O_7  and  C_8
REMARK    3  A    between atoms: C_8  and  O_10
REMARK    4  A    between atoms: O_10  and  C_11
REMARK                            x       y       z     vdW  Elec       q    Type
REMARK                         _______ _______ _______ _____ _____    ______ ____
ROOT
ATOM      1  C   UNL     1      -0.596  -3.611   0.479  0.00  0.00    +0.000 C 
ATOM      2  O   UNL     1      -1.629  -3.239   1.021  0.00  0.00    +0.000 OA
ENDROOT
BRANCH   1   3
ATOM      3  O   UNL     1       0.439  -2.810   0.068  0.00  0.00    +0.000 OA
BRANCH   3   7
ATOM      4  C   UNL     1      -0.149   1.390   0.631  0.00  0.00    +0.000 C 
ATOM      5  C   UNL     1      -0.649   0.749  -0.661  0.00  0.00    +0.000 C 
ATOM      6  C   UNL     1      -0.868  -0.755  -0.477  0.00  0.00    +0.000 C 
ATOM      7  C   UNL     1       0.278  -1.419   0.244  0.00  0.00    +0.000 C 
ATOM      8  C   UNL     1       1.208  -0.731   0.923  0.00  0.00    +0.000 C 
ATOM      9  C   UNL     1       1.167   0.760   1.094  0.00  0.00    +0.000 C 
ENDBRANCH   3   7
ENDBRANCH   1   3
BRANCH   1  10
ATOM     10  O   UNL     1      -0.261  -4.904   0.170  0.00  0.00    +0.000 OA
BRANCH  10  11
ATOM     11  C   UNL     1      -1.186  -5.900   0.549  0.00  0.00    +0.000 C 
ATOM     12  C   UNL     1      -1.695  -6.717  -0.386  0.00  0.00    +0.000 C 
ATOM     13  C   UNL     1      -2.626  -7.850  -0.068  0.00  0.00    +0.000 C 
ATOM     14  C   UNL     1      -3.130  -7.837   1.377  0.00  0.00    +0.000 C 
ATOM     15  C   UNL     1      -2.015  -7.463   2.351  0.00  0.00    +0.000 C 
ATOM     16  C   UNL     1      -1.442  -6.081   2.023  0.00  0.00    +0.000 C 
ENDBRANCH  10  11
ENDBRANCH   1  10
TORSDOF 4
