REMARK  Name = *****
REMARK  5 active torsions:
REMARK  status: ('A' for Active; 'I' for Inactive)
REMARK    1  A    between atoms: C_1  and  C_2
REMARK    2  A    between atoms: C_3  and  C_17
REMARK    3  A    between atoms: C_5  and  C_8
REMARK    4  A    between atoms: C_8  and  C_16
REMARK    5  A    between atoms: N_9  and  C_10
REMARK                            x       y       z     vdW  Elec       q    Type
REMARK                         _______ _______ _______ _____ _____    ______ ____
ROOT
ATOM      1  C   UNL     1      -3.079  -1.624   0.012  0.00  0.00    +0.000 C 
ATOM      2  N   UNL     1      -4.240  -1.279  -0.463  0.00  0.00    +0.000 NA
ATOM      3  C   UNL     1      -2.922  -3.053   0.482  0.00  0.00    +0.000 C 
ENDROOT
BRANCH   1   8
ATOM      4  C   UNL     1       1.622   1.714   0.529  0.00  0.00    +0.000 C 
ATOM      5  C   UNL     1       0.413   0.831   0.377  0.00  0.00    +0.000 A 
ATOM      6  C   UNL     1       0.446  -0.327  -0.429  0.00  0.00    +0.000 A 
ATOM      7  C   UNL     1      -0.709  -1.117  -0.544  0.00  0.00    +0.000 A 
ATOM      8  C   UNL     1      -1.879  -0.761   0.133  0.00  0.00    +0.000 A 
ATOM      9  C   UNL     1      -1.912   0.374   0.940  0.00  0.00    +0.000 A 
ATOM     10  C   UNL     1      -0.770   1.167   1.057  0.00  0.00    +0.000 A 
ATOM     11  C   UNL     1       1.689  -0.727  -1.176  0.00  0.00    +0.000 C 
ENDBRANCH   1   8
BRANCH   2  12
ATOM     12  C   UNL     1      -4.465   0.006  -0.974  0.00  0.00    +0.000 A 
ATOM     13  C   UNL     1      -3.914   0.414  -2.192  0.00  0.00    +0.000 A 
ATOM     14  C   UNL     1      -4.172   1.692  -2.694  0.00  0.00    +0.000 A 
ATOM     15  C   UNL     1      -5.000   2.564  -1.988  0.00  0.00    +0.000 A 
ATOM     16  C   UNL     1      -5.576   2.155  -0.786  0.00  0.00    +0.000 A 
ATOM     17  C   UNL     1      -5.314   0.878  -0.287  0.00  0.00    +0.000 A 
ENDBRANCH   2  12
TORSDOF 2
