REMARK  Name = *****
REMARK  3 active torsions:
REMARK  status: ('A' for Active; 'I' for Inactive)
REMARK    1  A    between atoms: C_3  and  N_8
REMARK    2  A    between atoms: N_8  and  C_9
REMARK    3  A    between atoms: C_9  and  C_11
REMARK                            x       y       z     vdW  Elec       q    Type
REMARK                         _______ _______ _______ _____ _____    ______ ____
ROOT
ATOM      1  N   UNL     1      -1.296   2.708  -0.366  0.00  0.00    +0.000 N 
ATOM      2  H   UNL     1      -2.242   2.780  -0.628  0.00  0.00    +0.000 HD
ENDROOT
BRANCH   1   5
ATOM      3  C   UNL     1      -1.602  -0.942   0.151  0.00  0.00    +0.000 A 
ATOM      4  C   UNL     1      -1.892   0.407  -0.077  0.00  0.00    +0.000 A 
ATOM      5  C   UNL     1      -0.876   1.379  -0.116  0.00  0.00    +0.000 A 
ATOM      6  C   UNL     1       0.441   0.961   0.056  0.00  0.00    +0.000 A 
ATOM      7  C   UNL     1       0.723  -0.387   0.282  0.00  0.00    +0.000 A 
ATOM      8  C   UNL     1      -0.284  -1.340   0.335  0.00  0.00    +0.000 A 
ATOM      9  F   UNL     1       1.997  -0.773   0.440  0.00  0.00    +0.000 F 
ENDBRANCH   1   5
BRANCH   1  10
ATOM     10  C   UNL     1      -0.636   3.930  -0.316  0.00  0.00    +0.000 C 
ATOM     11  S   UNL     1       0.903   4.288   0.241  0.00  0.00    +0.000 S 
BRANCH  10  12
ATOM     12  C   UNL     1      -1.508   5.038  -0.810  0.00  0.00    +0.000 A 
ATOM     13  C   UNL     1      -1.947   6.042   0.063  0.00  0.00    +0.000 A 
ATOM     14  C   UNL     1      -2.785   7.053  -0.413  0.00  0.00    +0.000 A 
ATOM     15  C   UNL     1      -3.181   7.055  -1.751  0.00  0.00    +0.000 A 
ATOM     16  C   UNL     1      -2.748   6.053  -2.622  0.00  0.00    +0.000 A 
ATOM     17  C   UNL     1      -1.911   5.039  -2.152  0.00  0.00    +0.000 A 
ATOM     18 CL   UNL     1      -4.215   8.301  -2.333  0.00  0.00    +0.000 Cl
ENDBRANCH  10  12
ENDBRANCH   1  10
TORSDOF 3
