REMARK  Name = *****
REMARK  5 active torsions:
REMARK  status: ('A' for Active; 'I' for Inactive)
REMARK    1  A    between atoms: C_1  and  C_2
REMARK    2  A    between atoms: C_5  and  S_8
REMARK    3  A    between atoms: S_8  and  C_9
REMARK    4  A    between atoms: C_9  and  C_10
REMARK    5  A    between atoms: C_14  and  C_16
REMARK                            x       y       z     vdW  Elec       q    Type
REMARK                         _______ _______ _______ _____ _____    ______ ____
ROOT
ATOM      1  S   UNL     1      -3.334  -0.166   0.237  0.00  0.00    +0.000 S 
ENDROOT
BRANCH   1   6
ATOM      2  C   UNL     1      -0.459   1.189   5.436  0.00  0.00    +0.000 C 
ATOM      3  C   UNL     1      -1.173   0.880   4.153  0.00  0.00    +0.000 A 
ATOM      4  C   UNL     1      -2.558   0.678   4.144  0.00  0.00    +0.000 A 
ATOM      5  C   UNL     1      -3.219   0.358   2.955  0.00  0.00    +0.000 A 
ATOM      6  C   UNL     1      -2.502   0.231   1.763  0.00  0.00    +0.000 A 
ATOM      7  C   UNL     1      -1.117   0.405   1.773  0.00  0.00    +0.000 A 
ATOM      8  C   UNL     1      -0.455   0.726   2.961  0.00  0.00    +0.000 A 
ENDBRANCH   1   6
BRANCH   1   9
ATOM      9  C   UNL     1      -4.081   1.456  -0.136  0.00  0.00    +0.000 C 
BRANCH   9  10
ATOM     10  C   UNL     1      -3.067   2.494  -0.548  0.00  0.00    +0.000 A 
ATOM     11  C   UNL     1      -2.536   2.498  -1.845  0.00  0.00    +0.000 A 
ATOM     12  C   UNL     1      -1.593   3.455  -2.220  0.00  0.00    +0.000 A 
ATOM     13  C   UNL     1      -1.164   4.413  -1.302  0.00  0.00    +0.000 A 
ATOM     14  C   UNL     1      -1.664   4.415   0.005  0.00  0.00    +0.000 A 
ATOM     15  C   UNL     1      -2.625   3.461   0.368  0.00  0.00    +0.000 A 
ATOM     16  C   UNL     1      -1.222   5.456   0.989  0.00  0.00    +0.000 C 
ENDBRANCH   9  10
ENDBRANCH   1   9
TORSDOF 3
