REMARK  Name = *****
REMARK  1 active torsions:
REMARK  status: ('A' for Active; 'I' for Inactive)
REMARK    1  A    between atoms: C_9  and  C_10
REMARK                            x       y       z     vdW  Elec       q    Type
REMARK                         _______ _______ _______ _____ _____    ______ ____
ROOT
ATOM      1  C   UNL     1      -1.639   1.256   0.016  0.00  0.00    +0.000 C 
ATOM      2  C   UNL     1      -0.239   0.728  -0.004  0.00  0.00    +0.000 A 
ATOM      3  C   UNL     1       0.958   1.423  -0.042  0.00  0.00    +0.000 A 
ATOM      4  C   UNL     1       2.144   0.685  -0.053  0.00  0.00    +0.000 A 
ATOM      5  C   UNL     1       2.116  -0.720  -0.025  0.00  0.00    +0.000 A 
ATOM      6  C   UNL     1       0.900  -1.408   0.014  0.00  0.00    +0.000 A 
ATOM      7  C   UNL     1      -0.269  -0.668   0.024  0.00  0.00    +0.000 A 
ATOM      8  C   UNL     1      -1.652  -1.114   0.063  0.00  0.00    +0.000 C 
ATOM      9  C   UNL     1      -2.461  -0.033   0.060  0.00  0.00    +0.000 C 
ENDROOT
BRANCH   9  10
ATOM     10  C   UNL     1      -3.886  -0.169   0.096  0.00  0.00    +0.000 A 
ATOM     11  C   UNL     1      -4.683  -1.304   0.142  0.00  0.00    +0.000 A 
ATOM     12  C   UNL     1      -6.080  -1.019   0.168  0.00  0.00    +0.000 A 
ATOM     13  C   UNL     1      -6.326   0.332   0.141  0.00  0.00    +0.000 A 
ATOM     14  S   UNL     1      -4.885   1.242   0.085  0.00  0.00    +0.000 S 
ENDBRANCH   9  10
TORSDOF 1
