REMARK  Name = *****
REMARK  3 active torsions:
REMARK  status: ('A' for Active; 'I' for Inactive)
REMARK    1  A    between atoms: C_2  and  C_12
REMARK    2  A    between atoms: C_3  and  C_4
REMARK    3  A    between atoms: C_7  and  C_10
REMARK                            x       y       z     vdW  Elec       q    Type
REMARK                         _______ _______ _______ _____ _____    ______ ____
ROOT
ATOM      1  C   UNL     1       0.074   0.908  -0.089  0.00  0.00    +0.000 C 
ATOM      2  C   UNL     1       0.816  -0.404  -0.080  0.00  0.00    +0.000 C 
ATOM      3  C   UNL     1      -0.707  -0.381  -0.089  0.00  0.00    +0.000 C 
ENDROOT
BRANCH   3   4
ATOM      4  C   UNL     1      -1.456  -0.816  -1.326  0.00  0.00    +0.000 A 
ATOM      5  C   UNL     1      -1.240  -2.078  -1.904  0.00  0.00    +0.000 A 
ATOM      6  C   UNL     1      -1.941  -2.491  -3.042  0.00  0.00    +0.000 A 
ATOM      7  C   UNL     1      -2.885  -1.644  -3.626  0.00  0.00    +0.000 A 
ATOM      8  C   UNL     1      -3.125  -0.389  -3.063  0.00  0.00    +0.000 A 
ATOM      9  C   UNL     1      -2.419   0.014  -1.925  0.00  0.00    +0.000 A 
BRANCH   7  10
ATOM     10  C   UNL     1      -3.606  -2.062  -4.793  0.00  0.00    +0.000 C 
ATOM     11  N   UNL     1      -4.189  -2.400  -5.737  0.00  0.00    +0.000 NA
ENDBRANCH   7  10
ENDBRANCH   3   4
BRANCH   2  12
ATOM     12  C   UNL     1       1.554  -0.848   1.161  0.00  0.00    +0.000 A 
ATOM     13  C   UNL     1       1.290  -2.087   1.768  0.00  0.00    +0.000 A 
ATOM     14  C   UNL     1       1.985  -2.505   2.906  0.00  0.00    +0.000 A 
ATOM     15  C   UNL     1       2.969  -1.690   3.458  0.00  0.00    +0.000 A 
ATOM     16  C   UNL     1       3.258  -0.462   2.871  0.00  0.00    +0.000 A 
ATOM     17  C   UNL     1       2.559  -0.050   1.734  0.00  0.00    +0.000 A 
ENDBRANCH   2  12
TORSDOF 3
