REMARK  Name = *****
REMARK  3 active torsions:
REMARK  status: ('A' for Active; 'I' for Inactive)
REMARK    1  A    between atoms: C_3  and  O_8
REMARK    2  A    between atoms: O_8  and  C_9
REMARK    3  A    between atoms: C_9  and  C_11
REMARK                            x       y       z     vdW  Elec       q    Type
REMARK                         _______ _______ _______ _____ _____    ______ ____
ROOT
ATOM      1  C   UNL     1      -1.231   3.681   0.557  0.00  0.00    +0.000 C 
ATOM      2  O   UNL     1      -0.011   3.731   0.536  0.00  0.00    +0.000 OA
ENDROOT
BRANCH   1   3
ATOM      3  C   UNL     1      -2.096   4.880   0.365  0.00  0.00    +0.000 A 
ATOM      4  C   UNL     1      -3.497   4.813   0.359  0.00  0.00    +0.000 A 
ATOM      5  C   UNL     1      -4.256   5.973   0.173  0.00  0.00    +0.000 A 
ATOM      6  C   UNL     1      -3.619   7.200  -0.006  0.00  0.00    +0.000 A 
ATOM      7  C   UNL     1      -2.228   7.280  -0.002  0.00  0.00    +0.000 A 
ATOM      8  C   UNL     1      -1.468   6.122   0.183  0.00  0.00    +0.000 A 
ATOM      9 CL   UNL     1      -4.557   8.624  -0.234  0.00  0.00    +0.000 Cl
ENDBRANCH   1   3
BRANCH   1  10
ATOM     10  O   UNL     1      -2.020   2.563   0.753  0.00  0.00    +0.000 OA
BRANCH  10  13
ATOM     11  C   UNL     1      -0.615  -0.777   0.142  0.00  0.00    +0.000 A 
ATOM     12  C   UNL     1      -1.288   0.429  -0.057  0.00  0.00    +0.000 A 
ATOM     13  C   UNL     1      -1.293   1.387   0.958  0.00  0.00    +0.000 A 
ATOM     14  C   UNL     1      -0.669   1.150   2.180  0.00  0.00    +0.000 A 
ATOM     15  C   UNL     1      -0.003  -0.055   2.362  0.00  0.00    +0.000 A 
ATOM     16  C   UNL     1       0.032  -1.018   1.356  0.00  0.00    +0.000 A 
ATOM     17  F   UNL     1       0.610  -0.301   3.527  0.00  0.00    +0.000 F 
ENDBRANCH  10  13
ENDBRANCH   1  10
TORSDOF 3
