REMARK  Name = *****
REMARK  4 active torsions:
REMARK  status: ('A' for Active; 'I' for Inactive)
REMARK    1  A    between atoms: C_1  and  C_2
REMARK    2  A    between atoms: C_7  and  C_8
REMARK    3  A    between atoms: C_8  and  O_10
REMARK    4  A    between atoms: O_10  and  C_11
REMARK                            x       y       z     vdW  Elec       q    Type
REMARK                         _______ _______ _______ _____ _____    ______ ____
ROOT
ATOM      1  C   UNL     1       0.968  -2.648  -0.155  0.00  0.00    +0.000 C 
ATOM      2  O   UNL     1       0.315  -3.664  -0.333  0.00  0.00    +0.000 OA
ENDROOT
BRANCH   1   9
ATOM      3  C   UNL     1       1.946  -0.450   1.741  0.00  0.00    +0.000 C 
ATOM      4  C   UNL     1       0.812  -0.269   0.771  0.00  0.00    +0.000 A 
ATOM      5  C   UNL     1       0.173   0.983   0.715  0.00  0.00    +0.000 A 
ATOM      6  C   UNL     1      -0.903   1.204  -0.147  0.00  0.00    +0.000 A 
ATOM      7  C   UNL     1      -1.359   0.179  -0.971  0.00  0.00    +0.000 A 
ATOM      8  C   UNL     1      -0.729  -1.064  -0.942  0.00  0.00    +0.000 A 
ATOM      9  C   UNL     1       0.366  -1.291  -0.091  0.00  0.00    +0.000 A 
ENDBRANCH   1   9
BRANCH   1  10
ATOM     10  O   UNL     1       2.316  -2.564  -0.082  0.00  0.00    +0.000 OA
BRANCH  10  11
ATOM     11  C   UNL     1       3.024  -3.809  -0.180  0.00  0.00    +0.000 C 
ATOM     12  C   UNL     1       2.987  -4.534   1.175  0.00  0.00    +0.000 C 
ATOM     13  C   UNL     1       4.062  -5.614   1.260  0.00  0.00    +0.000 C 
ATOM     14  C   UNL     1       5.460  -5.021   1.073  0.00  0.00    +0.000 C 
ATOM     15  C   UNL     1       5.524  -4.007  -0.032  0.00  0.00    +0.000 C 
ATOM     16  C   UNL     1       4.431  -3.476  -0.602  0.00  0.00    +0.000 C 
ENDBRANCH  10  11
ENDBRANCH   1  10
TORSDOF 3
