REMARK  Name = *****
REMARK  2 active torsions:
REMARK  status: ('A' for Active; 'I' for Inactive)
REMARK    1  A    between atoms: C_1  and  C_2
REMARK    2  A    between atoms: C_5  and  N_8
REMARK                            x       y       z     vdW  Elec       q    Type
REMARK                         _______ _______ _______ _____ _____    ______ ____
ROOT
ATOM      1  N   UNL     1      -1.980   1.424  -1.116  0.00  0.00    +0.000 N 
ATOM      2  C   UNL     1      -1.983   1.756  -2.545  0.00  0.00    +0.000 C 
ATOM      3  C   UNL     1      -3.214   2.567  -2.800  0.00  0.00    +0.000 A 
ATOM      4  C   UNL     1      -3.709   2.967  -4.036  0.00  0.00    +0.000 A 
ATOM      5  C   UNL     1      -4.893   3.707  -4.079  0.00  0.00    +0.000 A 
ATOM      6  C   UNL     1      -5.569   4.036  -2.896  0.00  0.00    +0.000 A 
ATOM      7  C   UNL     1      -5.062   3.635  -1.659  0.00  0.00    +0.000 A 
ATOM      8  C   UNL     1      -3.881   2.908  -1.629  0.00  0.00    +0.000 A 
ATOM      9  S   UNL     1      -3.046   2.332  -0.165  0.00  0.00    +0.000 S 
ATOM     10  O   UNL     1      -4.024   1.451   0.551  0.00  0.00    +0.000 OA
ENDROOT
BRANCH   1  15
ATOM     11  C   UNL     1       2.106  -1.996   1.093  0.00  0.00    +0.000 C 
ATOM     12  C   UNL     1       1.059  -1.085   0.528  0.00  0.00    +0.000 A 
ATOM     13  C   UNL     1       1.085  -0.717  -0.816  0.00  0.00    +0.000 A 
ATOM     14  C   UNL     1       0.083   0.106  -1.351  0.00  0.00    +0.000 A 
ATOM     15  C   UNL     1      -0.984   0.592  -0.572  0.00  0.00    +0.000 A 
ATOM     16  C   UNL     1      -0.997   0.185   0.774  0.00  0.00    +0.000 A 
ATOM     17  C   UNL     1      -0.000  -0.639   1.316  0.00  0.00    +0.000 A 
ENDBRANCH   1  15
TORSDOF 1
