REMARK  Name = *****
REMARK  5 active torsions:
REMARK  status: ('A' for Active; 'I' for Inactive)
REMARK    1  A    between atoms: C_1  and  C_2
REMARK    2  A    between atoms: C_5  and  C_8
REMARK    3  A    between atoms: C_10  and  C_11
REMARK    4  A    between atoms: C_14  and  C_17
REMARK    5  A    between atoms: C_17  and  C_19
REMARK                            x       y       z     vdW  Elec       q    Type
REMARK                         _______ _______ _______ _____ _____    ______ ____
ROOT
ATOM      1  C   UNL     1      -3.116   0.317   0.058  0.00  0.00    +0.000 C 
ATOM      2  C   UNL     1      -3.930   1.114  -0.929  0.00  0.00    +0.000 C 
ATOM      3  C   UNL     1      -3.683   1.675   0.448  0.00  0.00    +0.000 C 
ENDROOT
BRANCH   1   8
ATOM      4  C   UNL     1       2.642  -0.391  -0.692  0.00  0.00    +0.000 C 
ATOM      5  C   UNL     1       1.169  -0.180  -0.510  0.00  0.00    +0.000 A 
ATOM      6  C   UNL     1       0.666   0.344   0.684  0.00  0.00    +0.000 A 
ATOM      7  C   UNL     1      -0.711   0.509   0.860  0.00  0.00    +0.000 A 
ATOM      8  C   UNL     1      -1.628   0.154  -0.142  0.00  0.00    +0.000 A 
ATOM      9  C   UNL     1      -1.107  -0.394  -1.324  0.00  0.00    +0.000 A 
ATOM     10  C   UNL     1       0.269  -0.562  -1.509  0.00  0.00    +0.000 A 
ENDBRANCH   1   8
BRANCH   3  11
ATOM     11  C   UNL     1      -4.812   1.758   1.448  0.00  0.00    +0.000 A 
ATOM     12  C   UNL     1      -4.704   1.177   2.722  0.00  0.00    +0.000 A 
ATOM     13  C   UNL     1      -5.742   1.263   3.660  0.00  0.00    +0.000 A 
ATOM     14  C   UNL     1      -6.919   1.944   3.341  0.00  0.00    +0.000 A 
ATOM     15  C   UNL     1      -7.040   2.538   2.081  0.00  0.00    +0.000 A 
ATOM     16  C   UNL     1      -5.998   2.447   1.152  0.00  0.00    +0.000 A 
BRANCH  14  17
ATOM     17  C   UNL     1      -8.056   2.067   4.301  0.00  0.00    +0.000 C 
ATOM     18  O   UNL     1      -9.069   2.685   3.977  0.00  0.00    +0.000 OA
ATOM     19  C   UNL     1      -7.938   1.424   5.658  0.00  0.00    +0.000 C 
ENDBRANCH  14  17
ENDBRANCH   3  11
TORSDOF 3
