REMARK  Name = *****
REMARK  5 active torsions:
REMARK  status: ('A' for Active; 'I' for Inactive)
REMARK    1  A    between atoms: C_1  and  C_2
REMARK    2  A    between atoms: C_2  and  C_13
REMARK    3  A    between atoms: C_4  and  C_5
REMARK    4  A    between atoms: C_10  and  O_11
REMARK    5  A    between atoms: O_11  and  C_12
REMARK                            x       y       z     vdW  Elec       q    Type
REMARK                         _______ _______ _______ _____ _____    ______ ____
ROOT
ATOM      1  C   UNL     1       0.918   0.090   0.021  0.00  0.00    +0.000 C 
ATOM      2  C   UNL     1       2.422   0.030   0.164  0.00  0.00    +0.000 C 
ATOM      3  C   UNL     1       3.240   0.832  -0.827  0.00  0.00    +0.000 C 
ATOM      4  C   UNL     1       3.269  -0.674  -0.908  0.00  0.00    +0.000 C 
ENDROOT
BRANCH   4   5
ATOM      5  C   UNL     1       2.631  -1.409  -2.072  0.00  0.00    +0.000 A 
ATOM      6  C   UNL     1       2.690  -0.900  -3.382  0.00  0.00    +0.000 A 
ATOM      7  C   UNL     1       2.100  -1.568  -4.461  0.00  0.00    +0.000 A 
ATOM      8  C   UNL     1       1.435  -2.773  -4.255  0.00  0.00    +0.000 A 
ATOM      9  C   UNL     1       1.378  -3.317  -2.976  0.00  0.00    +0.000 A 
ATOM     10  C   UNL     1       1.993  -2.654  -1.909  0.00  0.00    +0.000 A 
BRANCH  10  11
ATOM     11  O   UNL     1       1.920  -3.211  -0.655  0.00  0.00    +0.000 OA
ATOM     12  C   UNL     1       2.856  -4.283  -0.538  0.00  0.00    +0.000 C 
ENDBRANCH  10  11
ENDBRANCH   4   5
BRANCH   2  13
ATOM     13  C   UNL     1       2.905  -0.044   1.610  0.00  0.00    +0.000 A 
ATOM     14  C   UNL     1       3.018  -1.276   2.276  0.00  0.00    +0.000 A 
ATOM     15  C   UNL     1       3.449  -1.353   3.604  0.00  0.00    +0.000 A 
ATOM     16  C   UNL     1       3.771  -0.191   4.298  0.00  0.00    +0.000 A 
ATOM     17  C   UNL     1       3.658   1.044   3.667  0.00  0.00    +0.000 A 
ATOM     18  C   UNL     1       3.226   1.113   2.340  0.00  0.00    +0.000 A 
ENDBRANCH   2  13
TORSDOF 3
