REMARK  Name = *****
REMARK  5 active torsions:
REMARK  status: ('A' for Active; 'I' for Inactive)
REMARK    1  A    between atoms: C_1  and  C_2
REMARK    2  A    between atoms: C_5  and  C_8
REMARK    3  A    between atoms: C_8  and  N_10
REMARK    4  A    between atoms: N_10  and  C_11
REMARK    5  A    between atoms: C_11  and  C_12
REMARK                            x       y       z     vdW  Elec       q    Type
REMARK                         _______ _______ _______ _____ _____    ______ ____
ROOT
ATOM      1  C   UNL     1      -3.269  -0.163   0.533  0.00  0.00    +0.000 C 
ATOM      2  S   UNL     1      -4.081  -1.631   0.601  0.00  0.00    +0.000 S 
ENDROOT
BRANCH   1   7
ATOM      3  C   UNL     1       2.432   0.247  -0.437  0.00  0.00    +0.000 C 
ATOM      4  C   UNL     1       0.961   0.113  -0.172  0.00  0.00    +0.000 A 
ATOM      5  C   UNL     1       0.147  -0.612  -1.052  0.00  0.00    +0.000 A 
ATOM      6  C   UNL     1      -1.228  -0.715  -0.825  0.00  0.00    +0.000 A 
ATOM      7  C   UNL     1      -1.802  -0.082   0.283  0.00  0.00    +0.000 A 
ATOM      8  C   UNL     1      -0.996   0.658   1.157  0.00  0.00    +0.000 A 
ATOM      9  C   UNL     1       0.378   0.758   0.926  0.00  0.00    +0.000 A 
ENDBRANCH   1   7
BRANCH   1  10
ATOM     10  N   UNL     1      -3.867   1.074   0.705  0.00  0.00    +0.000 N 
ATOM     11  H   UNL     1      -3.280   1.863   0.670  0.00  0.00    +0.000 HD
BRANCH  10  12
ATOM     12  C   UNL     1      -5.283   1.314   0.933  0.00  0.00    +0.000 C 
BRANCH  12  13
ATOM     13  C   UNL     1      -5.536   2.776   1.189  0.00  0.00    +0.000 A 
ATOM     14  C   UNL     1      -5.879   3.636   0.136  0.00  0.00    +0.000 A 
ATOM     15  C   UNL     1      -6.080   4.997   0.372  0.00  0.00    +0.000 A 
ATOM     16  C   UNL     1      -5.933   5.511   1.659  0.00  0.00    +0.000 A 
ATOM     17  C   UNL     1      -5.580   4.668   2.711  0.00  0.00    +0.000 A 
ATOM     18  C   UNL     1      -5.379   3.307   2.477  0.00  0.00    +0.000 A 
ENDBRANCH  12  13
ENDBRANCH  10  12
ENDBRANCH   1  10
TORSDOF 4
