REMARK  Name = *****
REMARK  5 active torsions:
REMARK  status: ('A' for Active; 'I' for Inactive)
REMARK    1  A    between atoms: C_4  and  C_7
REMARK    2  A    between atoms: C_7  and  O_8
REMARK    3  A    between atoms: O_8  and  C_9
REMARK    4  A    between atoms: C_9  and  O_11
REMARK    5  A    between atoms: O_11  and  C_12
REMARK                            x       y       z     vdW  Elec       q    Type
REMARK                         _______ _______ _______ _____ _____    ______ ____
ROOT
ATOM      1  C   UNL     1      -4.785  -0.732  -0.461  0.00  0.00    +0.000 C 
ATOM      2  O   UNL     1      -5.478   0.220  -0.131  0.00  0.00    +0.000 OA
ENDROOT
BRANCH   1   3
ATOM      3  O   UNL     1      -3.447  -0.693  -0.693  0.00  0.00    +0.000 OA
BRANCH   3   4
ATOM      4  C   UNL     1      -2.826   0.576  -0.479  0.00  0.00    +0.000 C 
BRANCH   4   8
ATOM      5  C   UNL     1      -1.224   0.696   3.521  0.00  0.00    +0.000 A 
ATOM      6  C   UNL     1      -0.531   0.030   2.512  0.00  0.00    +0.000 A 
ATOM      7  C   UNL     1      -1.047  -0.006   1.216  0.00  0.00    +0.000 A 
ATOM      8  C   UNL     1      -2.258   0.633   0.916  0.00  0.00    +0.000 A 
ATOM      9  C   UNL     1      -2.953   1.289   1.941  0.00  0.00    +0.000 A 
ATOM     10  C   UNL     1      -2.435   1.323   3.236  0.00  0.00    +0.000 A 
ENDBRANCH   4   8
ENDBRANCH   3   4
ENDBRANCH   1   3
BRANCH   1  11
ATOM     11  O   UNL     1      -5.209  -2.033  -0.675  0.00  0.00    +0.000 OA
BRANCH  11  12
ATOM     12  C   UNL     1      -6.573  -2.238  -0.448  0.00  0.00    +0.000 A 
ATOM     13  C   UNL     1      -7.383  -2.527  -1.544  0.00  0.00    +0.000 A 
ATOM     14  C   UNL     1      -8.737  -2.788  -1.340  0.00  0.00    +0.000 A 
ATOM     15  C   UNL     1      -9.264  -2.773  -0.047  0.00  0.00    +0.000 A 
ATOM     16  C   UNL     1      -8.438  -2.504   1.047  0.00  0.00    +0.000 A 
ATOM     17  C   UNL     1      -7.082  -2.244   0.850  0.00  0.00    +0.000 A 
ENDBRANCH  11  12
ENDBRANCH   1  11
TORSDOF 5
