REMARK  Name = *****
REMARK  6 active torsions:
REMARK  status: ('A' for Active; 'I' for Inactive)
REMARK    1  A    between atoms: C_1  and  C_2
REMARK    2  A    between atoms: C_5  and  S_8
REMARK    3  A    between atoms: S_8  and  C_9
REMARK    4  A    between atoms: C_9  and  C_10
REMARK    5  A    between atoms: C_12  and  O_17
REMARK    6  A    between atoms: O_17  and  C_18
REMARK                            x       y       z     vdW  Elec       q    Type
REMARK                         _______ _______ _______ _____ _____    ______ ____
ROOT
ATOM      1  C   UNL     1      -4.205   1.760   0.291  0.00  0.00    +0.000 C 
ENDROOT
BRANCH   1   2
ATOM      2  C   UNL     1      -5.714   1.885  -0.007  0.00  0.00    +0.000 C 
ATOM      3  C   UNL     1      -6.235   0.866  -1.038  0.00  0.00    +0.000 C 
ATOM      4  C   UNL     1      -5.728   1.137  -2.462  0.00  0.00    +0.000 C 
ATOM      5  C   UNL     1      -6.083   2.564  -2.892  0.00  0.00    +0.000 C 
ATOM      6  C   UNL     1      -5.560   3.595  -1.899  0.00  0.00    +0.000 C 
ATOM      7  C   UNL     1      -6.056   3.312  -0.479  0.00  0.00    +0.000 C 
ATOM      8 CL   UNL     1      -6.069   5.235  -2.397  0.00  0.00    +0.000 Cl
BRANCH   4   9
ATOM      9  O   UNL     1      -6.348   0.253  -3.401  0.00  0.00    +0.000 OA
ATOM     10  C   UNL     1      -5.800  -1.058  -3.398  0.00  0.00    +0.000 C 
ENDBRANCH   4   9
ENDBRANCH   1   2
BRANCH   1  11
ATOM     11  S   UNL     1      -3.786   0.171   1.089  0.00  0.00    +0.000 S 
BRANCH  11  16
ATOM     12  C   UNL     1       2.298   0.198   0.671  0.00  0.00    +0.000 C 
ATOM     13  C   UNL     1       0.800   0.215   0.752  0.00  0.00    +0.000 A 
ATOM     14  C   UNL     1       0.135   1.289   1.352  0.00  0.00    +0.000 A 
ATOM     15  C   UNL     1      -1.259   1.290   1.459  0.00  0.00    +0.000 A 
ATOM     16  C   UNL     1      -2.006   0.216   0.969  0.00  0.00    +0.000 A 
ATOM     17  C   UNL     1      -1.341  -0.872   0.397  0.00  0.00    +0.000 A 
ATOM     18  C   UNL     1       0.053  -0.873   0.289  0.00  0.00    +0.000 A 
ENDBRANCH  11  16
ENDBRANCH   1  11
TORSDOF 4
