REMARK  Name = *****
REMARK  6 active torsions:
REMARK  status: ('A' for Active; 'I' for Inactive)
REMARK    1  A    between atoms: C_1  and  C_2
REMARK    2  A    between atoms: C_5  and  C_8
REMARK    3  A    between atoms: C_8  and  S_10
REMARK    4  A    between atoms: S_10  and  C_11
REMARK    5  A    between atoms: C_16  and  C_17
REMARK    6  A    between atoms: C_17  and  C_19
REMARK                            x       y       z     vdW  Elec       q    Type
REMARK                         _______ _______ _______ _____ _____    ______ ____
ROOT
ATOM      1  S   UNL     1      -4.954   0.261  -1.923  0.00  0.00    +0.000 S 
ENDROOT
BRANCH   1   2
ATOM      2  C   UNL     1      -6.458   0.729  -1.072  0.00  0.00    +0.000 A 
ATOM      3  C   UNL     1      -7.632   0.074  -1.480  0.00  0.00    +0.000 A 
ATOM      4  C   UNL     1      -8.861   0.354  -0.875  0.00  0.00    +0.000 A 
ATOM      5  C   UNL     1      -8.937   1.298   0.143  0.00  0.00    +0.000 A 
ATOM      6  C   UNL     1      -7.786   1.967   0.558  0.00  0.00    +0.000 A 
ATOM      7  C   UNL     1      -6.548   1.687  -0.045  0.00  0.00    +0.000 A 
BRANCH   7   8
ATOM      8  C   UNL     1      -5.366   2.454   0.422  0.00  0.00    +0.000 C 
ATOM      9  O   UNL     1      -4.628   3.011  -0.386  0.00  0.00    +0.000 OA
ATOM     10  C   UNL     1      -5.129   2.542   1.907  0.00  0.00    +0.000 C 
ENDBRANCH   7   8
ENDBRANCH   1   2
BRANCH   1  11
ATOM     11  C   UNL     1      -3.887  -0.126  -0.576  0.00  0.00    +0.000 C 
ATOM     12  O   UNL     1      -4.318  -0.591   0.473  0.00  0.00    +0.000 OA
BRANCH  11  17
ATOM     13  C   UNL     1       1.844   0.532  -1.188  0.00  0.00    +0.000 C 
ATOM     14  C   UNL     1       0.360   0.354  -1.063  0.00  0.00    +0.000 A 
ATOM     15  C   UNL     1      -0.516   1.206  -1.747  0.00  0.00    +0.000 A 
ATOM     16  C   UNL     1      -1.900   1.065  -1.607  0.00  0.00    +0.000 A 
ATOM     17  C   UNL     1      -2.426   0.069  -0.776  0.00  0.00    +0.000 A 
ATOM     18  C   UNL     1      -1.550  -0.762  -0.064  0.00  0.00    +0.000 A 
ATOM     19  C   UNL     1      -0.167  -0.620  -0.207  0.00  0.00    +0.000 A 
ENDBRANCH  11  17
ENDBRANCH   1  11
TORSDOF 4
