REMARK  Name = *****
REMARK  5 active torsions:
REMARK  status: ('A' for Active; 'I' for Inactive)
REMARK    1  A    between atoms: C_1  and  O_2
REMARK    2  A    between atoms: O_2  and  C_3
REMARK    3  A    between atoms: C_6  and  S_9
REMARK    4  A    between atoms: S_9  and  C_10
REMARK    5  A    between atoms: C_10  and  C_11
REMARK                            x       y       z     vdW  Elec       q    Type
REMARK                         _______ _______ _______ _____ _____    ______ ____
ROOT
ATOM      1  S   UNL     1       5.216  -1.074  -5.201  0.00  0.00    +0.000 S 
ENDROOT
BRANCH   1   5
ATOM      2  C   UNL     1       3.281  -0.162  -1.132  0.00  0.00    +0.000 A 
ATOM      3  C   UNL     1       2.584   0.121  -2.306  0.00  0.00    +0.000 A 
ATOM      4  C   UNL     1       3.163  -0.151  -3.552  0.00  0.00    +0.000 A 
ATOM      5  C   UNL     1       4.447  -0.698  -3.639  0.00  0.00    +0.000 A 
ATOM      6  C   UNL     1       5.135  -0.996  -2.460  0.00  0.00    +0.000 A 
ATOM      7  C   UNL     1       4.556  -0.724  -1.217  0.00  0.00    +0.000 A 
BRANCH   2   9
ATOM      8  C   UNL     1       1.531   0.603   0.283  0.00  0.00    +0.000 C 
ATOM      9  O   UNL     1       2.834   0.053   0.142  0.00  0.00    +0.000 OA
ENDBRANCH   2   9
ENDBRANCH   1   5
BRANCH   1  10
ATOM     10  C   UNL     1       5.074   0.546  -6.039  0.00  0.00    +0.000 C 
ATOM     11  F   UNL     1       3.770   0.737  -6.403  0.00  0.00    +0.000 F 
BRANCH  10  12
ATOM     12  C   UNL     1       6.012   0.623  -7.224  0.00  0.00    +0.000 A 
ATOM     13  C   UNL     1       5.552   0.325  -8.516  0.00  0.00    +0.000 A 
ATOM     14  C   UNL     1       6.417   0.386  -9.609  0.00  0.00    +0.000 A 
ATOM     15  C   UNL     1       7.751   0.743  -9.424  0.00  0.00    +0.000 A 
ATOM     16  C   UNL     1       8.223   1.037  -8.146  0.00  0.00    +0.000 A 
ATOM     17  C   UNL     1       7.360   0.975  -7.050  0.00  0.00    +0.000 A 
ENDBRANCH  10  12
ENDBRANCH   1  10
TORSDOF 4
