REMARK  Name = *****
REMARK  5 active torsions:
REMARK  status: ('A' for Active; 'I' for Inactive)
REMARK    1  A    between atoms: C_1  and  O_2
REMARK    2  A    between atoms: O_2  and  C_3
REMARK    3  A    between atoms: C_8  and  S_9
REMARK    4  A    between atoms: S_9  and  C_10
REMARK    5  A    between atoms: C_10  and  C_12
REMARK                            x       y       z     vdW  Elec       q    Type
REMARK                         _______ _______ _______ _____ _____    ______ ____
ROOT
ATOM      1  C   UNL     1       3.291   0.346  -0.989  0.00  0.00    +0.000 A 
ATOM      2  C   UNL     1       2.771   1.547  -1.485  0.00  0.00    +0.000 A 
ATOM      3  C   UNL     1       3.358   2.172  -2.589  0.00  0.00    +0.000 A 
ATOM      4  C   UNL     1       4.472   1.608  -3.203  0.00  0.00    +0.000 A 
ATOM      5  C   UNL     1       5.004   0.415  -2.715  0.00  0.00    +0.000 A 
ATOM      6  C   UNL     1       4.419  -0.225  -1.613  0.00  0.00    +0.000 A 
ENDROOT
BRANCH   1   8
ATOM      7  C   UNL     1       1.488   0.058   0.545  0.00  0.00    +0.000 C 
ATOM      8  O   UNL     1       2.788  -0.314   0.105  0.00  0.00    +0.000 OA
ENDBRANCH   1   8
BRANCH   6   9
ATOM      9  S   UNL     1       5.172  -1.749  -1.044  0.00  0.00    +0.000 S 
BRANCH   9  10
ATOM     10  C   UNL     1       3.810  -2.843  -1.223  0.00  0.00    +0.000 C 
ATOM     11  O   UNL     1       3.221  -2.979  -2.289  0.00  0.00    +0.000 OA
BRANCH  10  12
ATOM     12  C   UNL     1       3.454  -3.617  -0.021  0.00  0.00    +0.000 C 
ATOM     13  C   UNL     1       2.476  -4.541  -0.004  0.00  0.00    +0.000 C 
ATOM     14  C   UNL     1       2.370  -5.097   1.322  0.00  0.00    +0.000 C 
ATOM     15  C   UNL     1       3.276  -4.516   2.121  0.00  0.00    +0.000 C 
ATOM     16  C   UNL     1       4.068  -3.502   1.341  0.00  0.00    +0.000 C 
ENDBRANCH  10  12
ENDBRANCH   9  10
ENDBRANCH   6   9
TORSDOF 4
