REMARK  Name = *****
REMARK  2 active torsions:
REMARK  status: ('A' for Active; 'I' for Inactive)
REMARK    1  A    between atoms: C_6  and  C_13
REMARK    2  A    between atoms: C_7  and  C_11
REMARK                            x       y       z     vdW  Elec       q    Type
REMARK                         _______ _______ _______ _____ _____    ______ ____
ROOT
ATOM      1  C   UNL     1       1.171   2.402   0.121  0.00  0.00    +0.000 C 
ATOM      2  C   UNL     1       0.426   2.059   1.180  0.00  0.00    +0.000 C 
ATOM      3  C   UNL     1      -0.457   0.923   1.288  0.00  0.00    +0.000 C 
ATOM      4  C   UNL     1      -0.276  -0.253   0.672  0.00  0.00    +0.000 C 
ATOM      5  C   UNL     1      -1.172  -1.375   0.811  0.00  0.00    +0.000 C 
ATOM      6  C   UNL     1      -0.847  -2.370  -0.026  0.00  0.00    +0.000 C 
ATOM      7  C   UNL     1       0.335  -1.993  -0.889  0.00  0.00    +0.000 C 
ATOM      8  C   UNL     1       0.837  -0.650  -0.282  0.00  0.00    +0.000 C 
ATOM      9  C   UNL     1       1.153   0.389  -1.337  0.00  0.00    +0.000 C 
ATOM     10  C   UNL     1       1.268   1.712  -1.144  0.00  0.00    +0.000 C 
ENDROOT
BRANCH   6  11
ATOM     11  C   UNL     1      -1.605  -3.621  -0.177  0.00  0.00    +0.000 A 
ATOM     12  C   UNL     1      -1.738  -4.243  -1.427  0.00  0.00    +0.000 A 
ATOM     13  C   UNL     1      -2.448  -5.441  -1.560  0.00  0.00    +0.000 A 
ATOM     14  C   UNL     1      -3.030  -6.037  -0.445  0.00  0.00    +0.000 A 
ATOM     15  C   UNL     1      -2.903  -5.437   0.804  0.00  0.00    +0.000 A 
ATOM     16  C   UNL     1      -2.195  -4.239   0.936  0.00  0.00    +0.000 A 
ENDBRANCH   6  11
BRANCH   7  17
ATOM     17  C   UNL     1       1.405  -3.005  -0.844  0.00  0.00    +0.000 C 
ATOM     18  N   UNL     1       2.263  -3.788  -0.838  0.00  0.00    +0.000 NA
ENDBRANCH   7  17
TORSDOF 2
