REMARK  Name = *****
REMARK  4 active torsions:
REMARK  status: ('A' for Active; 'I' for Inactive)
REMARK    1  A    between atoms: C_1  and  C_2
REMARK    2  A    between atoms: C_5  and  S_8
REMARK    3  A    between atoms: S_8  and  C_9
REMARK    4  A    between atoms: C_9  and  C_10
REMARK                            x       y       z     vdW  Elec       q    Type
REMARK                         _______ _______ _______ _____ _____    ______ ____
ROOT
ATOM      1  S   UNL     1      -3.542  -0.027   0.311  0.00  0.00    +0.000 S 
ENDROOT
BRANCH   1   6
ATOM      2  C   UNL     1       2.549   0.061   0.410  0.00  0.00    +0.000 C 
ATOM      3  C   UNL     1       1.049   0.060   0.379  0.00  0.00    +0.000 A 
ATOM      4  C   UNL     1       0.318   0.523   1.478  0.00  0.00    +0.000 A 
ATOM      5  C   UNL     1      -1.079   0.497   1.462  0.00  0.00    +0.000 A 
ATOM      6  C   UNL     1      -1.761   0.005   0.347  0.00  0.00    +0.000 A 
ATOM      7  C   UNL     1      -1.035  -0.485  -0.741  0.00  0.00    +0.000 A 
ATOM      8  C   UNL     1       0.362  -0.459  -0.725  0.00  0.00    +0.000 A 
ENDBRANCH   1   6
BRANCH   1   9
ATOM      9  C   UNL     1      -3.876   1.733  -0.054  0.00  0.00    +0.000 C 
BRANCH   9  10
ATOM     10  C   UNL     1      -3.478   2.138  -1.454  0.00  0.00    +0.000 A 
ATOM     11  C   UNL     1      -4.216   1.630  -2.541  0.00  0.00    +0.000 A 
ATOM     12  C   UNL     1      -3.885   1.960  -3.857  0.00  0.00    +0.000 A 
ATOM     13  C   UNL     1      -2.811   2.806  -4.111  0.00  0.00    +0.000 A 
ATOM     14  C   UNL     1      -2.071   3.324  -3.049  0.00  0.00    +0.000 A 
ATOM     15  C   UNL     1      -2.400   2.996  -1.729  0.00  0.00    +0.000 A 
ATOM     16 CL   UNL     1      -1.436   3.702  -0.481  0.00  0.00    +0.000 Cl
ENDBRANCH   9  10
ENDBRANCH   1   9
TORSDOF 3
