REMARK  Name = *****
REMARK  3 active torsions:
REMARK  status: ('A' for Active; 'I' for Inactive)
REMARK    1  A    between atoms: C_4  and  C_7
REMARK    2  A    between atoms: C_8  and  C_9
REMARK    3  A    between atoms: C_9  and  C_11
REMARK                            x       y       z     vdW  Elec       q    Type
REMARK                         _______ _______ _______ _____ _____    ______ ____
ROOT
ATOM      1  C   UNL     1       2.566  -0.938  -0.167  0.00  0.00    +0.000 C 
ATOM      2  C   UNL     1       3.431  -1.665   0.560  0.00  0.00    +0.000 C 
ENDROOT
BRANCH   1   6
ATOM      3  C   UNL     1      -1.487   0.606  -0.469  0.00  0.00    +0.000 C 
ATOM      4  C   UNL     1      -1.296  -0.864  -0.109  0.00  0.00    +0.000 C 
ATOM      5  C   UNL     1       0.114  -1.348  -0.442  0.00  0.00    +0.000 C 
ATOM      6  C   UNL     1       1.183  -0.473   0.228  0.00  0.00    +0.000 C 
ATOM      7  C   UNL     1       0.987   1.005  -0.151  0.00  0.00    +0.000 C 
ATOM      8  C   UNL     1      -0.424   1.487   0.180  0.00  0.00    +0.000 C 
ENDBRANCH   1   6
BRANCH   2   9
ATOM      9  C   UNL     1       3.153  -2.239   1.909  0.00  0.00    +0.000 C 
ATOM     10  O   UNL     1       2.017  -2.497   2.290  0.00  0.00    +0.000 OA
BRANCH   9  11
ATOM     11  C   UNL     1       4.321  -2.579   2.767  0.00  0.00    +0.000 A 
ATOM     12  C   UNL     1       5.546  -1.905   2.669  0.00  0.00    +0.000 A 
ATOM     13  C   UNL     1       6.608  -2.259   3.505  0.00  0.00    +0.000 A 
ATOM     14  C   UNL     1       6.451  -3.278   4.445  0.00  0.00    +0.000 A 
ATOM     15  C   UNL     1       5.230  -3.940   4.558  0.00  0.00    +0.000 A 
ATOM     16  C   UNL     1       4.166  -3.589   3.726  0.00  0.00    +0.000 A 
ENDBRANCH   9  11
ENDBRANCH   2   9
TORSDOF 3
