REMARK  Name = *****
REMARK  4 active torsions:
REMARK  status: ('A' for Active; 'I' for Inactive)
REMARK    1  A    between atoms: C_1  and  C_2
REMARK    2  A    between atoms: C_5  and  C_8
REMARK    3  A    between atoms: C_8  and  C_9
REMARK    4  A    between atoms: C_10  and  C_11
REMARK                            x       y       z     vdW  Elec       q    Type
REMARK                         _______ _______ _______ _____ _____    ______ ____
ROOT
ATOM      1  C   UNL     1      -3.884   1.395  -0.142  0.00  0.00    +0.000 C 
ATOM      2  C   UNL     1      -4.700   1.985   0.746  0.00  0.00    +0.000 C 
ENDROOT
BRANCH   2   3
ATOM      3  C   UNL     1      -5.268   3.331   0.585  0.00  0.00    +0.000 A 
ATOM      4  C   UNL     1      -5.661   3.835  -0.665  0.00  0.00    +0.000 A 
ATOM      5  C   UNL     1      -6.227   5.109  -0.770  0.00  0.00    +0.000 A 
ATOM      6  C   UNL     1      -6.409   5.875   0.374  0.00  0.00    +0.000 A 
ATOM      7  C   UNL     1      -6.041   5.391   1.622  0.00  0.00    +0.000 A 
ATOM      8  C   UNL     1      -5.476   4.117   1.728  0.00  0.00    +0.000 A 
ATOM      9  F   UNL     1      -6.952   7.095   0.272  0.00  0.00    +0.000 F 
ENDBRANCH   2   3
BRANCH   1  10
ATOM     10  C   UNL     1      -3.302   0.021   0.044  0.00  0.00    +0.000 C 
BRANCH  10  15
ATOM     11  C   UNL     1       2.525   0.069  -0.073  0.00  0.00    +0.000 C 
ATOM     12  C   UNL     1       1.025   0.081  -0.051  0.00  0.00    +0.000 A 
ATOM     13  C   UNL     1       0.335   0.459   1.106  0.00  0.00    +0.000 A 
ATOM     14  C   UNL     1      -1.062   0.440   1.135  0.00  0.00    +0.000 A 
ATOM     15  C   UNL     1      -1.793   0.028   0.013  0.00  0.00    +0.000 A 
ATOM     16  C   UNL     1      -1.099  -0.357  -1.141  0.00  0.00    +0.000 A 
ATOM     17  C   UNL     1       0.298  -0.338  -1.170  0.00  0.00    +0.000 A 
ENDBRANCH  10  15
ENDBRANCH   1  10
TORSDOF 3
