REMARK  Name = *****
REMARK  7 active torsions:
REMARK  status: ('A' for Active; 'I' for Inactive)
REMARK    1  A    between atoms: C_1  and  C_2
REMARK    2  A    between atoms: C_4  and  O_18
REMARK    3  A    between atoms: C_6  and  S_10
REMARK    4  A    between atoms: C_7  and  C_8
REMARK    5  A    between atoms: S_10  and  C_11
REMARK    6  A    between atoms: C_11  and  C_12
REMARK    7  A    between atoms: O_18  and  C_19
REMARK                            x       y       z     vdW  Elec       q    Type
REMARK                         _______ _______ _______ _____ _____    ______ ____
ROOT
ATOM      1  C   UNL     1       0.677  -2.302  -0.201  0.00  0.00    +0.000 C 
ATOM      2  C   UNL     1      -0.159  -1.061  -0.041  0.00  0.00    +0.000 A 
ATOM      3  C   UNL     1      -1.549  -1.174   0.048  0.00  0.00    +0.000 A 
ATOM      4  C   UNL     1      -2.304  -0.025   0.193  0.00  0.00    +0.000 A 
ATOM      5  N   UNL     1      -1.776   1.212   0.259  0.00  0.00    +0.000 NA
ATOM      6  C   UNL     1      -0.427   1.330   0.175  0.00  0.00    +0.000 A 
ATOM      7  C   UNL     1       0.418   0.224   0.021  0.00  0.00    +0.000 A 
ENDROOT
BRANCH   7   8
ATOM      8  C   UNL     1       1.842   0.378  -0.068  0.00  0.00    +0.000 C 
ATOM      9  N   UNL     1       2.998   0.451  -0.142  0.00  0.00    +0.000 NA
ENDBRANCH   7   8
BRANCH   4  10
ATOM     10  O   UNL     1      -3.670  -0.198   0.274  0.00  0.00    +0.000 OA
ATOM     11  C   UNL     1      -4.387   1.027   0.399  0.00  0.00    +0.000 C 
ENDBRANCH   4  10
BRANCH   6  12
ATOM     12  S   UNL     1       0.217   3.002   0.255  0.00  0.00    +0.000 S 
BRANCH  12  13
ATOM     13  C   UNL     1      -1.281   3.925   0.728  0.00  0.00    +0.000 C 
BRANCH  13  14
ATOM     14  C   UNL     1      -0.980   5.391   0.927  0.00  0.00    +0.000 A 
ATOM     15  C   UNL     1      -1.110   6.296  -0.137  0.00  0.00    +0.000 A 
ATOM     16  C   UNL     1      -0.822   7.650   0.045  0.00  0.00    +0.000 A 
ATOM     17  C   UNL     1      -0.396   8.112   1.289  0.00  0.00    +0.000 A 
ATOM     18  C   UNL     1      -0.253   7.221   2.351  0.00  0.00    +0.000 A 
ATOM     19  C   UNL     1      -0.542   5.867   2.171  0.00  0.00    +0.000 A 
ENDBRANCH  13  14
ENDBRANCH  12  13
ENDBRANCH   6  12
TORSDOF 5
