REMARK  Name = *****
REMARK  5 active torsions:
REMARK  status: ('A' for Active; 'I' for Inactive)
REMARK    1  A    between atoms: C_1  and  N_2
REMARK    2  A    between atoms: N_2  and  C_3
REMARK    3  A    between atoms: N_2  and  C_4
REMARK    4  A    between atoms: C_7  and  C_10
REMARK    5  A    between atoms: C_11  and  C_12
REMARK                            x       y       z     vdW  Elec       q    Type
REMARK                         _______ _______ _______ _____ _____    ______ ____
ROOT
ATOM      1  C   UNL     1       4.622  -2.310  -4.775  0.00  0.00    +0.000 C 
ATOM      2  C   UNL     1       5.010  -2.859  -5.771  0.00  0.00    +0.000 C 
ENDROOT
BRANCH   2   3
ATOM      3  C   UNL     1       5.448  -3.527  -6.957  0.00  0.00    +0.000 A 
ATOM      4  C   UNL     1       5.840  -2.801  -8.085  0.00  0.00    +0.000 A 
ATOM      5  C   UNL     1       6.257  -3.450  -9.247  0.00  0.00    +0.000 A 
ATOM      6  C   UNL     1       6.283  -4.844  -9.284  0.00  0.00    +0.000 A 
ATOM      7  C   UNL     1       5.893  -5.566  -8.159  0.00  0.00    +0.000 A 
ATOM      8  C   UNL     1       5.476  -4.922  -6.996  0.00  0.00    +0.000 A 
ATOM      9  F   UNL     1       5.917  -6.904  -8.196  0.00  0.00    +0.000 F 
ATOM     10  F   UNL     1       5.819  -1.460  -8.074  0.00  0.00    +0.000 F 
ENDBRANCH   2   3
BRANCH   1  14
ATOM     11  C   UNL     1       3.115  -0.438  -1.232  0.00  0.00    +0.000 A 
ATOM     12  C   UNL     1       2.576  -0.173  -2.505  0.00  0.00    +0.000 A 
ATOM     13  C   UNL     1       3.069  -0.780  -3.669  0.00  0.00    +0.000 A 
ATOM     14  C   UNL     1       4.133  -1.670  -3.594  0.00  0.00    +0.000 A 
ATOM     15  C   UNL     1       4.710  -1.936  -2.357  0.00  0.00    +0.000 A 
ATOM     16  C   UNL     1       4.209  -1.321  -1.199  0.00  0.00    +0.000 A 
BRANCH  11  18
ATOM     17  C   UNL     1       1.189   0.533  -0.071  0.00  0.00    +0.000 C 
ATOM     18  N   UNL     1       2.609   0.181  -0.081  0.00  0.00    +0.000 N 
ATOM     19  C   UNL     1       3.178  -0.158   1.222  0.00  0.00    +0.000 C 
ENDBRANCH  11  18
ENDBRANCH   1  14
TORSDOF 3
