REMARK  Name = *****
REMARK  3 active torsions:
REMARK  status: ('A' for Active; 'I' for Inactive)
REMARK    1  A    between atoms: C_5  and  S_7
REMARK    2  A    between atoms: S_7  and  C_8
REMARK    3  A    between atoms: C_8  and  C_9
REMARK                            x       y       z     vdW  Elec       q    Type
REMARK                         _______ _______ _______ _____ _____    ______ ____
ROOT
ATOM      1  S   UNL     1      -2.026  -2.830  -0.002  0.00  0.00    +0.000 S 
ENDROOT
BRANCH   1   6
ATOM      2  C   UNL     1      -1.301   1.231   0.041  0.00  0.00    +0.000 A 
ATOM      3  C   UNL     1       0.091   1.256   0.042  0.00  0.00    +0.000 A 
ATOM      4  C   UNL     1       0.790   0.057   0.030  0.00  0.00    +0.000 A 
ATOM      5  C   UNL     1       0.123  -1.164   0.017  0.00  0.00    +0.000 A 
ATOM      6  C   UNL     1      -1.278  -1.205   0.016  0.00  0.00    +0.000 A 
ATOM      7  C   UNL     1      -1.981   0.006   0.029  0.00  0.00    +0.000 A 
ATOM      8  F   UNL     1       2.129   0.076   0.032  0.00  0.00    +0.000 F 
ENDBRANCH   1   6
BRANCH   1   9
ATOM      9  C   UNL     1      -3.815  -2.484  -0.038  0.00  0.00    +0.000 C 
BRANCH   9  10
ATOM     10  C   UNL     1      -4.617  -3.763  -0.085  0.00  0.00    +0.000 A 
ATOM     11  C   UNL     1      -5.006  -4.404   1.103  0.00  0.00    +0.000 A 
ATOM     12  C   UNL     1      -5.736  -5.593   1.058  0.00  0.00    +0.000 A 
ATOM     13  C   UNL     1      -6.072  -6.145  -0.173  0.00  0.00    +0.000 A 
ATOM     14  C   UNL     1      -5.689  -5.533  -1.360  0.00  0.00    +0.000 A 
ATOM     15  C   UNL     1      -4.960  -4.344  -1.318  0.00  0.00    +0.000 A 
ATOM     16  F   UNL     1      -6.772  -7.286  -0.215  0.00  0.00    +0.000 F 
ENDBRANCH   9  10
ENDBRANCH   1   9
TORSDOF 3
