REMARK  Name = *****
REMARK  0 active torsions:
REMARK  status: ('A' for Active; 'I' for Inactive)
REMARK                            x       y       z     vdW  Elec       q    Type
REMARK                         _______ _______ _______ _____ _____    ______ ____
ROOT
ATOM      1  C   UNL     1       2.602   0.689   1.642  0.00  0.00    +0.000 C 
ATOM      2  C   UNL     1       4.099   0.721   1.918  0.00  0.00    +0.000 C 
ATOM      3  C   UNL     1       4.845   1.579   0.891  0.00  0.00    +0.000 C 
ATOM      4  C   UNL     1       4.604   1.144  -0.573  0.00  0.00    +0.000 C 
ATOM      5  C   UNL     1       3.065   1.090  -0.812  0.00  0.00    +0.000 C 
ATOM      6  C   UNL     1       2.299   0.248   0.216  0.00  0.00    +0.000 C 
ATOM      7  S   UNL     1       5.212   2.412  -1.776  0.00  0.00    +0.000 S 
ATOM      8  C   UNL     1       6.983   2.506  -1.399  0.00  0.00    +0.000 C 
ATOM      9  C   UNL     1       7.791   1.491  -2.168  0.00  0.00    +0.000 A 
ATOM     10  C   UNL     1       8.524   1.909  -3.293  0.00  0.00    +0.000 A 
ATOM     11  C   UNL     1       9.270   1.000  -4.042  0.00  0.00    +0.000 A 
ATOM     12  C   UNL     1       9.290  -0.342  -3.683  0.00  0.00    +0.000 A 
ATOM     13  C   UNL     1       8.562  -0.775  -2.576  0.00  0.00    +0.000 A 
ATOM     14  C   UNL     1       7.810   0.129  -1.804  0.00  0.00    +0.000 A 
ATOM     15  C   UNL     1       7.026  -0.388  -0.625  0.00  0.00    +0.000 C 
ATOM     16  S   UNL     1       5.255  -0.540  -0.981  0.00  0.00    +0.000 S 
ENDROOT
TORSDOF 0
