REMARK  Name = *****
REMARK  6 active torsions:
REMARK  status: ('A' for Active; 'I' for Inactive)
REMARK    1  A    between atoms: C_1  and  N_2
REMARK    2  A    between atoms: N_2  and  C_3
REMARK    3  A    between atoms: N_2  and  C_4
REMARK    4  A    between atoms: C_7  and  S_10
REMARK    5  A    between atoms: S_10  and  C_11
REMARK    6  A    between atoms: C_11  and  C_12
REMARK                            x       y       z     vdW  Elec       q    Type
REMARK                         _______ _______ _______ _____ _____    ______ ____
ROOT
ATOM      1  C   UNL     1       3.321  -0.719  -0.989  0.00  0.00    +0.000 A 
ATOM      2  C   UNL     1       2.778  -1.072  -2.237  0.00  0.00    +0.000 A 
ATOM      3  C   UNL     1       3.375  -2.028  -3.074  0.00  0.00    +0.000 A 
ATOM      4  C   UNL     1       4.557  -2.657  -2.696  0.00  0.00    +0.000 A 
ATOM      5  C   UNL     1       5.120  -2.331  -1.466  0.00  0.00    +0.000 A 
ATOM      6  C   UNL     1       4.515  -1.373  -0.637  0.00  0.00    +0.000 A 
ENDROOT
BRANCH   1   8
ATOM      7  C   UNL     1       1.393   0.737  -0.476  0.00  0.00    +0.000 C 
ATOM      8  N   UNL     1       2.736   0.249  -0.165  0.00  0.00    +0.000 N 
ATOM      9  C   UNL     1       3.109   0.289   1.248  0.00  0.00    +0.000 C 
ENDBRANCH   1   8
BRANCH   4  10
ATOM     10  S   UNL     1       5.346  -3.879  -3.722  0.00  0.00    +0.000 S 
BRANCH  10  11
ATOM     11  C   UNL     1       5.614  -2.892  -5.232  0.00  0.00    +0.000 C 
BRANCH  11  12
ATOM     12  C   UNL     1       6.453  -3.640  -6.238  0.00  0.00    +0.000 A 
ATOM     13  C   UNL     1       5.856  -4.521  -7.151  0.00  0.00    +0.000 A 
ATOM     14  C   UNL     1       6.636  -5.218  -8.076  0.00  0.00    +0.000 A 
ATOM     15  C   UNL     1       8.019  -5.046  -8.094  0.00  0.00    +0.000 A 
ATOM     16  C   UNL     1       8.624  -4.181  -7.186  0.00  0.00    +0.000 A 
ATOM     17  C   UNL     1       7.847  -3.483  -6.260  0.00  0.00    +0.000 A 
ENDBRANCH  11  12
ENDBRANCH  10  11
ENDBRANCH   4  10
TORSDOF 4
