REMARK  Name = *****
REMARK  3 active torsions:
REMARK  status: ('A' for Active; 'I' for Inactive)
REMARK    1  A    between atoms: C_1  and  C_2
REMARK    2  A    between atoms: C_3  and  C_13
REMARK    3  A    between atoms: C_5  and  C_7
REMARK                            x       y       z     vdW  Elec       q    Type
REMARK                         _______ _______ _______ _____ _____    ______ ____
ROOT
ATOM      1  C   UNL     1       1.232   0.651   0.423  0.00  0.00    +0.000 C 
ATOM      2  C   UNL     1       2.596   0.139   0.113  0.00  0.00    +0.000 C 
ATOM      3  C   UNL     1       3.379   0.521  -1.112  0.00  0.00    +0.000 C 
ATOM      4  N   UNL     1       2.734  -0.760  -0.989  0.00  0.00    +0.000 N 
ATOM      5  C   UNL     1       3.409  -1.960  -0.833  0.00  0.00    +0.000 C 
ATOM      6  O   UNL     1       4.254  -2.196   0.024  0.00  0.00    +0.000 OA
ATOM      7 CL   UNL     1       5.138   0.626  -0.953  0.00  0.00    +0.000 Cl
ENDROOT
BRANCH   5   8
ATOM      8  C   UNL     1       2.994  -3.032  -1.787  0.00  0.00    +0.000 A 
ATOM      9  C   UNL     1       1.875  -2.899  -2.622  0.00  0.00    +0.000 A 
ATOM     10  C   UNL     1       1.521  -3.934  -3.492  0.00  0.00    +0.000 A 
ATOM     11  C   UNL     1       2.279  -5.103  -3.534  0.00  0.00    +0.000 A 
ATOM     12  C   UNL     1       3.392  -5.244  -2.706  0.00  0.00    +0.000 A 
ATOM     13  C   UNL     1       3.748  -4.213  -1.834  0.00  0.00    +0.000 A 
ENDBRANCH   5   8
BRANCH   3  14
ATOM     14  C   UNL     1       2.822   1.457  -2.165  0.00  0.00    +0.000 A 
ATOM     15  C   UNL     1       2.524   2.801  -1.867  0.00  0.00    +0.000 A 
ATOM     16  C   UNL     1       2.019   3.672  -2.835  0.00  0.00    +0.000 A 
ATOM     17  C   UNL     1       1.808   3.221  -4.134  0.00  0.00    +0.000 A 
ATOM     18  C   UNL     1       2.107   1.903  -4.465  0.00  0.00    +0.000 A 
ATOM     19  C   UNL     1       2.612   1.036  -3.492  0.00  0.00    +0.000 A 
ENDBRANCH   3  14
TORSDOF 2
