REMARK  Name = *****
REMARK  3 active torsions:
REMARK  status: ('A' for Active; 'I' for Inactive)
REMARK    1  A    between atoms: C_1  and  C_2
REMARK    2  A    between atoms: C_5  and  C_8
REMARK    3  A    between atoms: C_9  and  C_10
REMARK                            x       y       z     vdW  Elec       q    Type
REMARK                         _______ _______ _______ _____ _____    ______ ____
ROOT
ATOM      1  C   UNL     1       6.670   0.153  -0.706  0.00  0.00    +0.000 C 
ATOM      2  C   UNL     1       7.853   0.160  -0.916  0.00  0.00    +0.000 C 
ENDROOT
BRANCH   1   7
ATOM      3  C   UNL     1       1.017   0.125   0.269  0.00  0.00    +0.000 C 
ATOM      4  C   UNL     1       2.500   0.136   0.043  0.00  0.00    +0.000 A 
ATOM      5  C   UNL     1       3.182   1.344  -0.147  0.00  0.00    +0.000 A 
ATOM      6  C   UNL     1       4.558   1.350  -0.390  0.00  0.00    +0.000 A 
ATOM      7  C   UNL     1       5.262   0.147  -0.456  0.00  0.00    +0.000 A 
ATOM      8  C   UNL     1       4.587  -1.063  -0.283  0.00  0.00    +0.000 A 
ATOM      9  C   UNL     1       3.211  -1.068  -0.040  0.00  0.00    +0.000 A 
ENDBRANCH   1   7
BRANCH   2  10
ATOM     10  C   UNL     1       9.255   0.170  -1.165  0.00  0.00    +0.000 A 
ATOM     11  C   UNL     1      10.033   1.292  -1.319  0.00  0.00    +0.000 A 
ATOM     12  C   UNL     1      11.386   0.989  -1.555  0.00  0.00    +0.000 A 
ATOM     13  C   UNL     1      11.636  -0.360  -1.579  0.00  0.00    +0.000 A 
ATOM     14  S   UNL     1      10.198  -1.258  -1.310  0.00  0.00    +0.000 S 
ATOM     15  F   UNL     1      12.313   1.890  -1.733  0.00  0.00    +0.000 F 
ATOM     16  F   UNL     1       9.571   2.513  -1.256  0.00  0.00    +0.000 F 
ENDBRANCH   2  10
TORSDOF 2
