REMARK  Name = *****
REMARK  4 active torsions:
REMARK  status: ('A' for Active; 'I' for Inactive)
REMARK    1  A    between atoms: C_4  and  C_7
REMARK    2  A    between atoms: C_8  and  C_9
REMARK    3  A    between atoms: C_14  and  C_15
REMARK    4  A    between atoms: C_15  and  C_16
REMARK                            x       y       z     vdW  Elec       q    Type
REMARK                         _______ _______ _______ _____ _____    ______ ____
ROOT
ATOM      1  C   UNL     1       2.027   0.008  -0.087  0.00  0.00    +0.000 A 
ATOM      2  C   UNL     1       2.743   1.178  -0.366  0.00  0.00    +0.000 A 
ATOM      3  C   UNL     1       4.137   1.160  -0.407  0.00  0.00    +0.000 A 
ATOM      4  C   UNL     1       4.823  -0.029  -0.174  0.00  0.00    +0.000 A 
ATOM      5  C   UNL     1       4.117  -1.200   0.105  0.00  0.00    +0.000 A 
ATOM      6  C   UNL     1       2.712  -1.198   0.159  0.00  0.00    +0.000 A 
ENDROOT
BRANCH   1   8
ATOM      7  C   UNL     1      -0.605   0.091  -0.069  0.00  0.00    +0.000 C 
ATOM      8  C   UNL     1       0.596   0.070  -0.070  0.00  0.00    +0.000 C 
BRANCH   7  12
ATOM      9  C   UNL     1      -4.827   0.053  -0.101  0.00  0.00    +0.000 A 
ATOM     10  C   UNL     1      -4.115  -1.019  -0.640  0.00  0.00    +0.000 A 
ATOM     11  C   UNL     1      -2.719  -1.005  -0.631  0.00  0.00    +0.000 A 
ATOM     12  C   UNL     1      -2.035   0.082  -0.081  0.00  0.00    +0.000 A 
ATOM     13  C   UNL     1      -2.748   1.155   0.458  0.00  0.00    +0.000 A 
ATOM     14  C   UNL     1      -4.145   1.140   0.447  0.00  0.00    +0.000 A 
ENDBRANCH   7  12
ENDBRANCH   1   8
BRANCH   6  15
ATOM     15  C   UNL     1       1.978  -2.487   0.461  0.00  0.00    +0.000 C 
BRANCH  15  16
ATOM     16  C   UNL     1       1.381  -3.106  -0.733  0.00  0.00    +0.000 C 
ATOM     17  N   UNL     1       0.901  -3.616  -1.660  0.00  0.00    +0.000 NA
ENDBRANCH  15  16
ENDBRANCH   6  15
TORSDOF 4
