REMARK  Name = *****
REMARK  4 active torsions:
REMARK  status: ('A' for Active; 'I' for Inactive)
REMARK    1  A    between atoms: C_1  and  C_2
REMARK    2  A    between atoms: C_2  and  C_8
REMARK    3  A    between atoms: C_8  and  C_9
REMARK    4  A    between atoms: C_10  and  C_11
REMARK                            x       y       z     vdW  Elec       q    Type
REMARK                         _______ _______ _______ _____ _____    ______ ____
ROOT
ATOM      1  C   UNL     1       3.118   0.592   1.409  0.00  0.00    +0.000 C 
ENDROOT
BRANCH   1   3
ATOM      2  C   UNL     1       3.086  -1.147  -0.442  0.00  0.00    +0.000 C 
ATOM      3  C   UNL     1       2.528   0.209   0.013  0.00  0.00    +0.000 C 
ATOM      4  S   UNL     1       0.697   0.118   0.250  0.00  0.00    +0.000 S 
ATOM      5  C   UNL     1       0.129  -0.206  -1.442  0.00  0.00    +0.000 C 
ATOM      6  C   UNL     1       0.526   0.880  -2.429  0.00  0.00    +0.000 C 
ATOM      7  C   UNL     1       2.025   0.987  -2.659  0.00  0.00    +0.000 C 
ATOM      8  S   UNL     1       2.929   1.548  -1.191  0.00  0.00    +0.000 S 
ENDBRANCH   1   3
BRANCH   1   9
ATOM      9  C   UNL     1       4.629   0.650   1.500  0.00  0.00    +0.000 C 
ATOM     10  C   UNL     1       5.358  -0.152   2.293  0.00  0.00    +0.000 C 
BRANCH  10  11
ATOM     11  C   UNL     1       6.825  -0.113   2.391  0.00  0.00    +0.000 A 
ATOM     12  C   UNL     1       7.555   1.078   2.291  0.00  0.00    +0.000 A 
ATOM     13  C   UNL     1       8.947   1.074   2.422  0.00  0.00    +0.000 A 
ATOM     14  C   UNL     1       9.622  -0.120   2.665  0.00  0.00    +0.000 A 
ATOM     15  C   UNL     1       8.907  -1.309   2.783  0.00  0.00    +0.000 A 
ATOM     16  C   UNL     1       7.516  -1.305   2.652  0.00  0.00    +0.000 A 
ENDBRANCH  10  11
ENDBRANCH   1   9
TORSDOF 3
