REMARK  Name = *****
REMARK  5 active torsions:
REMARK  status: ('A' for Active; 'I' for Inactive)
REMARK    1  A    between atoms: C_1  and  C_2
REMARK    2  A    between atoms: C_3  and  N_9
REMARK    3  A    between atoms: C_4  and  C_8
REMARK    4  A    between atoms: N_11  and  C_12
REMARK    5  A    between atoms: N_11  and  C_13
REMARK                            x       y       z     vdW  Elec       q    Type
REMARK                         _______ _______ _______ _____ _____    ______ ____
ROOT
ATOM      1  N   UNL     1      -0.234   2.601  -0.425  0.00  0.00    +0.000 NA
ATOM      2  C   UNL     1       0.903   3.213  -0.356  0.00  0.00    +0.000 C 
ATOM      3  N   UNL     1       1.096   4.528   0.009  0.00  0.00    +0.000 N 
ATOM      4  C   UNL     1      -0.072   5.379   0.209  0.00  0.00    +0.000 C 
ENDROOT
BRANCH   1   7
ATOM      5  C   UNL     1       0.042   0.558   1.595  0.00  0.00    +0.000 C 
ATOM      6  C   UNL     1      -0.044   0.230   0.130  0.00  0.00    +0.000 A 
ATOM      7  C   UNL     1      -0.176   1.253  -0.830  0.00  0.00    +0.000 A 
ATOM      8  C   UNL     1      -0.283   0.921  -2.196  0.00  0.00    +0.000 A 
ATOM      9  C   UNL     1      -0.207  -0.422  -2.591  0.00  0.00    +0.000 A 
ATOM     10  C   UNL     1      -0.049  -1.430  -1.641  0.00  0.00    +0.000 A 
ATOM     11  C   UNL     1       0.030  -1.107  -0.288  0.00  0.00    +0.000 A 
ATOM     12  C   UNL     1      -0.456   1.994  -3.236  0.00  0.00    +0.000 C 
ENDBRANCH   1   7
BRANCH   3  13
ATOM     13  C   UNL     1       2.382   5.217  -0.164  0.00  0.00    +0.000 C 
ATOM     14  C   UNL     1       2.802   5.250  -1.640  0.00  0.00    +0.000 C 
ATOM     15  C   UNL     1       4.150   5.947  -1.819  0.00  0.00    +0.000 C 
ATOM     16  C   UNL     1       5.229   5.323  -0.937  0.00  0.00    +0.000 C 
ATOM     17  C   UNL     1       4.812   5.293   0.531  0.00  0.00    +0.000 C 
ATOM     18  C   UNL     1       3.469   4.590   0.721  0.00  0.00    +0.000 C 
ENDBRANCH   3  13
TORSDOF 2
