REMARK  Name = *****
REMARK  2 active torsions:
REMARK  status: ('A' for Active; 'I' for Inactive)
REMARK    1  A    between atoms: C_7  and  S_11
REMARK    2  A    between atoms: S_11  and  C_12
REMARK                            x       y       z     vdW  Elec       q    Type
REMARK                         _______ _______ _______ _____ _____    ______ ____
ROOT
ATOM      1  C   UNL     1      -2.585   0.565   0.307  0.00  0.00    +0.000 A 
ATOM      2  C   UNL     1      -1.751   1.598   0.148  0.00  0.00    +0.000 A 
ATOM      3  C   UNL     1      -0.316   1.600  -0.009  0.00  0.00    +0.000 A 
ATOM      4  C   UNL     1       0.512   0.549  -0.051  0.00  0.00    +0.000 A 
ATOM      5  C   UNL     1       1.946   0.674  -0.228  0.00  0.00    +0.000 A 
ATOM      6  C   UNL     1       2.443  -0.572  -0.233  0.00  0.00    +0.000 A 
ATOM      7  C   UNL     1       1.354  -1.526  -0.064  0.00  0.00    +0.000 A 
ATOM      8  C   UNL     1       0.175  -0.872   0.060  0.00  0.00    +0.000 A 
ATOM      9  C   UNL     1      -1.121  -1.478   0.265  0.00  0.00    +0.000 A 
ATOM     10  C   UNL     1      -2.299  -0.847   0.371  0.00  0.00    +0.000 A 
ENDROOT
BRANCH   7  11
ATOM     11  S   UNL     1       1.636  -3.222  -0.005  0.00  0.00    +0.000 S 
BRANCH  11  12
ATOM     12  C   UNL     1       2.254  -3.491  -1.658  0.00  0.00    +0.000 A 
ATOM     13  C   UNL     1       1.477  -3.193  -2.784  0.00  0.00    +0.000 A 
ATOM     14  C   UNL     1       1.978  -3.424  -4.067  0.00  0.00    +0.000 A 
ATOM     15  C   UNL     1       3.253  -3.963  -4.232  0.00  0.00    +0.000 A 
ATOM     16  C   UNL     1       4.027  -4.273  -3.115  0.00  0.00    +0.000 A 
ATOM     17  C   UNL     1       3.528  -4.042  -1.832  0.00  0.00    +0.000 A 
ENDBRANCH  11  12
ENDBRANCH   7  11
TORSDOF 2
