REMARK  Name = *****
REMARK  3 active torsions:
REMARK  status: ('A' for Active; 'I' for Inactive)
REMARK    1  A    between atoms: C_1  and  C_2
REMARK    2  A    between atoms: C_2  and  C_11
REMARK    3  A    between atoms: N_3  and  C_4
REMARK                            x       y       z     vdW  Elec       q    Type
REMARK                         _______ _______ _______ _____ _____    ______ ____
ROOT
ATOM      1  C   UNL     1       1.285  -0.251  -1.021  0.00  0.00    +0.000 C 
ATOM      2  C   UNL     1       2.568   0.055  -0.270  0.00  0.00    +0.000 C 
ATOM      3  N   UNL     1       3.053   1.254  -0.114  0.00  0.00    +0.000 NA
ENDROOT
BRANCH   3   4
ATOM      4  C   UNL     1       2.377   2.364  -0.636  0.00  0.00    +0.000 A 
ATOM      5  C   UNL     1       1.343   2.968   0.080  0.00  0.00    +0.000 A 
ATOM      6  C   UNL     1       0.703   4.084  -0.447  0.00  0.00    +0.000 A 
ATOM      7  C   UNL     1       1.084   4.621  -1.671  0.00  0.00    +0.000 A 
ATOM      8  C   UNL     1       2.131   4.036  -2.381  0.00  0.00    +0.000 A 
ATOM      9  C   UNL     1       2.779   2.914  -1.858  0.00  0.00    +0.000 A 
ATOM     10  F   UNL     1      -0.298   4.653   0.238  0.00  0.00    +0.000 F 
ENDBRANCH   3   4
BRANCH   2  11
ATOM     11  C   UNL     1       3.314  -1.090   0.340  0.00  0.00    +0.000 A 
ATOM     12  C   UNL     1       2.656  -2.258   0.750  0.00  0.00    +0.000 A 
ATOM     13  C   UNL     1       3.383  -3.305   1.323  0.00  0.00    +0.000 A 
ATOM     14  C   UNL     1       4.758  -3.179   1.490  0.00  0.00    +0.000 A 
ATOM     15  C   UNL     1       5.423  -2.022   1.102  0.00  0.00    +0.000 A 
ATOM     16  C   UNL     1       4.700  -0.973   0.530  0.00  0.00    +0.000 A 
ATOM     17  F   UNL     1       5.449  -4.185   2.041  0.00  0.00    +0.000 F 
ENDBRANCH   2  11
TORSDOF 2
