REMARK  Name = *****
REMARK  2 active torsions:
REMARK  status: ('A' for Active; 'I' for Inactive)
REMARK    1  A    between atoms: C_2  and  C_11
REMARK    2  A    between atoms: C_3  and  C_4
REMARK                            x       y       z     vdW  Elec       q    Type
REMARK                         _______ _______ _______ _____ _____    ______ ____
ROOT
ATOM      1  C   UNL     1       0.076   0.886  -0.079  0.00  0.00    +0.000 C 
ATOM      2  C   UNL     1       0.810  -0.431  -0.055  0.00  0.00    +0.000 C 
ATOM      3  C   UNL     1      -0.713  -0.398  -0.048  0.00  0.00    +0.000 C 
ENDROOT
BRANCH   3   4
ATOM      4  C   UNL     1      -1.477  -0.851  -1.269  0.00  0.00    +0.000 A 
ATOM      5  C   UNL     1      -1.281  -2.130  -1.819  0.00  0.00    +0.000 A 
ATOM      6  C   UNL     1      -1.996  -2.558  -2.942  0.00  0.00    +0.000 A 
ATOM      7  C   UNL     1      -2.929  -1.710  -3.531  0.00  0.00    +0.000 A 
ATOM      8  C   UNL     1      -3.153  -0.443  -3.004  0.00  0.00    +0.000 A 
ATOM      9  C   UNL     1      -2.434  -0.022  -1.880  0.00  0.00    +0.000 A 
ATOM     10 CL   UNL     1      -3.811  -2.233  -4.912  0.00  0.00    +0.000 Cl
ENDBRANCH   3   4
BRANCH   2  11
ATOM     11  C   UNL     1       1.560  -0.857   1.184  0.00  0.00    +0.000 A 
ATOM     12  C   UNL     1       1.294  -2.083   1.816  0.00  0.00    +0.000 A 
ATOM     13  C   UNL     1       2.000  -2.486   2.953  0.00  0.00    +0.000 A 
ATOM     14  C   UNL     1       2.997  -1.670   3.478  0.00  0.00    +0.000 A 
ATOM     15  C   UNL     1       3.288  -0.455   2.866  0.00  0.00    +0.000 A 
ATOM     16  C   UNL     1       2.578  -0.057   1.730  0.00  0.00    +0.000 A 
ENDBRANCH   2  11
TORSDOF 2
