REMARK  Name = *****
REMARK  6 active torsions:
REMARK  status: ('A' for Active; 'I' for Inactive)
REMARK    1  A    between atoms: C_1  and  C_2
REMARK    2  A    between atoms: C_4  and  C_19
REMARK    3  A    between atoms: C_5  and  N_9
REMARK    4  A    between atoms: C_6  and  C_8
REMARK    5  A    between atoms: N_9  and  S_10
REMARK    6  A    between atoms: S_10  and  C_12
REMARK                            x       y       z     vdW  Elec       q    Type
REMARK                         _______ _______ _______ _____ _____    ______ ____
ROOT
ATOM      1  N   UNL     1      -2.399  -1.781   0.359  0.00  0.00    +0.000 N 
ATOM      2  H   UNL     1      -3.108  -1.903  -0.313  0.00  0.00    +0.000 HD
ENDROOT
BRANCH   1   7
ATOM      3  C   UNL     1       2.262   1.534  -0.295  0.00  0.00    +0.000 C 
ATOM      4  C   UNL     1       1.031   0.684  -0.177  0.00  0.00    +0.000 A 
ATOM      5  C   UNL     1       1.083  -0.682  -0.459  0.00  0.00    +0.000 A 
ATOM      6  C   UNL     1      -0.054  -1.496  -0.321  0.00  0.00    +0.000 A 
ATOM      7  C   UNL     1      -1.270  -0.935   0.133  0.00  0.00    +0.000 A 
ATOM      8  C   UNL     1      -1.324   0.448   0.432  0.00  0.00    +0.000 A 
ATOM      9  C   UNL     1      -0.169   1.236   0.278  0.00  0.00    +0.000 A 
ATOM     10  C   UNL     1      -2.571   1.116   0.948  0.00  0.00    +0.000 C 
ATOM     11  C   UNL     1       0.067  -2.957  -0.661  0.00  0.00    +0.000 C 
ENDBRANCH   1   7
BRANCH   1  12
ATOM     12  S   UNL     1      -2.431  -2.562   1.866  0.00  0.00    +0.000 S 
ATOM     13  O   UNL     1      -3.227  -1.713   2.814  0.00  0.00    +0.000 OA
BRANCH  12  14
ATOM     14  C   UNL     1      -3.626  -3.806   1.277  0.00  0.00    +0.000 A 
ATOM     15  C   UNL     1      -4.955  -3.791   1.719  0.00  0.00    +0.000 A 
ATOM     16  C   UNL     1      -5.861  -4.756   1.271  0.00  0.00    +0.000 A 
ATOM     17  C   UNL     1      -5.438  -5.742   0.383  0.00  0.00    +0.000 A 
ATOM     18  C   UNL     1      -4.117  -5.774  -0.059  0.00  0.00    +0.000 A 
ATOM     19  C   UNL     1      -3.211  -4.809   0.391  0.00  0.00    +0.000 A 
ATOM     20 CL   UNL     1      -6.552  -6.931  -0.170  0.00  0.00    +0.000 Cl
ENDBRANCH  12  14
ENDBRANCH   1  12
TORSDOF 3
