REMARK  Name = *****
REMARK  2 active torsions:
REMARK  status: ('A' for Active; 'I' for Inactive)
REMARK    1  A    between atoms: C_4  and  C_7
REMARK    2  A    between atoms: C_7  and  N_8
REMARK                            x       y       z     vdW  Elec       q    Type
REMARK                         _______ _______ _______ _____ _____    ______ ____
ROOT
ATOM      1  N   UNL     1      -3.749   0.278  -0.582  0.00  0.00    +0.000 N 
ATOM      2  C   UNL     1      -3.802   1.113  -1.606  0.00  0.00    +0.000 C 
ATOM      3  S   UNL     1      -4.961   0.621  -2.758  0.00  0.00    +0.000 S 
ATOM      4  C   UNL     1      -5.393  -0.762  -1.823  0.00  0.00    +0.000 A 
ATOM      5  C   UNL     1      -4.628  -0.794  -0.655  0.00  0.00    +0.000 A 
ATOM      6  C   UNL     1      -4.818  -1.846   0.263  0.00  0.00    +0.000 A 
ATOM      7  C   UNL     1      -5.771  -2.836  -0.022  0.00  0.00    +0.000 A 
ATOM      8  C   UNL     1      -6.521  -2.784  -1.192  0.00  0.00    +0.000 A 
ATOM      9  C   UNL     1      -6.349  -1.750  -2.114  0.00  0.00    +0.000 A 
ATOM     10 CL   UNL     1      -7.680  -4.012  -1.511  0.00  0.00    +0.000 Cl
ENDROOT
BRANCH   1  11
ATOM     11  C   UNL     1      -2.823   0.512   0.528  0.00  0.00    +0.000 C 
BRANCH  11  15
ATOM     12  C   UNL     1       1.189  -0.409  -0.765  0.00  0.00    +0.000 A 
ATOM     13  C   UNL     1       0.810   0.915  -0.554  0.00  0.00    +0.000 A 
ATOM     14  C   UNL     1      -0.484   1.213  -0.127  0.00  0.00    +0.000 A 
ATOM     15  C   UNL     1      -1.416   0.185   0.092  0.00  0.00    +0.000 A 
ATOM     16  C   UNL     1      -1.020  -1.145  -0.118  0.00  0.00    +0.000 A 
ATOM     17  C   UNL     1       0.276  -1.438  -0.546  0.00  0.00    +0.000 A 
ENDBRANCH  11  15
ENDBRANCH   1  11
TORSDOF 2
