REMARK  Name = *****
REMARK  6 active torsions:
REMARK  status: ('A' for Active; 'I' for Inactive)
REMARK    1  A    between atoms: C_1  and  N_2
REMARK    2  A    between atoms: N_2  and  C_3
REMARK    3  A    between atoms: N_2  and  N_9
REMARK    4  A    between atoms: N_9  and  C_10
REMARK    5  A    between atoms: C_10  and  C_11
REMARK    6  A    between atoms: C_11  and  C_12
REMARK                            x       y       z     vdW  Elec       q    Type
REMARK                         _______ _______ _______ _____ _____    ______ ____
ROOT
ATOM      1  N   UNL     1       3.172   1.125  -1.022  0.00  0.00    +0.000 NA
ENDROOT
BRANCH   1   3
ATOM      2  C   UNL     1       1.115   0.043  -1.464  0.00  0.00    +0.000 C 
ATOM      3  N   UNL     1       2.406   0.014  -0.759  0.00  0.00    +0.000 N 
BRANCH   3   4
ATOM      4  C   UNL     1       2.204  -0.312   0.619  0.00  0.00    +0.000 A 
ATOM      5  C   UNL     1       1.772  -1.601   0.975  0.00  0.00    +0.000 A 
ATOM      6  C   UNL     1       1.578  -1.954   2.313  0.00  0.00    +0.000 A 
ATOM      7  C   UNL     1       1.819  -1.024   3.321  0.00  0.00    +0.000 A 
ATOM      8  C   UNL     1       2.258   0.256   2.991  0.00  0.00    +0.000 A 
ATOM      9  C   UNL     1       2.452   0.606   1.651  0.00  0.00    +0.000 A 
ENDBRANCH   3   4
ENDBRANCH   1   3
BRANCH   1  10
ATOM     10  C   UNL     1       4.441   0.861  -1.074  0.00  0.00    +0.000 C 
BRANCH  10  11
ATOM     11  C   UNL     1       5.443   1.945  -1.358  0.00  0.00    +0.000 C 
BRANCH  11  12
ATOM     12  C   UNL     1       6.465   2.061  -0.257  0.00  0.00    +0.000 A 
ATOM     13  C   UNL     1       7.775   1.599  -0.443  0.00  0.00    +0.000 A 
ATOM     14  C   UNL     1       8.712   1.698   0.587  0.00  0.00    +0.000 A 
ATOM     15  C   UNL     1       8.349   2.255   1.812  0.00  0.00    +0.000 A 
ATOM     16  C   UNL     1       7.049   2.715   2.008  0.00  0.00    +0.000 A 
ATOM     17  C   UNL     1       6.111   2.620   0.980  0.00  0.00    +0.000 A 
ENDBRANCH  11  12
ENDBRANCH  10  11
ENDBRANCH   1  10
TORSDOF 5
