REMARK  Name = *****
REMARK  3 active torsions:
REMARK  status: ('A' for Active; 'I' for Inactive)
REMARK    1  A    between atoms: C_1  and  C_2
REMARK    2  A    between atoms: C_2  and  C_9
REMARK    3  A    between atoms: C_9  and  C_11
REMARK                            x       y       z     vdW  Elec       q    Type
REMARK                         _______ _______ _______ _____ _____    ______ ____
ROOT
ATOM      1  C   UNL     1       2.777   0.768  -1.247  0.00  0.00    +0.000 C 
ATOM      2  C   UNL     1       1.915  -0.372  -0.792  0.00  0.00    +0.000 C 
ATOM      3  C   UNL     1       0.809  -0.266  -0.021  0.00  0.00    +0.000 C 
ATOM      4  C   UNL     1       0.304   1.053   0.528  0.00  0.00    +0.000 C 
ATOM      5  C   UNL     1      -1.137   1.307   0.082  0.00  0.00    +0.000 C 
ATOM      6  C   UNL     1      -2.058   0.144   0.452  0.00  0.00    +0.000 C 
ATOM      7  C   UNL     1      -1.519  -1.189  -0.067  0.00  0.00    +0.000 C 
ATOM      8  C   UNL     1      -0.077  -1.431   0.379  0.00  0.00    +0.000 C 
ENDROOT
BRANCH   2   9
ATOM      9  C   UNL     1       2.318  -1.706  -1.330  0.00  0.00    +0.000 C 
ATOM     10  O   UNL     1       1.700  -2.211  -2.262  0.00  0.00    +0.000 OA
BRANCH   9  11
ATOM     11  C   UNL     1       3.512  -2.374  -0.738  0.00  0.00    +0.000 A 
ATOM     12  C   UNL     1       4.088  -1.958   0.469  0.00  0.00    +0.000 A 
ATOM     13  C   UNL     1       5.207  -2.622   0.978  0.00  0.00    +0.000 A 
ATOM     14  C   UNL     1       5.753  -3.705   0.289  0.00  0.00    +0.000 A 
ATOM     15  C   UNL     1       5.179  -4.131  -0.907  0.00  0.00    +0.000 A 
ATOM     16  C   UNL     1       4.060  -3.470  -1.418  0.00  0.00    +0.000 A 
ENDBRANCH   9  11
ENDBRANCH   2   9
TORSDOF 2
