REMARK  Name = *****
REMARK  4 active torsions:
REMARK  status: ('A' for Active; 'I' for Inactive)
REMARK    1  A    between atoms: C_3  and  C_8
REMARK    2  A    between atoms: C_5  and  S_7
REMARK    3  A    between atoms: C_9  and  C_10
REMARK    4  A    between atoms: C_12  and  S_16
REMARK                            x       y       z     vdW  Elec       q    Type
REMARK                         _______ _______ _______ _____ _____    ______ ____
ROOT
ATOM      1  C   UNL     1      -2.394   2.448  -0.040  0.00  0.00    +0.000 C 
ATOM      2  C   UNL     1      -1.858   3.675   0.072  0.00  0.00    +0.000 C 
ENDROOT
BRANCH   1   5
ATOM      3  C   UNL     1      -1.302  -1.054  -0.873  0.00  0.00    +0.000 A 
ATOM      4  C   UNL     1      -2.005   0.153  -0.869  0.00  0.00    +0.000 A 
ATOM      5  C   UNL     1      -1.605   1.208  -0.040  0.00  0.00    +0.000 A 
ATOM      6  C   UNL     1      -0.502   1.024   0.807  0.00  0.00    +0.000 A 
ATOM      7  C   UNL     1       0.210  -0.181   0.801  0.00  0.00    +0.000 A 
ATOM      8  C   UNL     1      -0.196  -1.219  -0.039  0.00  0.00    +0.000 A 
BRANCH   7   9
ATOM      9  S   UNL     1       1.609  -0.415   1.876  0.00  0.00    +0.000 S 
ATOM     10  H   UNL     1       1.822   0.719   2.597  0.00  0.00    +0.000 HD
ENDBRANCH   7   9
ENDBRANCH   1   5
BRANCH   2  11
ATOM     11  C   UNL     1      -2.645   4.916   0.051  0.00  0.00    +0.000 A 
ATOM     12  C   UNL     1      -3.887   5.024   0.694  0.00  0.00    +0.000 A 
ATOM     13  C   UNL     1      -4.597   6.230   0.679  0.00  0.00    +0.000 A 
ATOM     14  C   UNL     1      -4.052   7.344   0.036  0.00  0.00    +0.000 A 
ATOM     15  C   UNL     1      -2.811   7.252  -0.592  0.00  0.00    +0.000 A 
ATOM     16  C   UNL     1      -2.109   6.045  -0.580  0.00  0.00    +0.000 A 
BRANCH  13  17
ATOM     17  S   UNL     1      -6.173   6.368   1.495  0.00  0.00    +0.000 S 
ATOM     18  H   UNL     1      -6.503   5.170   2.048  0.00  0.00    +0.000 HD
ENDBRANCH  13  17
ENDBRANCH   2  11
TORSDOF 4
