REMARK  Name = *****
REMARK  5 active torsions:
REMARK  status: ('A' for Active; 'I' for Inactive)
REMARK    1  A    between atoms: C_1  and  O_2
REMARK    2  A    between atoms: O_2  and  C_3
REMARK    3  A    between atoms: C_3  and  C_4
REMARK    4  A    between atoms: C_3  and  C_11
REMARK    5  A    between atoms: C_4  and  C_5
REMARK                            x       y       z     vdW  Elec       q    Type
REMARK                         _______ _______ _______ _____ _____    ______ ____
ROOT
ATOM      1  C   UNL     1       2.927   0.682   1.064  0.00  0.00    +0.000 C 
ENDROOT
BRANCH   1   2
ATOM      2  C   UNL     1       4.441   0.772   0.936  0.00  0.00    +0.000 A 
ATOM      3  C   UNL     1       5.097   1.977   1.237  0.00  0.00    +0.000 A 
ATOM      4  C   UNL     1       6.488   2.071   1.156  0.00  0.00    +0.000 A 
ATOM      5  C   UNL     1       7.242   0.962   0.777  0.00  0.00    +0.000 A 
ATOM      6  C   UNL     1       6.606  -0.241   0.479  0.00  0.00    +0.000 A 
ATOM      7  C   UNL     1       5.215  -0.336   0.559  0.00  0.00    +0.000 A 
ENDBRANCH   1   2
BRANCH   1   9
ATOM      8  C   UNL     1       1.069  -0.048  -0.246  0.00  0.00    +0.000 C 
ATOM      9  O   UNL     1       2.413  -0.291   0.143  0.00  0.00    +0.000 OA
ENDBRANCH   1   9
BRANCH   1  10
ATOM     10  C   UNL     1       2.480   0.410   2.523  0.00  0.00    +0.000 C 
BRANCH  10  11
ATOM     11  C   UNL     1       2.916  -0.915   3.124  0.00  0.00    +0.000 C 
ATOM     12  C   UNL     1       3.914  -0.987   4.025  0.00  0.00    +0.000 C 
ATOM     13  C   UNL     1       4.408  -2.270   4.628  0.00  0.00    +0.000 C 
ATOM     14  C   UNL     1       3.865  -3.516   3.929  0.00  0.00    +0.000 C 
ATOM     15  C   UNL     1       2.387  -3.356   3.595  0.00  0.00    +0.000 C 
ATOM     16  C   UNL     1       2.159  -2.147   2.684  0.00  0.00    +0.000 C 
ENDBRANCH  10  11
ENDBRANCH   1  10
TORSDOF 4
