REMARK  Name = *****
REMARK  6 active torsions:
REMARK  status: ('A' for Active; 'I' for Inactive)
REMARK    1  A    between atoms: C_1  and  C_2
REMARK    2  A    between atoms: C_4  and  C_19
REMARK    3  A    between atoms: C_5  and  P_9
REMARK    4  A    between atoms: C_6  and  C_8
REMARK    5  A    between atoms: P_9  and  C_12
REMARK    6  A    between atoms: C_12  and  C_13
REMARK                            x       y       z     vdW  Elec       q    Type
REMARK                         _______ _______ _______ _____ _____    ______ ____
ROOT
ATOM      1  P   UNL     1      -2.252  -1.778  -0.561  0.00  0.00    +0.000 P 
ATOM      2  C   UNL     1      -2.310  -2.773   1.052  0.00  0.00    +0.000 C 
ATOM      3  C   UNL     1      -1.898  -3.462  -0.188  0.00  0.00    +0.000 C 
ENDROOT
BRANCH   1   8
ATOM      4  C   UNL     1       2.146   2.165   0.900  0.00  0.00    +0.000 C 
ATOM      5  C   UNL     1       1.061   1.187   0.563  0.00  0.00    +0.000 A 
ATOM      6  C   UNL     1       1.254   0.217  -0.419  0.00  0.00    +0.000 A 
ATOM      7  C   UNL     1       0.227  -0.676  -0.769  0.00  0.00    +0.000 A 
ATOM      8  C   UNL     1      -1.022  -0.629  -0.101  0.00  0.00    +0.000 A 
ATOM      9  C   UNL     1      -1.226   0.378   0.868  0.00  0.00    +0.000 A 
ATOM     10  C   UNL     1      -0.186   1.274   1.181  0.00  0.00    +0.000 A 
ATOM     11  C   UNL     1      -2.546   0.578   1.561  0.00  0.00    +0.000 C 
ATOM     12  C   UNL     1       0.515  -1.692  -1.843  0.00  0.00    +0.000 C 
ENDBRANCH   1   8
BRANCH   1  13
ATOM     13  C   UNL     1      -3.977  -1.406  -0.715  0.00  0.00    +0.000 C 
BRANCH  13  14
ATOM     14  C   UNL     1      -4.422  -0.348  -1.696  0.00  0.00    +0.000 A 
ATOM     15  C   UNL     1      -3.535   0.308  -2.558  0.00  0.00    +0.000 A 
ATOM     16  C   UNL     1      -3.997   1.277  -3.451  0.00  0.00    +0.000 A 
ATOM     17  C   UNL     1      -5.352   1.599  -3.499  0.00  0.00    +0.000 A 
ATOM     18  C   UNL     1      -6.247   0.951  -2.653  0.00  0.00    +0.000 A 
ATOM     19  C   UNL     1      -5.785  -0.016  -1.758  0.00  0.00    +0.000 A 
ENDBRANCH  13  14
ENDBRANCH   1  13
TORSDOF 3
