REMARK  Name = *****
REMARK  4 active torsions:
REMARK  status: ('A' for Active; 'I' for Inactive)
REMARK    1  A    between atoms: C_5  and  C_7
REMARK    2  A    between atoms: C_7  and  O_8
REMARK    3  A    between atoms: O_8  and  C_9
REMARK    4  A    between atoms: C_9  and  C_11
REMARK                            x       y       z     vdW  Elec       q    Type
REMARK                         _______ _______ _______ _____ _____    ______ ____
ROOT
ATOM      1  O   UNL     1      -1.993  -2.581  -0.055  0.00  0.00    +0.000 OA
ENDROOT
BRANCH   1   2
ATOM      2  C   UNL     1      -2.807  -3.664  -0.053  0.00  0.00    +0.000 C 
ATOM      3  O   UNL     1      -2.487  -4.838  -0.016  0.00  0.00    +0.000 OA
BRANCH   2   4
ATOM      4  C   UNL     1      -4.196  -3.186  -0.114  0.00  0.00    +0.000 A 
ATOM      5  C   UNL     1      -4.608  -2.464  -1.245  0.00  0.00    +0.000 A 
ATOM      6  C   UNL     1      -5.927  -2.019  -1.344  0.00  0.00    +0.000 A 
ATOM      7  C   UNL     1      -6.833  -2.294  -0.320  0.00  0.00    +0.000 A 
ATOM      8  C   UNL     1      -6.422  -3.014   0.805  0.00  0.00    +0.000 A 
ATOM      9  C   UNL     1      -5.103  -3.464   0.912  0.00  0.00    +0.000 A 
ATOM     10 CL   UNL     1      -4.654  -4.311   2.347  0.00  0.00    +0.000 Cl
ENDBRANCH   2   4
ENDBRANCH   1   2
BRANCH   1  11
ATOM     11  C   UNL     1      -0.585  -2.871   0.013  0.00  0.00    +0.000 C 
BRANCH  11  16
ATOM     12  C   UNL     1       0.119  -2.047  -3.651  0.00  0.00    +0.000 A 
ATOM     13  C   UNL     1       1.217  -2.856  -3.927  0.00  0.00    +0.000 A 
ATOM     14  C   UNL     1       1.746  -3.669  -2.926  0.00  0.00    +0.000 A 
ATOM     15  C   UNL     1       1.171  -3.684  -1.650  0.00  0.00    +0.000 A 
ATOM     16  C   UNL     1       0.044  -2.898  -1.362  0.00  0.00    +0.000 A 
ATOM     17  C   UNL     1      -0.457  -2.062  -2.379  0.00  0.00    +0.000 A 
ATOM     18 CL   UNL     1       1.924  -4.684  -0.458  0.00  0.00    +0.000 Cl
ENDBRANCH  11  16
ENDBRANCH   1  11
TORSDOF 4
