REMARK  Name = *****
REMARK  4 active torsions:
REMARK  status: ('A' for Active; 'I' for Inactive)
REMARK    1  A    between atoms: C_4  and  C_7
REMARK    2  A    between atoms: C_8  and  C_9
REMARK    3  A    between atoms: C_12  and  C_15
REMARK    4  A    between atoms: C_15  and  C_16
REMARK                            x       y       z     vdW  Elec       q    Type
REMARK                         _______ _______ _______ _____ _____    ______ ____
ROOT
ATOM      1  C   UNL     1       2.034   0.004  -0.001  0.00  0.00    +0.000 A 
ATOM      2  C   UNL     1       2.707   1.227   0.018  0.00  0.00    +0.000 A 
ATOM      3  C   UNL     1       4.103   1.261  -0.029  0.00  0.00    +0.000 A 
ATOM      4  C   UNL     1       4.841   0.071  -0.101  0.00  0.00    +0.000 A 
ATOM      5  C   UNL     1       4.157  -1.154  -0.104  0.00  0.00    +0.000 A 
ATOM      6  C   UNL     1       2.760  -1.186  -0.058  0.00  0.00    +0.000 A 
ENDROOT
BRANCH   1   8
ATOM      7  C   UNL     1      -0.597  -0.028   0.033  0.00  0.00    +0.000 C 
ATOM      8  C   UNL     1       0.604  -0.024   0.027  0.00  0.00    +0.000 C 
BRANCH   7  12
ATOM      9  C   UNL     1      -4.820   0.035  -0.019  0.00  0.00    +0.000 A 
ATOM     10  C   UNL     1      -4.142  -1.184   0.027  0.00  0.00    +0.000 A 
ATOM     11  C   UNL     1      -2.746  -1.207   0.047  0.00  0.00    +0.000 A 
ATOM     12  C   UNL     1      -2.027  -0.009   0.023  0.00  0.00    +0.000 A 
ATOM     13  C   UNL     1      -2.708   1.210  -0.021  0.00  0.00    +0.000 A 
ATOM     14  C   UNL     1      -4.104   1.231  -0.042  0.00  0.00    +0.000 A 
ENDBRANCH   7  12
ENDBRANCH   1   8
BRANCH   4  15
ATOM     15  C   UNL     1       6.351   0.108  -0.148  0.00  0.00    +0.000 C 
BRANCH  15  16
ATOM     16  C   UNL     1       6.963   0.091   1.188  0.00  0.00    +0.000 C 
ATOM     17  N   UNL     1       7.472   0.080   2.232  0.00  0.00    +0.000 NA
ENDBRANCH  15  16
ENDBRANCH   4  15
TORSDOF 4
