REMARK  Name = *****
REMARK  4 active torsions:
REMARK  status: ('A' for Active; 'I' for Inactive)
REMARK    1  A    between atoms: C_6  and  C_7
REMARK    2  A    between atoms: C_7  and  C_8
REMARK    3  A    between atoms: C_8  and  C_9
REMARK    4  A    between atoms: C_8  and  C_11
REMARK                            x       y       z     vdW  Elec       q    Type
REMARK                         _______ _______ _______ _____ _____    ______ ____
ROOT
ATOM      1  C   UNL     1      -4.015   1.406  -0.368  0.00  0.00    +0.000 C 
ENDROOT
BRANCH   1   2
ATOM      2  C   UNL     1      -5.523   1.347  -0.139  0.00  0.00    +0.000 A 
ATOM      3  C   UNL     1      -6.088   1.992   0.973  0.00  0.00    +0.000 A 
ATOM      4  C   UNL     1      -7.465   1.941   1.203  0.00  0.00    +0.000 A 
ATOM      5  C   UNL     1      -8.289   1.244   0.323  0.00  0.00    +0.000 A 
ATOM      6  C   UNL     1      -7.749   0.598  -0.786  0.00  0.00    +0.000 A 
ATOM      7  C   UNL     1      -6.372   0.648  -1.016  0.00  0.00    +0.000 A 
ATOM      8 BR   UNL     1     -10.151   1.175   0.636  0.00  0.00    +0.000 Br
ENDBRANCH   1   2
BRANCH   1   9
ATOM      9  C   UNL     1      -3.693   2.039  -1.666  0.00  0.00    +0.000 C 
ATOM     10  N   UNL     1      -3.434   2.517  -2.693  0.00  0.00    +0.000 NA
ENDBRANCH   1   9
BRANCH   1  11
ATOM     11  C   UNL     1      -3.396  -0.004  -0.273  0.00  0.00    +0.000 C 
BRANCH  11  17
ATOM     12  C   UNL     1      -1.033  -0.049  -1.188  0.00  0.00    +0.000 A 
ATOM     13  C   UNL     1       0.350  -0.009  -1.008  0.00  0.00    +0.000 A 
ATOM     14  C   UNL     1       0.872   0.097   0.275  0.00  0.00    +0.000 A 
ATOM     15  C   UNL     1       0.037   0.166   1.383  0.00  0.00    +0.000 A 
ATOM     16  C   UNL     1      -1.347   0.128   1.207  0.00  0.00    +0.000 A 
ATOM     17  C   UNL     1      -1.894   0.018  -0.082  0.00  0.00    +0.000 A 
ATOM     18  F   UNL     1       2.200   0.135   0.447  0.00  0.00    +0.000 F 
ENDBRANCH  11  17
ENDBRANCH   1  11
TORSDOF 4
