REMARK  Name = *****
REMARK  3 active torsions:
REMARK  status: ('A' for Active; 'I' for Inactive)
REMARK    1  A    between atoms: C_4  and  S_7
REMARK    2  A    between atoms: S_7  and  N_8
REMARK    3  A    between atoms: N_8  and  C_9
REMARK                            x       y       z     vdW  Elec       q    Type
REMARK                         _______ _______ _______ _____ _____    ______ ____
ROOT
ATOM      1  N   UNL     1      -3.967  -0.648  -0.439  0.00  0.00    +0.000 N 
ATOM      2  H   UNL     1      -3.355  -1.418  -0.493  0.00  0.00    +0.000 HD
ENDROOT
BRANCH   1   3
ATOM      3  C   UNL     1      -5.363  -0.875  -0.572  0.00  0.00    +0.000 A 
ATOM      4  C   UNL     1      -6.241   0.093  -1.086  0.00  0.00    +0.000 A 
ATOM      5  C   UNL     1      -7.601  -0.184  -1.265  0.00  0.00    +0.000 A 
ATOM      6  C   UNL     1      -8.109  -1.442  -0.951  0.00  0.00    +0.000 A 
ATOM      7  C   UNL     1      -7.255  -2.430  -0.466  0.00  0.00    +0.000 A 
ATOM      8  C   UNL     1      -5.896  -2.151  -0.289  0.00  0.00    +0.000 A 
ATOM      9 CL   UNL     1      -4.878  -3.418   0.310  0.00  0.00    +0.000 Cl
ENDBRANCH   1   3
BRANCH   1  10
ATOM     10  S   UNL     1      -3.325   0.870  -0.193  0.00  0.00    +0.000 S 
BRANCH  10  14
ATOM     11  C   UNL     1       1.060   0.093  -1.298  0.00  0.00    +0.000 A 
ATOM     12  C   UNL     1       0.047  -0.342  -2.150  0.00  0.00    +0.000 A 
ATOM     13  C   UNL     1      -1.291  -0.112  -1.821  0.00  0.00    +0.000 A 
ATOM     14  C   UNL     1      -1.623   0.552  -0.634  0.00  0.00    +0.000 A 
ATOM     15  C   UNL     1      -0.601   0.992   0.212  0.00  0.00    +0.000 A 
ATOM     16  C   UNL     1       0.737   0.761  -0.117  0.00  0.00    +0.000 A 
ENDBRANCH  10  14
ENDBRANCH   1  10
TORSDOF 3
