REMARK  Name = *****
REMARK  1 active torsions:
REMARK  status: ('A' for Active; 'I' for Inactive)
REMARK    1  A    between atoms: C_9  and  C_10
REMARK                            x       y       z     vdW  Elec       q    Type
REMARK                         _______ _______ _______ _____ _____    ______ ____
ROOT
ATOM      1  C   UNL     1      -1.637   1.205  -0.146  0.00  0.00    +0.000 C 
ATOM      2  C   UNL     1      -0.226   0.704  -0.094  0.00  0.00    +0.000 A 
ATOM      3  C   UNL     1       0.959   1.411  -0.210  0.00  0.00    +0.000 A 
ATOM      4  C   UNL     1       2.158   0.698  -0.130  0.00  0.00    +0.000 A 
ATOM      5  C   UNL     1       2.154  -0.694   0.061  0.00  0.00    +0.000 A 
ATOM      6  C   UNL     1       0.950  -1.395   0.176  0.00  0.00    +0.000 A 
ATOM      7  C   UNL     1      -0.231  -0.681   0.097  0.00  0.00    +0.000 A 
ATOM      8  C   UNL     1      -1.606  -1.144   0.184  0.00  0.00    +0.000 C 
ATOM      9  C   UNL     1      -2.426  -0.081   0.056  0.00  0.00    +0.000 C 
ENDROOT
BRANCH   9  10
ATOM     10  C   UNL     1      -3.901  -0.096   0.089  0.00  0.00    +0.000 A 
ATOM     11  C   UNL     1      -4.614  -1.234   0.503  0.00  0.00    +0.000 A 
ATOM     12  C   UNL     1      -6.012  -1.241   0.541  0.00  0.00    +0.000 A 
ATOM     13  C   UNL     1      -6.727  -0.107   0.167  0.00  0.00    +0.000 A 
ATOM     14  C   UNL     1      -6.043   1.033  -0.241  0.00  0.00    +0.000 A 
ATOM     15  C   UNL     1      -4.644   1.038  -0.277  0.00  0.00    +0.000 A 
ENDBRANCH   9  10
TORSDOF 1
