REMARK  Name = *****
REMARK  2 active torsions:
REMARK  status: ('A' for Active; 'I' for Inactive)
REMARK    1  A    between atoms: C_4  and  N_7
REMARK    2  A    between atoms: N_7  and  P_8
REMARK                            x       y       z     vdW  Elec       q    Type
REMARK                         _______ _______ _______ _____ _____    ______ ____
ROOT
ATOM      1  P   UNL     1      -3.946  -1.971  -0.683  0.00  0.00    +0.000 P 
ATOM      2  O   UNL     1      -5.469  -1.449  -0.362  0.00  0.00    +0.000 OA
ATOM      3  C   UNL     1      -6.102  -1.106  -1.526  0.00  0.00    +0.000 A 
ATOM      4  C   UNL     1      -7.401  -0.659  -1.639  0.00  0.00    +0.000 A 
ATOM      5  C   UNL     1      -7.867  -0.346  -2.920  0.00  0.00    +0.000 A 
ATOM      6  C   UNL     1      -7.030  -0.485  -4.044  0.00  0.00    +0.000 A 
ATOM      7  C   UNL     1      -5.715  -0.938  -3.905  0.00  0.00    +0.000 A 
ATOM      8  C   UNL     1      -5.277  -1.243  -2.633  0.00  0.00    +0.000 A 
ATOM      9  O   UNL     1      -4.029  -1.690  -2.299  0.00  0.00    +0.000 OA
ENDROOT
BRANCH   1  10
ATOM     10  N   UNL     1      -3.146  -0.600  -0.252  0.00  0.00    +0.000 N 
ATOM     11  H   UNL     1      -3.726   0.175  -0.072  0.00  0.00    +0.000 HD
BRANCH  10  15
ATOM     12  C   UNL     1       0.959   0.238   0.354  0.00  0.00    +0.000 A 
ATOM     13  C   UNL     1       0.008   1.252   0.407  0.00  0.00    +0.000 A 
ATOM     14  C   UNL     1      -1.342   0.957   0.193  0.00  0.00    +0.000 A 
ATOM     15  C   UNL     1      -1.764  -0.350  -0.096  0.00  0.00    +0.000 A 
ATOM     16  C   UNL     1      -0.794  -1.361  -0.119  0.00  0.00    +0.000 A 
ATOM     17  C   UNL     1       0.558  -1.070   0.094  0.00  0.00    +0.000 A 
ENDBRANCH  10  15
ENDBRANCH   1  10
TORSDOF 2
