REMARK  Name = *****
REMARK  2 active torsions:
REMARK  status: ('A' for Active; 'I' for Inactive)
REMARK    1  A    between atoms: C_6  and  N_7
REMARK    2  A    between atoms: C_8  and  C_9
REMARK                            x       y       z     vdW  Elec       q    Type
REMARK                         _______ _______ _______ _____ _____    ______ ____
ROOT
ATOM      1  N   UNL     1      -3.377  -0.093  -0.213  0.00  0.00    +0.000 NA
ATOM      2  C   UNL     1      -4.063   0.945   0.158  0.00  0.00    +0.000 C 
ENDROOT
BRANCH   2   3
ATOM      3  C   UNL     1      -5.541   0.951   0.105  0.00  0.00    +0.000 A 
ATOM      4  C   UNL     1      -6.286   2.079   0.477  0.00  0.00    +0.000 A 
ATOM      5  C   UNL     1      -7.684   2.042   0.413  0.00  0.00    +0.000 A 
ATOM      6  C   UNL     1      -8.340   0.888  -0.019  0.00  0.00    +0.000 A 
ATOM      7  C   UNL     1      -7.597  -0.231  -0.389  0.00  0.00    +0.000 A 
ATOM      8  C   UNL     1      -6.205  -0.206  -0.330  0.00  0.00    +0.000 A 
ATOM      9 CL   UNL     1      -8.407  -1.652  -0.921  0.00  0.00    +0.000 Cl
ATOM     10 CL   UNL     1      -5.561   3.549   1.022  0.00  0.00    +0.000 Cl
ENDBRANCH   2   3
BRANCH   1  16
ATOM     11  C   UNL     1      -1.246   0.600  -1.155  0.00  0.00    +0.000 A 
ATOM     12  C   UNL     1       0.144   0.700  -1.062  0.00  0.00    +0.000 A 
ATOM     13  C   UNL     1       0.789   0.212   0.069  0.00  0.00    +0.000 A 
ATOM     14  C   UNL     1       0.072  -0.377   1.105  0.00  0.00    +0.000 A 
ATOM     15  C   UNL     1      -1.317  -0.474   1.008  0.00  0.00    +0.000 A 
ATOM     16  C   UNL     1      -1.984   0.025  -0.115  0.00  0.00    +0.000 A 
ATOM     17  F   UNL     1       2.122   0.306   0.160  0.00  0.00    +0.000 F 
ENDBRANCH   1  16
TORSDOF 2
