REMARK  Name = *****
REMARK  4 active torsions:
REMARK  status: ('A' for Active; 'I' for Inactive)
REMARK    1  A    between atoms: C_1  and  C_2
REMARK    2  A    between atoms: C_5  and  C_8
REMARK    3  A    between atoms: C_8  and  C_10
REMARK    4  A    between atoms: C_10  and  C_11
REMARK                            x       y       z     vdW  Elec       q    Type
REMARK                         _______ _______ _______ _____ _____    ______ ____
ROOT
ATOM      1  C   UNL     1      -3.242  -0.034   0.218  0.00  0.00    +0.000 C 
ATOM      2  O   UNL     1      -3.888  -1.083   0.249  0.00  0.00    +0.000 OA
ENDROOT
BRANCH   1   7
ATOM      3  C   UNL     1       2.412  -0.337   1.542  0.00  0.00    +0.000 C 
ATOM      4  C   UNL     1       0.950  -0.243   1.220  0.00  0.00    +0.000 A 
ATOM      5  C   UNL     1       0.155  -1.393   1.178  0.00  0.00    +0.000 A 
ATOM      6  C   UNL     1      -1.201  -1.303   0.853  0.00  0.00    +0.000 A 
ATOM      7  C   UNL     1      -1.783  -0.064   0.552  0.00  0.00    +0.000 A 
ATOM      8  C   UNL     1      -0.984   1.084   0.575  0.00  0.00    +0.000 A 
ATOM      9  C   UNL     1       0.373   0.992   0.903  0.00  0.00    +0.000 A 
ENDBRANCH   1   7
BRANCH   1  10
ATOM     10  C   UNL     1      -3.912   1.276  -0.150  0.00  0.00    +0.000 C 
BRANCH  10  11
ATOM     11  C   UNL     1      -4.174   2.202   1.016  0.00  0.00    +0.000 A 
ATOM     12  C   UNL     1      -4.038   3.589   0.848  0.00  0.00    +0.000 A 
ATOM     13  C   UNL     1      -4.299   4.463   1.905  0.00  0.00    +0.000 A 
ATOM     14  C   UNL     1      -4.709   3.956   3.136  0.00  0.00    +0.000 A 
ATOM     15  C   UNL     1      -4.870   2.585   3.315  0.00  0.00    +0.000 A 
ATOM     16  C   UNL     1      -4.613   1.712   2.255  0.00  0.00    +0.000 A 
ATOM     17 BR   UNL     1      -5.059   5.138   4.568  0.00  0.00    +0.000 Br
ENDBRANCH  10  11
ENDBRANCH   1  10
TORSDOF 3
