REMARK  Name = *****
REMARK  5 active torsions:
REMARK  status: ('A' for Active; 'I' for Inactive)
REMARK    1  A    between atoms: C_1  and  C_2
REMARK    2  A    between atoms: C_4  and  C_18
REMARK    3  A    between atoms: C_6  and  O_8
REMARK    4  A    between atoms: O_8  and  C_9
REMARK    5  A    between atoms: C_9  and  C_11
REMARK                            x       y       z     vdW  Elec       q    Type
REMARK                         _______ _______ _______ _____ _____    ______ ____
ROOT
ATOM      1  O   UNL     1       2.801  -3.153  -2.070  0.00  0.00    +0.000 OA
ENDROOT
BRANCH   1   7
ATOM      2  C   UNL     1       1.059   0.272   0.223  0.00  0.00    +0.000 C 
ATOM      3  C   UNL     1       2.542   0.059  -0.091  0.00  0.00    +0.000 C 
ATOM      4  C   UNL     1       3.029   0.996  -1.209  0.00  0.00    +0.000 C 
ATOM      5  C   UNL     1       2.520   0.593  -2.601  0.00  0.00    +0.000 C 
ATOM      6  C   UNL     1       2.857  -0.872  -2.903  0.00  0.00    +0.000 C 
ATOM      7  C   UNL     1       2.327  -1.816  -1.819  0.00  0.00    +0.000 C 
ATOM      8  C   UNL     1       2.846  -1.403  -0.439  0.00  0.00    +0.000 C 
ATOM      9  C   UNL     1       3.109   1.510  -3.672  0.00  0.00    +0.000 C 
ENDBRANCH   1   7
BRANCH   1  10
ATOM     10  C   UNL     1       2.078  -3.890  -2.949  0.00  0.00    +0.000 C 
ATOM     11  O   UNL     1       1.071  -3.527  -3.535  0.00  0.00    +0.000 OA
BRANCH  10  12
ATOM     12  C   UNL     1       2.680  -5.240  -3.115  0.00  0.00    +0.000 A 
ATOM     13  C   UNL     1       3.857  -5.621  -2.460  0.00  0.00    +0.000 A 
ATOM     14  C   UNL     1       4.366  -6.899  -2.661  0.00  0.00    +0.000 A 
ATOM     15  C   UNL     1       3.730  -7.807  -3.500  0.00  0.00    +0.000 A 
ATOM     16  C   UNL     1       2.559  -7.435  -4.155  0.00  0.00    +0.000 A 
ATOM     17  C   UNL     1       2.035  -6.153  -3.964  0.00  0.00    +0.000 A 
ATOM     18  F   UNL     1       5.493  -7.262  -2.033  0.00  0.00    +0.000 F 
ENDBRANCH  10  12
ENDBRANCH   1  10
TORSDOF 3
