REMARK  Name = *****
REMARK  4 active torsions:
REMARK  status: ('A' for Active; 'I' for Inactive)
REMARK    1  A    between atoms: C_1  and  C_2
REMARK    2  A    between atoms: C_2  and  C_12
REMARK    3  A    between atoms: C_3  and  C_5
REMARK    4  A    between atoms: C_3  and  C_6
REMARK                            x       y       z     vdW  Elec       q    Type
REMARK                         _______ _______ _______ _____ _____    ______ ____
ROOT
ATOM      1  C   UNL     1       3.143  -0.005   1.395  0.00  0.00    +0.000 C 
ATOM      2  C   UNL     1       2.523   0.227   0.041  0.00  0.00    +0.000 C 
ATOM      3  C   UNL     1       3.283   1.001  -1.061  0.00  0.00    +0.000 C 
ATOM      4  O   UNL     1       3.251  -0.435  -1.007  0.00  0.00    +0.000 OA
ATOM      5  C   UNL     1       2.562   1.539  -2.270  0.00  0.00    +0.000 C 
ENDROOT
BRANCH   3   6
ATOM      6  C   UNL     1       4.586   1.697  -0.721  0.00  0.00    +0.000 A 
ATOM      7  C   UNL     1       5.822   1.198  -1.169  0.00  0.00    +0.000 A 
ATOM      8  C   UNL     1       7.022   1.843  -0.862  0.00  0.00    +0.000 A 
ATOM      9  C   UNL     1       7.011   3.007  -0.099  0.00  0.00    +0.000 A 
ATOM     10  C   UNL     1       5.801   3.525   0.355  0.00  0.00    +0.000 A 
ATOM     11  C   UNL     1       4.603   2.877   0.043  0.00  0.00    +0.000 A 
ENDBRANCH   3   6
BRANCH   2  12
ATOM     12  C   UNL     1       1.009   0.167   0.002  0.00  0.00    +0.000 A 
ATOM     13  C   UNL     1       0.330  -1.013  -0.346  0.00  0.00    +0.000 A 
ATOM     14  C   UNL     1      -1.065  -1.071  -0.375  0.00  0.00    +0.000 A 
ATOM     15  C   UNL     1      -1.814   0.057  -0.052  0.00  0.00    +0.000 A 
ATOM     16  C   UNL     1      -1.168   1.239   0.301  0.00  0.00    +0.000 A 
ATOM     17  C   UNL     1       0.228   1.290   0.329  0.00  0.00    +0.000 A 
ENDBRANCH   2  12
TORSDOF 2
