REMARK  Name = *****
REMARK  4 active torsions:
REMARK  status: ('A' for Active; 'I' for Inactive)
REMARK    1  A    between atoms: C_1  and  S_2
REMARK    2  A    between atoms: S_2  and  C_4
REMARK    3  A    between atoms: C_4  and  C_12
REMARK    4  A    between atoms: C_5  and  C_6
REMARK                            x       y       z     vdW  Elec       q    Type
REMARK                         _______ _______ _______ _____ _____    ______ ____
ROOT
ATOM      1  C   UNL     1       3.534  -1.433   1.030  0.00  0.00    +0.000 C 
ATOM      2  C   UNL     1       2.573  -2.006   1.780  0.00  0.00    +0.000 C 
ENDROOT
BRANCH   2   3
ATOM      3  C   UNL     1       1.125  -1.976   1.547  0.00  0.00    +0.000 A 
ATOM      4  C   UNL     1       0.556  -2.625   0.445  0.00  0.00    +0.000 A 
ATOM      5  C   UNL     1      -0.825  -2.591   0.244  0.00  0.00    +0.000 A 
ATOM      6  C   UNL     1      -1.645  -1.918   1.148  0.00  0.00    +0.000 A 
ATOM      7  C   UNL     1      -1.087  -1.282   2.256  0.00  0.00    +0.000 A 
ATOM      8  C   UNL     1       0.294  -1.315   2.458  0.00  0.00    +0.000 A 
ENDBRANCH   2   3
BRANCH   1   9
ATOM      9  C   UNL     1       4.945  -1.655   1.399  0.00  0.00    +0.000 A 
ATOM     10  C   UNL     1       5.793  -2.406   0.575  0.00  0.00    +0.000 A 
ATOM     11  C   UNL     1       7.121  -2.633   0.942  0.00  0.00    +0.000 A 
ATOM     12  C   UNL     1       7.614  -2.116   2.138  0.00  0.00    +0.000 A 
ATOM     13  C   UNL     1       6.781  -1.368   2.968  0.00  0.00    +0.000 A 
ATOM     14  C   UNL     1       5.452  -1.138   2.601  0.00  0.00    +0.000 A 
ENDBRANCH   1   9
BRANCH   1  16
ATOM     15  C   UNL     1       2.637   1.033   0.358  0.00  0.00    +0.000 C 
ATOM     16  S   UNL     1       3.132  -0.508  -0.455  0.00  0.00    +0.000 S 
ATOM     17  O   UNL     1       4.416  -0.226  -1.179  0.00  0.00    +0.000 OA
ENDBRANCH   1  16
TORSDOF 3
