REMARK  Name = *****
REMARK  1 active torsions:
REMARK  status: ('A' for Active; 'I' for Inactive)
REMARK    1  A    between atoms: C_4  and  C_6
REMARK                            x       y       z     vdW  Elec       q    Type
REMARK                         _______ _______ _______ _____ _____    ______ ____
ROOT
ATOM      1  C   UNL     1      -1.888   1.879   0.143  0.00  0.00    +0.000 A 
ATOM      2  C   UNL     1      -2.761   2.137   1.187  0.00  0.00    +0.000 A 
ATOM      3  C   UNL     1      -3.591   3.291   0.994  0.00  0.00    +0.000 A 
ATOM      4  C   UNL     1      -4.586   3.862   1.825  0.00  0.00    +0.000 A 
ATOM      5  C   UNL     1      -5.274   5.008   1.419  0.00  0.00    +0.000 A 
ATOM      6  C   UNL     1      -4.990   5.599   0.195  0.00  0.00    +0.000 A 
ATOM      7  C   UNL     1      -4.014   5.057  -0.644  0.00  0.00    +0.000 A 
ATOM      8  C   UNL     1      -3.323   3.901  -0.230  0.00  0.00    +0.000 A 
ATOM      9  S   UNL     1      -2.096   3.062  -1.089  0.00  0.00    +0.000 S 
ENDROOT
BRANCH   1  13
ATOM     10  C   UNL     1       0.438  -0.908  -0.909  0.00  0.00    +0.000 C 
ATOM     11  C   UNL     1       0.480  -0.957   0.612  0.00  0.00    +0.000 C 
ATOM     12  C   UNL     1      -0.557   0.045   1.001  0.00  0.00    +0.000 C 
ATOM     13  C   UNL     1      -0.923   0.837  -0.022  0.00  0.00    +0.000 C 
ATOM     14  C   UNL     1      -0.149   0.456  -1.261  0.00  0.00    +0.000 C 
ENDBRANCH   1  13
TORSDOF 1
