REMARK  Name = *****
REMARK  2 active torsions:
REMARK  status: ('A' for Active; 'I' for Inactive)
REMARK    1  A    between atoms: C_4  and  N_7
REMARK    2  A    between atoms: C_8  and  C_9
REMARK                            x       y       z     vdW  Elec       q    Type
REMARK                         _______ _______ _______ _____ _____    ______ ____
ROOT
ATOM      1  N   UNL     1      -2.705   0.600  -0.488  0.00  0.00    +0.000 NA
ATOM      2  C   UNL     1      -3.582  -0.305  -0.175  0.00  0.00    +0.000 C 
ENDROOT
BRANCH   2   3
ATOM      3  C   UNL     1      -5.031  -0.090  -0.404  0.00  0.00    +0.000 A 
ATOM      4  C   UNL     1      -5.986  -1.073  -0.097  0.00  0.00    +0.000 A 
ATOM      5  C   UNL     1      -7.344  -0.802  -0.339  0.00  0.00    +0.000 A 
ATOM      6  C   UNL     1      -7.740   0.428  -0.876  0.00  0.00    +0.000 A 
ATOM      7  C   UNL     1      -6.790   1.399  -1.179  0.00  0.00    +0.000 A 
ATOM      8  C   UNL     1      -5.441   1.141  -0.944  0.00  0.00    +0.000 A 
ATOM      9 CL   UNL     1      -8.598  -1.946   0.004  0.00  0.00    +0.000 Cl
ATOM     10 CL   UNL     1      -5.514  -2.606   0.568  0.00  0.00    +0.000 Cl
ENDBRANCH   2   3
BRANCH   1  14
ATOM     11  C   UNL     1       1.311  -0.346   0.307  0.00  0.00    +0.000 A 
ATOM     12  C   UNL     1       0.722  -0.757  -0.889  0.00  0.00    +0.000 A 
ATOM     13  C   UNL     1      -0.612  -0.443  -1.153  0.00  0.00    +0.000 A 
ATOM     14  C   UNL     1      -1.368   0.273  -0.221  0.00  0.00    +0.000 A 
ATOM     15  C   UNL     1      -0.767   0.695   0.968  0.00  0.00    +0.000 A 
ATOM     16  C   UNL     1       0.567   0.383   1.234  0.00  0.00    +0.000 A 
ENDBRANCH   1  14
TORSDOF 2
