REMARK  Name = *****
REMARK  2 active torsions:
REMARK  status: ('A' for Active; 'I' for Inactive)
REMARK    1  A    between atoms: C_3  and  C_9
REMARK    2  A    between atoms: N_10  and  C_11
REMARK                            x       y       z     vdW  Elec       q    Type
REMARK                         _______ _______ _______ _____ _____    ______ ____
ROOT
ATOM      1  C   UNL     1      -2.469   2.691  -0.003  0.00  0.00    +0.000 C 
ATOM      2  N   UNL     1      -2.118   3.733  -0.688  0.00  0.00    +0.000 NA
ENDROOT
BRANCH   1   5
ATOM      3  C   UNL     1      -1.968  -0.165  -2.428  0.00  0.00    +0.000 A 
ATOM      4  C   UNL     1      -1.986   1.128  -1.897  0.00  0.00    +0.000 A 
ATOM      5  C   UNL     1      -2.440   1.340  -0.589  0.00  0.00    +0.000 A 
ATOM      6  C   UNL     1      -2.872   0.264   0.181  0.00  0.00    +0.000 A 
ATOM      7  C   UNL     1      -2.851  -1.019  -0.354  0.00  0.00    +0.000 A 
ATOM      8  C   UNL     1      -2.402  -1.242  -1.653  0.00  0.00    +0.000 A 
ATOM      9  F   UNL     1      -3.268  -2.059   0.381  0.00  0.00    +0.000 F 
ATOM     10  F   UNL     1      -3.312   0.452   1.434  0.00  0.00    +0.000 F 
ENDBRANCH   1   5
BRANCH   2  11
ATOM     11  C   UNL     1      -2.162   4.977  -0.032  0.00  0.00    +0.000 A 
ATOM     12  C   UNL     1      -1.443   5.253   1.143  0.00  0.00    +0.000 A 
ATOM     13  C   UNL     1      -1.487   6.506   1.745  0.00  0.00    +0.000 A 
ATOM     14  C   UNL     1      -2.253   7.504   1.159  0.00  0.00    +0.000 A 
ATOM     15  C   UNL     1      -2.966   7.268  -0.012  0.00  0.00    +0.000 A 
ATOM     16  C   UNL     1      -2.915   6.005  -0.609  0.00  0.00    +0.000 A 
ATOM     17  F   UNL     1      -2.304   8.715   1.727  0.00  0.00    +0.000 F 
ATOM     18  F   UNL     1      -0.696   4.295   1.716  0.00  0.00    +0.000 F 
ENDBRANCH   2  11
TORSDOF 2
