REMARK  Name = *****
REMARK  2 active torsions:
REMARK  status: ('A' for Active; 'I' for Inactive)
REMARK    1  A    between atoms: C_4  and  C_7
REMARK    2  A    between atoms: C_7  and  N_8
REMARK                            x       y       z     vdW  Elec       q    Type
REMARK                         _______ _______ _______ _____ _____    ______ ____
ROOT
ATOM      1  N   UNL     1      -4.674  -0.965  -0.636  0.00  0.00    +0.000 N 
ATOM      2  C   UNL     1      -5.177  -1.350   0.582  0.00  0.00    +0.000 A 
ATOM      3  C   UNL     1      -5.055  -0.856   1.886  0.00  0.00    +0.000 A 
ATOM      4  C   UNL     1      -5.737  -1.562   2.878  0.00  0.00    +0.000 A 
ATOM      5  C   UNL     1      -6.494  -2.694   2.582  0.00  0.00    +0.000 A 
ATOM      6  C   UNL     1      -6.605  -3.174   1.277  0.00  0.00    +0.000 A 
ATOM      7  C   UNL     1      -5.928  -2.480   0.266  0.00  0.00    +0.000 A 
ATOM      8  N   UNL     1      -5.861  -2.714  -1.080  0.00  0.00    +0.000 NA
ATOM      9  N   UNL     1      -5.098  -1.777  -1.626  0.00  0.00    +0.000 NA
ATOM     10  F   UNL     1      -7.134  -3.341   3.566  0.00  0.00    +0.000 F 
ATOM     11  F   UNL     1      -5.654  -1.131   4.145  0.00  0.00    +0.000 F 
ENDROOT
BRANCH   1  12
ATOM     12  C   UNL     1      -3.838   0.181  -0.947  0.00  0.00    +0.000 C 
BRANCH  12  16
ATOM     13  C   UNL     1       0.207  -0.289   0.483  0.00  0.00    +0.000 A 
ATOM     14  C   UNL     1      -0.323  -1.207  -0.421  0.00  0.00    +0.000 A 
ATOM     15  C   UNL     1      -1.630  -1.057  -0.886  0.00  0.00    +0.000 A 
ATOM     16  C   UNL     1      -2.426   0.011  -0.443  0.00  0.00    +0.000 A 
ATOM     17  C   UNL     1      -1.877   0.935   0.459  0.00  0.00    +0.000 A 
ATOM     18  C   UNL     1      -0.569   0.783   0.921  0.00  0.00    +0.000 A 
ENDBRANCH  12  16
ENDBRANCH   1  12
TORSDOF 2
