REMARK  Name = *****
REMARK  3 active torsions:
REMARK  status: ('A' for Active; 'I' for Inactive)
REMARK    1  A    between atoms: C_5  and  C_8
REMARK    2  A    between atoms: C_8  and  C_9
REMARK    3  A    between atoms: C_9  and  C_11
REMARK                            x       y       z     vdW  Elec       q    Type
REMARK                         _______ _______ _______ _____ _____    ______ ____
ROOT
ATOM      1  C   UNL     1       2.013  -2.393  -0.629  0.00  0.00    +0.000 C 
ENDROOT
BRANCH   1   6
ATOM      2  C   UNL     1      -1.651   0.724   0.177  0.00  0.00    +0.000 C 
ATOM      3  C   UNL     1      -0.442   1.515  -0.336  0.00  0.00    +0.000 C 
ATOM      4  C   UNL     1       0.782   1.448   0.578  0.00  0.00    +0.000 C 
ATOM      5  S   UNL     1       2.063   0.218   0.159  0.00  0.00    +0.000 S 
ATOM      6  C   UNL     1       1.071  -1.198  -0.439  0.00  0.00    +0.000 C 
ATOM      7  S   UNL     1      -0.234  -1.626   0.767  0.00  0.00    +0.000 S 
ATOM      8  C   UNL     1      -1.626  -0.786  -0.039  0.00  0.00    +0.000 C 
ENDBRANCH   1   6
BRANCH   1   9
ATOM      9  C   UNL     1       1.356  -3.496  -1.441  0.00  0.00    +0.000 C 
ATOM     10  O   UNL     1       0.434  -3.269  -2.223  0.00  0.00    +0.000 OA
BRANCH   9  11
ATOM     11  C   UNL     1       1.881  -4.888  -1.322  0.00  0.00    +0.000 A 
ATOM     12  C   UNL     1       3.131  -5.171  -0.757  0.00  0.00    +0.000 A 
ATOM     13  C   UNL     1       3.580  -6.492  -0.676  0.00  0.00    +0.000 A 
ATOM     14  C   UNL     1       2.790  -7.533  -1.161  0.00  0.00    +0.000 A 
ATOM     15  C   UNL     1       1.549  -7.258  -1.732  0.00  0.00    +0.000 A 
ATOM     16  C   UNL     1       1.096  -5.940  -1.815  0.00  0.00    +0.000 A 
ENDBRANCH   9  11
ENDBRANCH   1   9
TORSDOF 3
