REMARK  Name = *****
REMARK  4 active torsions:
REMARK  status: ('A' for Active; 'I' for Inactive)
REMARK    1  A    between atoms: C_1  and  O_2
REMARK    2  A    between atoms: O_2  and  C_3
REMARK    3  A    between atoms: C_6  and  C_9
REMARK    4  A    between atoms: C_9  and  C_10
REMARK                            x       y       z     vdW  Elec       q    Type
REMARK                         _______ _______ _______ _____ _____    ______ ____
ROOT
ATOM      1  C   UNL     1       2.659  -1.512  -0.434  0.00  0.00    +0.000 A 
ATOM      2  C   UNL     1       2.369  -2.861  -0.227  0.00  0.00    +0.000 A 
ATOM      3  C   UNL     1       3.191  -3.850  -0.780  0.00  0.00    +0.000 A 
ATOM      4  C   UNL     1       4.315  -3.505  -1.541  0.00  0.00    +0.000 A 
ATOM      5  C   UNL     1       4.596  -2.149  -1.751  0.00  0.00    +0.000 A 
ATOM      6  C   UNL     1       3.774  -1.164  -1.198  0.00  0.00    +0.000 A 
ENDROOT
BRANCH   1   8
ATOM      7  C   UNL     1       0.786  -0.755   0.819  0.00  0.00    +0.000 C 
ATOM      8  O   UNL     1       1.941  -0.451   0.047  0.00  0.00    +0.000 OA
ENDBRANCH   1   8
BRANCH   4   9
ATOM      9  C   UNL     1       5.193  -4.571  -2.152  0.00  0.00    +0.000 C 
BRANCH   9  10
ATOM     10  C   UNL     1       4.857  -4.822  -3.596  0.00  0.00    +0.000 C 
ATOM     11  C   UNL     1       5.610  -4.567  -4.685  0.00  0.00    +0.000 C 
ATOM     12  C   UNL     1       6.979  -3.927  -4.680  0.00  0.00    +0.000 C 
ATOM     13  C   UNL     1       7.007  -2.692  -5.582  0.00  0.00    +0.000 C 
ATOM     14  C   UNL     1       6.511  -3.005  -6.994  0.00  0.00    +0.000 C 
ATOM     15  C   UNL     1       5.128  -3.655  -6.970  0.00  0.00    +0.000 C 
ATOM     16  C   UNL     1       5.101  -4.892  -6.073  0.00  0.00    +0.000 C 
ENDBRANCH   9  10
ENDBRANCH   4   9
TORSDOF 3
