REMARK  Name = *****
REMARK  5 active torsions:
REMARK  status: ('A' for Active; 'I' for Inactive)
REMARK    1  A    between atoms: C_1  and  C_2
REMARK    2  A    between atoms: C_5  and  C_8
REMARK    3  A    between atoms: C_9  and  C_10
REMARK    4  A    between atoms: C_15  and  C_16
REMARK    5  A    between atoms: C_16  and  C_18
REMARK                            x       y       z     vdW  Elec       q    Type
REMARK                         _______ _______ _______ _____ _____    ______ ____
ROOT
ATOM      1  C   UNL     1       6.658   0.117  -0.807  0.00  0.00    +0.000 C 
ATOM      2  C   UNL     1       7.833   0.106  -1.055  0.00  0.00    +0.000 C 
ENDROOT
BRANCH   1   7
ATOM      3  C   UNL     1       1.038   0.099   0.342  0.00  0.00    +0.000 C 
ATOM      4  C   UNL     1       2.513   0.114   0.069  0.00  0.00    +0.000 A 
ATOM      5  C   UNL     1       3.117   1.243  -0.497  0.00  0.00    +0.000 A 
ATOM      6  C   UNL     1       4.485   1.246  -0.782  0.00  0.00    +0.000 A 
ATOM      7  C   UNL     1       5.259   0.116  -0.513  0.00  0.00    +0.000 A 
ATOM      8  C   UNL     1       4.661  -1.018   0.038  0.00  0.00    +0.000 A 
ATOM      9  C   UNL     1       3.293  -1.021   0.322  0.00  0.00    +0.000 A 
ENDBRANCH   1   7
BRANCH   2  10
ATOM     10  C   UNL     1       9.237   0.103  -1.344  0.00  0.00    +0.000 A 
ATOM     11  C   UNL     1       9.897   1.338  -1.398  0.00  0.00    +0.000 A 
ATOM     12  C   UNL     1      11.276   1.400  -1.614  0.00  0.00    +0.000 A 
ATOM     13  C   UNL     1      12.011   0.227  -1.767  0.00  0.00    +0.000 A 
ATOM     14  C   UNL     1      11.365  -1.008  -1.716  0.00  0.00    +0.000 A 
ATOM     15  C   UNL     1       9.976  -1.076  -1.522  0.00  0.00    +0.000 A 
BRANCH  15  16
ATOM     16  C   UNL     1       9.375  -2.433  -1.500  0.00  0.00    +0.000 C 
ATOM     17  O   UNL     1       9.925  -3.322  -0.852  0.00  0.00    +0.000 OA
ATOM     18  C   UNL     1       8.148  -2.704  -2.328  0.00  0.00    +0.000 C 
ENDBRANCH  15  16
ENDBRANCH   2  10
TORSDOF 3
