REMARK  Name = *****
REMARK  4 active torsions:
REMARK  status: ('A' for Active; 'I' for Inactive)
REMARK    1  A    between atoms: C_1  and  C_2
REMARK    2  A    between atoms: C_5  and  O_8
REMARK    3  A    between atoms: O_8  and  C_9
REMARK    4  A    between atoms: C_9  and  C_11
REMARK                            x       y       z     vdW  Elec       q    Type
REMARK                         _______ _______ _______ _____ _____    ______ ____
ROOT
ATOM      1  C   UNL     1      -3.914   1.016  -0.374  0.00  0.00    +0.000 C 
ATOM      2  O   UNL     1      -3.455   1.939  -1.028  0.00  0.00    +0.000 OA
ENDROOT
BRANCH   1   3
ATOM      3  C   UNL     1      -5.378   0.824  -0.160  0.00  0.00    +0.000 A 
ATOM      4  C   UNL     1      -6.255   1.751  -0.744  0.00  0.00    +0.000 A 
ATOM      5  C   UNL     1      -7.637   1.621  -0.577  0.00  0.00    +0.000 A 
ATOM      6  C   UNL     1      -8.146   0.564   0.174  0.00  0.00    +0.000 A 
ATOM      7  C   UNL     1      -7.286  -0.364   0.760  0.00  0.00    +0.000 A 
ATOM      8  C   UNL     1      -5.903  -0.236   0.595  0.00  0.00    +0.000 A 
ATOM      9 CL   UNL     1      -9.846   0.402   0.381  0.00  0.00    +0.000 Cl
ENDBRANCH   1   3
BRANCH   1  10
ATOM     10  O   UNL     1      -3.216   0.009   0.266  0.00  0.00    +0.000 OA
BRANCH  10  15
ATOM     11  C   UNL     1       2.467   0.028   0.015  0.00  0.00    +0.000 C 
ATOM     12  C   UNL     1       0.967   0.051   0.051  0.00  0.00    +0.000 A 
ATOM     13  C   UNL     1       0.290   1.134   0.630  0.00  0.00    +0.000 A 
ATOM     14  C   UNL     1      -1.104   1.145   0.694  0.00  0.00    +0.000 A 
ATOM     15  C   UNL     1      -1.820   0.072   0.169  0.00  0.00    +0.000 A 
ATOM     16  C   UNL     1      -1.165  -1.029  -0.378  0.00  0.00    +0.000 A 
ATOM     17  C   UNL     1       0.229  -1.037  -0.437  0.00  0.00    +0.000 A 
ENDBRANCH  10  15
ENDBRANCH   1  10
TORSDOF 3
