REMARK  Name = *****
REMARK  3 active torsions:
REMARK  status: ('A' for Active; 'I' for Inactive)
REMARK    1  A    between atoms: C_1  and  C_2
REMARK    2  A    between atoms: C_5  and  C_8
REMARK    3  A    between atoms: C_9  and  C_10
REMARK                            x       y       z     vdW  Elec       q    Type
REMARK                         _______ _______ _______ _____ _____    ______ ____
ROOT
ATOM      1  C   UNL     1      11.324   0.057   0.895  0.00  0.00    +0.000 C 
ATOM      2  C   UNL     1      10.472   0.041   0.048  0.00  0.00    +0.000 C 
ENDROOT
BRANCH   1   7
ATOM      3  C   UNL     1      15.419   0.132   4.912  0.00  0.00    +0.000 C 
ATOM      4  C   UNL     1      14.331   0.106   3.879  0.00  0.00    +0.000 A 
ATOM      5  C   UNL     1      13.875  -1.108   3.352  0.00  0.00    +0.000 A 
ATOM      6  C   UNL     1      12.881  -1.124   2.370  0.00  0.00    +0.000 A 
ATOM      7  C   UNL     1      12.341   0.074   1.900  0.00  0.00    +0.000 A 
ATOM      8  C   UNL     1      12.801   1.289   2.411  0.00  0.00    +0.000 A 
ATOM      9  C   UNL     1      13.794   1.305   3.393  0.00  0.00    +0.000 A 
ENDBRANCH   1   7
BRANCH   2  10
ATOM     10  C   UNL     1       9.424   0.027  -0.990  0.00  0.00    +0.000 C 
ATOM     11  C   UNL     1       9.412   1.345  -1.784  0.00  0.00    +0.000 C 
ATOM     12  C   UNL     1      10.495   1.377  -2.865  0.00  0.00    +0.000 C 
ATOM     13  C   UNL     1      10.352   0.204  -3.837  0.00  0.00    +0.000 C 
ATOM     14  C   UNL     1      10.034  -1.094  -3.155  0.00  0.00    +0.000 C 
ATOM     15  C   UNL     1       9.637  -1.174  -1.875  0.00  0.00    +0.000 C 
ENDBRANCH   2  10
TORSDOF 2
