REMARK  Name = *****
REMARK  6 active torsions:
REMARK  status: ('A' for Active; 'I' for Inactive)
REMARK    1  A    between atoms: C_1  and  C_2
REMARK    2  A    between atoms: N_5  and  C_9
REMARK    3  A    between atoms: C_9  and  C_10
REMARK    4  A    between atoms: C_9  and  C_17
REMARK    5  A    between atoms: C_10  and  C_11
REMARK    6  A    between atoms: C_17  and  C_19
REMARK                            x       y       z     vdW  Elec       q    Type
REMARK                         _______ _______ _______ _____ _____    ______ ____
ROOT
ATOM      1  C   UNL     1       4.887  -1.549   2.154  0.00  0.00    +0.000 C 
ENDROOT
BRANCH   1   6
ATOM      2  C   UNL     1       3.038   0.241  -2.077  0.00  0.00    +0.000 C 
ATOM      3  C   UNL     1       2.820   0.033  -0.589  0.00  0.00    +0.000 C 
ATOM      4  C   UNL     1       3.787  -0.966   0.015  0.00  0.00    +0.000 C 
ATOM      5  O   UNL     1       4.266  -1.899  -0.622  0.00  0.00    +0.000 OA
ATOM      6  N   UNL     1       4.062  -0.646   1.331  0.00  0.00    +0.000 N 
ATOM      7  C   UNL     1       4.198   0.709   1.452  0.00  0.00    +0.000 C 
ATOM      8  O   UNL     1       5.004   1.329   2.124  0.00  0.00    +0.000 OA
ATOM      9  S   UNL     1       3.125   1.547   0.345  0.00  0.00    +0.000 S 
ENDBRANCH   1   6
BRANCH   1  10
ATOM     10  C   UNL     1       4.380  -2.999   2.056  0.00  0.00    +0.000 C 
ATOM     11  C   UNL     1       3.082  -3.357   2.057  0.00  0.00    +0.000 C 
ATOM     12  C   UNL     1       5.458  -4.042   1.920  0.00  0.00    +0.000 C 
ENDBRANCH   1  10
BRANCH   1  13
ATOM     13  C   UNL     1       5.074  -1.159   3.656  0.00  0.00    +0.000 C 
BRANCH  13  14
ATOM     14  C   UNL     1       3.821  -1.007   4.497  0.00  0.00    +0.000 A 
ATOM     15  C   UNL     1       3.249  -2.119   5.133  0.00  0.00    +0.000 A 
ATOM     16  C   UNL     1       2.089  -1.987   5.900  0.00  0.00    +0.000 A 
ATOM     17  C   UNL     1       1.494  -0.738   6.053  0.00  0.00    +0.000 A 
ATOM     18  C   UNL     1       2.065   0.380   5.451  0.00  0.00    +0.000 A 
ATOM     19  C   UNL     1       3.224   0.247   4.684  0.00  0.00    +0.000 A 
ENDBRANCH  13  14
ENDBRANCH   1  13
TORSDOF 4
