REMARK  Name = *****
REMARK  3 active torsions:
REMARK  status: ('A' for Active; 'I' for Inactive)
REMARK    1  A    between atoms: C_1  and  C_2
REMARK    2  A    between atoms: C_7  and  C_8
REMARK    3  A    between atoms: C_9  and  C_10
REMARK                            x       y       z     vdW  Elec       q    Type
REMARK                         _______ _______ _______ _____ _____    ______ ____
ROOT
ATOM      1  C   UNL     1       2.414  -2.572  -0.316  0.00  0.00    +0.000 C 
ATOM      2  C   UNL     1       1.846  -3.630  -0.376  0.00  0.00    +0.000 C 
ENDROOT
BRANCH   1   9
ATOM      3  C   UNL     1       0.877  -0.077  -0.039  0.00  0.00    +0.000 C 
ATOM      4  C   UNL     1       2.379  -0.104  -0.115  0.00  0.00    +0.000 A 
ATOM      5  C   UNL     1       3.096   1.102  -0.053  0.00  0.00    +0.000 A 
ATOM      6  C   UNL     1       4.491   1.107  -0.121  0.00  0.00    +0.000 A 
ATOM      7  C   UNL     1       5.187  -0.092  -0.250  0.00  0.00    +0.000 A 
ATOM      8  C   UNL     1       4.488  -1.297  -0.313  0.00  0.00    +0.000 A 
ATOM      9  C   UNL     1       3.090  -1.310  -0.246  0.00  0.00    +0.000 A 
ENDBRANCH   1   9
BRANCH   2  10
ATOM     10  C   UNL     1       1.165  -4.885  -0.450  0.00  0.00    +0.000 A 
ATOM     11  C   UNL     1       1.838  -6.066  -0.127  0.00  0.00    +0.000 A 
ATOM     12  C   UNL     1       1.172  -7.292  -0.201  0.00  0.00    +0.000 A 
ATOM     13  C   UNL     1      -0.164  -7.337  -0.598  0.00  0.00    +0.000 A 
ATOM     14  C   UNL     1      -0.837  -6.159  -0.921  0.00  0.00    +0.000 A 
ATOM     15  C   UNL     1      -0.173  -4.933  -0.847  0.00  0.00    +0.000 A 
ENDBRANCH   2  10
TORSDOF 2
