REMARK  Name = *****
REMARK  1 active torsions:
REMARK  status: ('A' for Active; 'I' for Inactive)
REMARK    1  A    between atoms: P_9  and  C_11
REMARK                            x       y       z     vdW  Elec       q    Type
REMARK                         _______ _______ _______ _____ _____    ______ ____
ROOT
ATOM      1  C   UNL     1       2.465   0.032   0.511  0.00  0.00    +0.000 C 
ATOM      2  C   UNL     1       1.660   1.319   0.671  0.00  0.00    +0.000 C 
ATOM      3  C   UNL     1       0.593   1.527  -0.402  0.00  0.00    +0.000 C 
ATOM      4  C   UNL     1      -0.632   0.668  -0.235  0.00  0.00    +0.000 C 
ATOM      5  C   UNL     1      -0.627  -0.674  -0.191  0.00  0.00    +0.000 C 
ATOM      6  C   UNL     1       0.605  -1.533  -0.302  0.00  0.00    +0.000 C 
ATOM      7  C   UNL     1       1.669  -1.248   0.755  0.00  0.00    +0.000 C 
ATOM      8  C   UNL     1      -1.927  -1.397  -0.060  0.00  0.00    +0.000 C 
ATOM      9  P   UNL     1      -3.098  -0.006  -0.038  0.00  0.00    +0.000 P 
ATOM     10  C   UNL     1      -1.938   1.389  -0.152  0.00  0.00    +0.000 C 
ENDROOT
BRANCH   9  11
ATOM     11  C   UNL     1      -3.611   0.044   1.708  0.00  0.00    +0.000 A 
ATOM     12  C   UNL     1      -2.707   0.106   2.778  0.00  0.00    +0.000 A 
ATOM     13  C   UNL     1      -3.163   0.141   4.099  0.00  0.00    +0.000 A 
ATOM     14  C   UNL     1      -4.529   0.115   4.368  0.00  0.00    +0.000 A 
ATOM     15  C   UNL     1      -5.440   0.052   3.318  0.00  0.00    +0.000 A 
ATOM     16  C   UNL     1      -4.983   0.018   1.997  0.00  0.00    +0.000 A 
ENDBRANCH   9  11
TORSDOF 1
