REMARK  Name = *****
REMARK  3 active torsions:
REMARK  status: ('A' for Active; 'I' for Inactive)
REMARK    1  A    between atoms: C_2  and  C_3
REMARK    2  A    between atoms: C_5  and  C_9
REMARK    3  A    between atoms: C_10  and  C_11
REMARK                            x       y       z     vdW  Elec       q    Type
REMARK                         _______ _______ _______ _____ _____    ______ ____
ROOT
ATOM      1  C   UNL     1       3.098  -1.394   0.106  0.00  0.00    +0.000 A 
ATOM      2  C   UNL     1       4.223  -1.409   0.944  0.00  0.00    +0.000 A 
ATOM      3  C   UNL     1       4.967  -2.580   1.117  0.00  0.00    +0.000 A 
ATOM      4  C   UNL     1       4.599  -3.746   0.445  0.00  0.00    +0.000 A 
ATOM      5  C   UNL     1       3.492  -3.739  -0.403  0.00  0.00    +0.000 A 
ATOM      6  C   UNL     1       2.750  -2.568  -0.575  0.00  0.00    +0.000 A 
ENDROOT
BRANCH   1   8
ATOM      7  C   UNL     1       1.046  -0.043  -0.286  0.00  0.00    +0.000 C 
ATOM      8  C   UNL     1       2.365  -0.133  -0.072  0.00  0.00    +0.000 C 
ENDBRANCH   1   8
BRANCH   3   9
ATOM      9  C   UNL     1       6.107  -2.582   1.981  0.00  0.00    +0.000 C 
ATOM     10  C   UNL     1       7.065  -2.580   2.706  0.00  0.00    +0.000 C 
BRANCH  10  11
ATOM     11  C   UNL     1       8.207  -2.575   3.568  0.00  0.00    +0.000 A 
ATOM     12  C   UNL     1       8.536  -1.423   4.286  0.00  0.00    +0.000 A 
ATOM     13  C   UNL     1       9.651  -1.419   5.127  0.00  0.00    +0.000 A 
ATOM     14  C   UNL     1      10.437  -2.564   5.250  0.00  0.00    +0.000 A 
ATOM     15  C   UNL     1      10.110  -3.715   4.533  0.00  0.00    +0.000 A 
ATOM     16  C   UNL     1       8.995  -3.722   3.692  0.00  0.00    +0.000 A 
ENDBRANCH  10  11
ENDBRANCH   3   9
TORSDOF 3
