REMARK  Name = *****
REMARK  6 active torsions:
REMARK  status: ('A' for Active; 'I' for Inactive)
REMARK    1  A    between atoms: C_1  and  N_2
REMARK    2  A    between atoms: N_2  and  C_3
REMARK    3  A    between atoms: N_2  and  S_11
REMARK    4  A    between atoms: C_6  and  O_9
REMARK    5  A    between atoms: O_9  and  C_10
REMARK    6  A    between atoms: S_11  and  C_12
REMARK                            x       y       z     vdW  Elec       q    Type
REMARK                         _______ _______ _______ _____ _____    ______ ____
ROOT
ATOM      1  C   UNL     1       1.326  -0.042  -0.252  0.00  0.00    +0.000 C 
ATOM      2  N   UNL     1       2.758   0.244  -0.153  0.00  0.00    +0.000 N 
ENDROOT
BRANCH   2   3
ATOM      3  C   UNL     1       3.391   0.054   1.100  0.00  0.00    +0.000 A 
ATOM      4  C   UNL     1       2.764  -0.581   2.187  0.00  0.00    +0.000 A 
ATOM      5  C   UNL     1       3.410  -0.752   3.423  0.00  0.00    +0.000 A 
ATOM      6  C   UNL     1       4.704  -0.279   3.612  0.00  0.00    +0.000 A 
ATOM      7  C   UNL     1       5.339   0.372   2.558  0.00  0.00    +0.000 A 
ATOM      8  C   UNL     1       4.694   0.535   1.326  0.00  0.00    +0.000 A 
BRANCH   6   9
ATOM      9  O   UNL     1       5.443  -0.380   4.757  0.00  0.00    +0.000 OA
ATOM     10  C   UNL     1       4.875  -1.130   5.823  0.00  0.00    +0.000 C 
ENDBRANCH   6   9
ENDBRANCH   2   3
BRANCH   2  11
ATOM     11  S   UNL     1       3.655  -0.066  -1.551  0.00  0.00    +0.000 S 
BRANCH  11  12
ATOM     12  C   UNL     1       3.400   1.449  -2.470  0.00  0.00    +0.000 A 
ATOM     13  C   UNL     1       3.294   2.697  -1.846  0.00  0.00    +0.000 A 
ATOM     14  C   UNL     1       3.111   3.856  -2.604  0.00  0.00    +0.000 A 
ATOM     15  C   UNL     1       3.040   3.776  -3.994  0.00  0.00    +0.000 A 
ATOM     16  C   UNL     1       3.153   2.539  -4.626  0.00  0.00    +0.000 A 
ATOM     17  C   UNL     1       3.334   1.381  -3.867  0.00  0.00    +0.000 A 
ENDBRANCH  11  12
ENDBRANCH   2  11
TORSDOF 4
