REMARK  Name = *****
REMARK  4 active torsions:
REMARK  status: ('A' for Active; 'I' for Inactive)
REMARK    1  A    between atoms: C_1  and  C_2
REMARK    2  A    between atoms: C_2  and  C_3
REMARK    3  A    between atoms: C_2  and  O_9
REMARK    4  A    between atoms: O_9  and  C_10
REMARK                            x       y       z     vdW  Elec       q    Type
REMARK                         _______ _______ _______ _____ _____    ______ ____
ROOT
ATOM      1  C   UNL     1       2.453   2.101  -0.671  0.00  0.00    +0.000 C 
ATOM      2  C   UNL     1       2.471   0.637  -0.238  0.00  0.00    +0.000 C 
ENDROOT
BRANCH   2   3
ATOM      3  C   UNL     1       1.059   0.106  -0.079  0.00  0.00    +0.000 A 
ATOM      4  C   UNL     1       0.305  -0.303  -1.190  0.00  0.00    +0.000 A 
ATOM      5  C   UNL     1      -1.002  -0.766  -1.034  0.00  0.00    +0.000 A 
ATOM      6  C   UNL     1      -1.575  -0.822   0.235  0.00  0.00    +0.000 A 
ATOM      7  C   UNL     1      -0.841  -0.415   1.348  0.00  0.00    +0.000 A 
ATOM      8  C   UNL     1       0.467   0.048   1.192  0.00  0.00    +0.000 A 
ENDBRANCH   2   3
BRANCH   2   9
ATOM      9  O   UNL     1       3.152  -0.138  -1.231  0.00  0.00    +0.000 OA
BRANCH   9  10
ATOM     10  C   UNL     1       4.553  -0.299  -0.998  0.00  0.00    +0.000 C 
ATOM     11  C   UNL     1       5.207  -0.600  -2.350  0.00  0.00    +0.000 C 
ATOM     12  C   UNL     1       6.695  -0.900  -2.207  0.00  0.00    +0.000 C 
ATOM     13  C   UNL     1       6.944  -2.032  -1.215  0.00  0.00    +0.000 C 
ATOM     14  C   UNL     1       6.288  -1.754   0.134  0.00  0.00    +0.000 C 
ATOM     15  C   UNL     1       4.800  -1.450  -0.016  0.00  0.00    +0.000 C 
ENDBRANCH   9  10
ENDBRANCH   2   9
TORSDOF 3
