REMARK  Name = *****
REMARK  5 active torsions:
REMARK  status: ('A' for Active; 'I' for Inactive)
REMARK    1  A    between atoms: C_1  and  C_2
REMARK    2  A    between atoms: C_7  and  C_8
REMARK    3  A    between atoms: C_8  and  C_9
REMARK    4  A    between atoms: C_9  and  C_10
REMARK    5  A    between atoms: C_10  and  C_12
REMARK                            x       y       z     vdW  Elec       q    Type
REMARK                         _______ _______ _______ _____ _____    ______ ____
ROOT
ATOM      1  C   UNL     1       3.554  -2.030   0.993  0.00  0.00    +0.000 C 
ATOM      2  O   UNL     1       4.685  -1.600   0.772  0.00  0.00    +0.000 OA
ENDROOT
BRANCH   1   3
ATOM      3  C   UNL     1       3.051  -1.963   2.381  0.00  0.00    +0.000 A 
ATOM      4  C   UNL     1       2.700  -3.096   3.125  0.00  0.00    +0.000 A 
ATOM      5  C   UNL     1       2.229  -2.945   4.432  0.00  0.00    +0.000 A 
ATOM      6  C   UNL     1       2.124  -1.673   4.983  0.00  0.00    +0.000 A 
ATOM      7  C   UNL     1       2.490  -0.543   4.262  0.00  0.00    +0.000 A 
ATOM      8  C   UNL     1       2.964  -0.687   2.959  0.00  0.00    +0.000 A 
ATOM      9  F   UNL     1       1.668  -1.535   6.235  0.00  0.00    +0.000 F 
ATOM     10 CL   UNL     1       2.858  -4.701   2.516  0.00  0.00    +0.000 Cl
ENDBRANCH   1   3
BRANCH   1  11
ATOM     11  C   UNL     1       2.691  -2.607  -0.118  0.00  0.00    +0.000 C 
BRANCH  11  12
ATOM     12  C   UNL     1       1.181  -2.377   0.012  0.00  0.00    +0.000 C 
BRANCH  12  19
ATOM     13  C   UNL     1      -1.104  -1.652   1.831  0.00  0.00    +0.000 C 
ATOM     14  C   UNL     1      -0.344  -0.609   1.056  0.00  0.00    +0.000 A 
ATOM     15  C   UNL     1      -0.715   0.738   1.212  0.00  0.00    +0.000 A 
ATOM     16  C   UNL     1      -0.061   1.748   0.510  0.00  0.00    +0.000 A 
ATOM     17  C   UNL     1       0.969   1.425  -0.363  0.00  0.00    +0.000 A 
ATOM     18  C   UNL     1       1.356   0.094  -0.523  0.00  0.00    +0.000 A 
ATOM     19  C   UNL     1       0.731  -0.940   0.199  0.00  0.00    +0.000 A 
ENDBRANCH  12  19
ENDBRANCH  11  12
ENDBRANCH   1  11
TORSDOF 4
