REMARK  Name = *****
REMARK  6 active torsions:
REMARK  status: ('A' for Active; 'I' for Inactive)
REMARK    1  A    between atoms: C_1  and  C_2
REMARK    2  A    between atoms: C_5  and  C_8
REMARK    3  A    between atoms: C_8  and  P_11
REMARK    4  A    between atoms: P_11  and  C_13
REMARK    5  A    between atoms: P_11  and  O_19
REMARK    6  A    between atoms: O_19  and  C_20
REMARK                            x       y       z     vdW  Elec       q    Type
REMARK                         _______ _______ _______ _____ _____    ______ ____
ROOT
ATOM      1  C   UNL     1      -3.206   0.168   0.169  0.00  0.00    +0.000 C 
ATOM      2  F   UNL     1      -1.852   0.279   0.299  0.00  0.00    +0.000 F 
ATOM      3  F   UNL     1      -3.425  -0.322  -1.086  0.00  0.00    +0.000 F 
ENDROOT
BRANCH   1   8
ATOM      4  C   UNL     1      -5.709  -2.943   4.407  0.00  0.00    +0.000 C 
ATOM      5  C   UNL     1      -5.040  -2.164   3.313  0.00  0.00    +0.000 A 
ATOM      6  C   UNL     1      -4.139  -1.139   3.621  0.00  0.00    +0.000 A 
ATOM      7  C   UNL     1      -3.539  -0.394   2.603  0.00  0.00    +0.000 A 
ATOM      8  C   UNL     1      -3.840  -0.652   1.259  0.00  0.00    +0.000 A 
ATOM      9  C   UNL     1      -4.754  -1.670   0.954  0.00  0.00    +0.000 A 
ATOM     10  C   UNL     1      -5.352  -2.415   1.973  0.00  0.00    +0.000 A 
ENDBRANCH   1   8
BRANCH   1  11
ATOM     11  P   UNL     1      -3.690   1.907  -0.025  0.00  0.00    +0.000 P 
ATOM     12  O   UNL     1      -3.570   2.708   1.256  0.00  0.00    +0.000 OA
BRANCH  11  13
ATOM     13  C   UNL     1      -2.848   2.620  -1.424  0.00  0.00    +0.000 A 
ATOM     14  C   UNL     1      -3.212   2.297  -2.739  0.00  0.00    +0.000 A 
ATOM     15  C   UNL     1      -2.536   2.862  -3.822  0.00  0.00    +0.000 A 
ATOM     16  C   UNL     1      -1.491   3.757  -3.602  0.00  0.00    +0.000 A 
ATOM     17  C   UNL     1      -1.122   4.091  -2.300  0.00  0.00    +0.000 A 
ATOM     18  C   UNL     1      -1.798   3.526  -1.218  0.00  0.00    +0.000 A 
ENDBRANCH  11  13
BRANCH  11  19
ATOM     19  O   UNL     1      -5.253   1.837  -0.500  0.00  0.00    +0.000 OA
ATOM     20  C   UNL     1      -6.250   1.925   0.502  0.00  0.00    +0.000 C 
ENDBRANCH  11  19
ENDBRANCH   1  11
TORSDOF 4
