REMARK  Name = *****
REMARK  5 active torsions:
REMARK  status: ('A' for Active; 'I' for Inactive)
REMARK    1  A    between atoms: C_1  and  C_2
REMARK    2  A    between atoms: C_2  and  C_20
REMARK    3  A    between atoms: C_4  and  C_9
REMARK    4  A    between atoms: C_10  and  C_11
REMARK    5  A    between atoms: C_14  and  N_17
REMARK                            x       y       z     vdW  Elec       q    Type
REMARK                         _______ _______ _______ _____ _____    ______ ____
ROOT
ATOM      1  C   UNL     1      -0.088   3.362   0.282  0.00  0.00    +0.000 C 
ATOM      2  C   UNL     1       0.928   4.180  -0.040  0.00  0.00    +0.000 C 
ENDROOT
BRANCH   1   6
ATOM      3  C   UNL     1       1.367  -0.586   1.443  0.00  0.00    +0.000 C 
ATOM      4  C   UNL     1       1.128  -0.328  -0.060  0.00  0.00    +0.000 C 
ATOM      5  C   UNL     1       1.131   1.191  -0.358  0.00  0.00    +0.000 C 
ATOM      6  C   UNL     1      -0.124   1.915   0.086  0.00  0.00    +0.000 C 
ATOM      7  C   UNL     1      -1.277   1.258   0.309  0.00  0.00    +0.000 C 
ATOM      8  C   UNL     1      -1.396  -0.200   0.074  0.00  0.00    +0.000 C 
ATOM      9  O   UNL     1      -2.472  -0.755   0.286  0.00  0.00    +0.000 OA
ATOM     10  C   UNL     1      -0.211  -0.942  -0.500  0.00  0.00    +0.000 C 
ATOM     11  C   UNL     1       2.272  -0.997  -0.845  0.00  0.00    +0.000 C 
ENDBRANCH   1   6
BRANCH   2  12
ATOM     12  C   UNL     1       0.890   5.633   0.175  0.00  0.00    +0.000 A 
ATOM     13  C   UNL     1       0.441   6.194   1.376  0.00  0.00    +0.000 A 
ATOM     14  C   UNL     1       0.446   7.583   1.560  0.00  0.00    +0.000 A 
ATOM     15  C   UNL     1       0.909   8.445   0.553  0.00  0.00    +0.000 A 
ATOM     16  C   UNL     1       1.371   7.869  -0.641  0.00  0.00    +0.000 A 
ATOM     17  C   UNL     1       1.368   6.482  -0.827  0.00  0.00    +0.000 A 
BRANCH  15  18
ATOM     18  N   UNL     1       0.949   9.861   0.653  0.00  0.00    +0.000 N 
ATOM     19  N   UNL     1      -0.009  10.423   1.430  0.00  0.00    +0.000 NA
ATOM     20  N   UNL     1       1.136  10.358   1.900  0.00  0.00    +0.000 NA
ENDBRANCH  15  18
ENDBRANCH   2  12
TORSDOF 3
