REMARK  Name = *****
REMARK  4 active torsions:
REMARK  status: ('A' for Active; 'I' for Inactive)
REMARK    1  A    between atoms: C_4  and  C_7
REMARK    2  A    between atoms: C_7  and  N_8
REMARK    3  A    between atoms: N_8  and  C_9
REMARK    4  A    between atoms: C_9  and  C_11
REMARK                            x       y       z     vdW  Elec       q    Type
REMARK                         _______ _______ _______ _____ _____    ______ ____
ROOT
ATOM      1  N   UNL     1      -3.908  -0.581  -0.728  0.00  0.00    +0.000 N 
ATOM      2  H   UNL     1      -3.476  -1.374  -1.118  0.00  0.00    +0.000 HD
ENDROOT
BRANCH   1   3
ATOM      3  C   UNL     1      -5.291  -0.597  -0.689  0.00  0.00    +0.000 C 
ATOM      4  S   UNL     1      -6.256   0.567   0.036  0.00  0.00    +0.000 S 
BRANCH   3   5
ATOM      5  C   UNL     1      -5.881  -1.779  -1.380  0.00  0.00    +0.000 A 
ATOM      6  C   UNL     1      -6.767  -2.633  -0.708  0.00  0.00    +0.000 A 
ATOM      7  C   UNL     1      -7.296  -3.743  -1.370  0.00  0.00    +0.000 A 
ATOM      8  C   UNL     1      -6.937  -3.991  -2.692  0.00  0.00    +0.000 A 
ATOM      9  C   UNL     1      -6.058  -3.150  -3.368  0.00  0.00    +0.000 A 
ATOM     10  C   UNL     1      -5.526  -2.039  -2.712  0.00  0.00    +0.000 A 
ATOM     11  F   UNL     1      -7.445  -5.057  -3.323  0.00  0.00    +0.000 F 
ENDBRANCH   3   5
ENDBRANCH   1   3
BRANCH   1  12
ATOM     12  C   UNL     1      -3.017   0.472  -0.261  0.00  0.00    +0.000 C 
BRANCH  12  16
ATOM     13  C   UNL     1      -0.755   1.977  -3.608  0.00  0.00    +0.000 A 
ATOM     14  C   UNL     1      -2.056   2.423  -3.386  0.00  0.00    +0.000 A 
ATOM     15  C   UNL     1      -2.783   1.940  -2.297  0.00  0.00    +0.000 A 
ATOM     16  C   UNL     1      -2.213   1.010  -1.416  0.00  0.00    +0.000 A 
ATOM     17  C   UNL     1      -0.906   0.561  -1.654  0.00  0.00    +0.000 A 
ATOM     18  C   UNL     1      -0.180   1.046  -2.744  0.00  0.00    +0.000 A 
ENDBRANCH  12  16
ENDBRANCH   1  12
TORSDOF 4
