REMARK  Name = *****
REMARK  5 active torsions:
REMARK  status: ('A' for Active; 'I' for Inactive)
REMARK    1  A    between atoms: C_1  and  C_2
REMARK    2  A    between atoms: C_5  and  S_8
REMARK    3  A    between atoms: S_8  and  O_10
REMARK    4  A    between atoms: O_10  and  C_11
REMARK    5  A    between atoms: C_11  and  C_17
REMARK                            x       y       z     vdW  Elec       q    Type
REMARK                         _______ _______ _______ _____ _____    ______ ____
ROOT
ATOM      1  S   UNL     1      -3.290   2.532   1.056  0.00  0.00    +0.000 S 
ATOM      2  O   UNL     1      -3.240   3.959   0.597  0.00  0.00    +0.000 OA
ENDROOT
BRANCH   1   7
ATOM      3  C   UNL     1       2.248   0.374  -0.434  0.00  0.00    +0.000 C 
ATOM      4  C   UNL     1       0.888   0.890  -0.070  0.00  0.00    +0.000 A 
ATOM      5  C   UNL     1       0.534   1.110   1.266  0.00  0.00    +0.000 A 
ATOM      6  C   UNL     1      -0.737   1.593   1.593  0.00  0.00    +0.000 A 
ATOM      7  C   UNL     1      -1.671   1.862   0.587  0.00  0.00    +0.000 A 
ATOM      8  C   UNL     1      -1.316   1.651  -0.750  0.00  0.00    +0.000 A 
ATOM      9  C   UNL     1      -0.049   1.158  -1.075  0.00  0.00    +0.000 A 
ENDBRANCH   1   7
BRANCH   1  10
ATOM     10  O   UNL     1      -4.088   1.701  -0.071  0.00  0.00    +0.000 OA
BRANCH  10  11
ATOM     11  C   UNL     1      -5.525   1.700  -0.028  0.00  0.00    +0.000 C 
ATOM     12  C   UNL     1      -5.966   0.739  -1.160  0.00  0.00    +0.000 C 
ATOM     13  C   UNL     1      -5.595   1.264  -2.550  0.00  0.00    +0.000 C 
ATOM     14  C   UNL     1      -6.155   2.661  -2.793  0.00  0.00    +0.000 C 
ATOM     15  C   UNL     1      -5.754   3.630  -1.686  0.00  0.00    +0.000 C 
ATOM     16  C   UNL     1      -6.136   3.091  -0.306  0.00  0.00    +0.000 C 
BRANCH  11  17
ATOM     17  C   UNL     1      -6.025   1.154   1.260  0.00  0.00    +0.000 C 
ATOM     18  C   UNL     1      -6.435   0.712   2.299  0.00  0.00    +0.000 C 
ENDBRANCH  11  17
ENDBRANCH  10  11
ENDBRANCH   1  10
TORSDOF 4
