REMARK  Name = *****
REMARK  3 active torsions:
REMARK  status: ('A' for Active; 'I' for Inactive)
REMARK    1  A    between atoms: C_5  and  O_8
REMARK    2  A    between atoms: O_8  and  C_9
REMARK    3  A    between atoms: C_9  and  C_11
REMARK                            x       y       z     vdW  Elec       q    Type
REMARK                         _______ _______ _______ _____ _____    ______ ____
ROOT
ATOM      1  O   UNL     1      -2.142   2.037  -0.697  0.00  0.00    +0.000 OA
ENDROOT
BRANCH   1   6
ATOM      2  C   UNL     1       1.594  -0.429   0.198  0.00  0.00    +0.000 C 
ATOM      3  C   UNL     1       0.635  -1.463  -0.389  0.00  0.00    +0.000 C 
ATOM      4  C   UNL     1      -0.781  -1.393   0.178  0.00  0.00    +0.000 C 
ATOM      5  C   UNL     1      -1.588  -0.229  -0.306  0.00  0.00    +0.000 C 
ATOM      6  C   UNL     1      -1.258   1.064  -0.179  0.00  0.00    +0.000 C 
ATOM      7  C   UNL     1       0.019   1.585   0.426  0.00  0.00    +0.000 C 
ATOM      8  C   UNL     1       1.293   1.014  -0.198  0.00  0.00    +0.000 C 
ENDBRANCH   1   6
BRANCH   1   9
ATOM      9  C   UNL     1      -2.722   2.845   0.241  0.00  0.00    +0.000 C 
ATOM     10  O   UNL     1      -2.563   2.803   1.453  0.00  0.00    +0.000 OA
BRANCH   9  11
ATOM     11  C   UNL     1      -3.624   3.827  -0.424  0.00  0.00    +0.000 A 
ATOM     12  C   UNL     1      -3.760   3.908  -1.817  0.00  0.00    +0.000 A 
ATOM     13  C   UNL     1      -4.620   4.852  -2.385  0.00  0.00    +0.000 A 
ATOM     14  C   UNL     1      -5.346   5.718  -1.569  0.00  0.00    +0.000 A 
ATOM     15  C   UNL     1      -5.215   5.645  -0.183  0.00  0.00    +0.000 A 
ATOM     16  C   UNL     1      -4.357   4.704   0.389  0.00  0.00    +0.000 A 
ENDBRANCH   9  11
ENDBRANCH   1   9
TORSDOF 3
