REMARK  Name = *****
REMARK  6 active torsions:
REMARK  status: ('A' for Active; 'I' for Inactive)
REMARK    1  A    between atoms: C_1  and  C_2
REMARK    2  A    between atoms: C_2  and  P_3
REMARK    3  A    between atoms: P_3  and  O_4
REMARK    4  A    between atoms: P_3  and  O_11
REMARK    5  A    between atoms: O_4  and  C_5
REMARK    6  A    between atoms: O_11  and  C_12
REMARK                            x       y       z     vdW  Elec       q    Type
REMARK                         _______ _______ _______ _____ _____    ______ ____
ROOT
ATOM      1  P   UNL     1       2.860   1.336  -1.727  0.00  0.00    +0.000 P 
ENDROOT
BRANCH   1   3
ATOM      2  C   UNL     1       2.867  -1.293  -0.754  0.00  0.00    +0.000 C 
ATOM      3  C   UNL     1       2.534   0.136  -0.358  0.00  0.00    +0.000 C 
ENDBRANCH   1   3
BRANCH   1   4
ATOM      4  O   UNL     1       2.544   2.701  -0.920  0.00  0.00    +0.000 OA
BRANCH   4   5
ATOM      5  C   UNL     1       2.472   3.960  -1.459  0.00  0.00    +0.000 A 
ATOM      6  C   UNL     1       1.760   4.898  -0.706  0.00  0.00    +0.000 A 
ATOM      7  C   UNL     1       1.629   6.213  -1.153  0.00  0.00    +0.000 A 
ATOM      8  C   UNL     1       2.221   6.601  -2.354  0.00  0.00    +0.000 A 
ATOM      9  C   UNL     1       2.944   5.674  -3.103  0.00  0.00    +0.000 A 
ATOM     10  C   UNL     1       3.073   4.356  -2.656  0.00  0.00    +0.000 A 
ENDBRANCH   4   5
ENDBRANCH   1   4
BRANCH   1  11
ATOM     11  O   UNL     1       4.474   1.375  -1.642  0.00  0.00    +0.000 OA
BRANCH  11  12
ATOM     12  C   UNL     1       5.353   0.976  -2.616  0.00  0.00    +0.000 A 
ATOM     13  C   UNL     1       5.000   0.479  -3.873  0.00  0.00    +0.000 A 
ATOM     14  C   UNL     1       5.993   0.108  -4.784  0.00  0.00    +0.000 A 
ATOM     15  C   UNL     1       7.340   0.233  -4.444  0.00  0.00    +0.000 A 
ATOM     16  C   UNL     1       7.697   0.730  -3.193  0.00  0.00    +0.000 A 
ATOM     17  C   UNL     1       6.705   1.101  -2.283  0.00  0.00    +0.000 A 
ENDBRANCH  11  12
ENDBRANCH   1  11
TORSDOF 5
