REMARK  Name = *****
REMARK  4 active torsions:
REMARK  status: ('A' for Active; 'I' for Inactive)
REMARK    1  A    between atoms: C_1  and  C_2
REMARK    2  A    between atoms: C_2  and  C_3
REMARK    3  A    between atoms: C_2  and  C_11
REMARK    4  A    between atoms: C_4  and  C_5
REMARK                            x       y       z     vdW  Elec       q    Type
REMARK                         _______ _______ _______ _____ _____    ______ ____
ROOT
ATOM      1  C   UNL     1       0.347  -0.706  -0.474  0.00  0.00    +0.000 C 
ATOM      2  C   UNL     1       1.781  -0.307  -0.103  0.00  0.00    +0.000 C 
ENDROOT
BRANCH   2   3
ATOM      3  C   UNL     1       2.746  -0.403  -1.277  0.00  0.00    +0.000 A 
ATOM      4  C   UNL     1       3.662   0.639  -1.501  0.00  0.00    +0.000 A 
ATOM      5  C   UNL     1       4.572   0.577  -2.558  0.00  0.00    +0.000 A 
ATOM      6  C   UNL     1       4.586  -0.530  -3.402  0.00  0.00    +0.000 A 
ATOM      7  C   UNL     1       3.694  -1.578  -3.187  0.00  0.00    +0.000 A 
ATOM      8  C   UNL     1       2.783  -1.518  -2.129  0.00  0.00    +0.000 A 
ENDBRANCH   2   3
BRANCH   2   9
ATOM      9  C   UNL     1       2.266  -1.141   1.065  0.00  0.00    +0.000 C 
ATOM     10  C   UNL     1       2.643  -0.701   2.277  0.00  0.00    +0.000 C 
BRANCH  10  11
ATOM     11  C   UNL     1       2.653   0.704   2.682  0.00  0.00    +0.000 A 
ATOM     12  C   UNL     1       1.498   1.296   3.204  0.00  0.00    +0.000 A 
ATOM     13  C   UNL     1       1.508   2.642   3.577  0.00  0.00    +0.000 A 
ATOM     14  C   UNL     1       2.670   3.399   3.428  0.00  0.00    +0.000 A 
ATOM     15  C   UNL     1       3.823   2.812   2.906  0.00  0.00    +0.000 A 
ATOM     16  C   UNL     1       3.815   1.467   2.532  0.00  0.00    +0.000 A 
ENDBRANCH  10  11
ENDBRANCH   2   9
TORSDOF 3
