REMARK  Name = *****
REMARK  5 active torsions:
REMARK  status: ('A' for Active; 'I' for Inactive)
REMARK    1  A    between atoms: C_1  and  C_2
REMARK    2  A    between atoms: C_4  and  O_8
REMARK    3  A    between atoms: O_8  and  C_9
REMARK    4  A    between atoms: C_9  and  C_11
REMARK    5  A    between atoms: C_16  and  C_17
REMARK                            x       y       z     vdW  Elec       q    Type
REMARK                         _______ _______ _______ _____ _____    ______ ____
ROOT
ATOM      1  C   UNL     1      -0.951   3.575   0.293  0.00  0.00    +0.000 C 
ATOM      2  O   UNL     1      -1.115   4.293   1.266  0.00  0.00    +0.000 OA
ENDROOT
BRANCH   1   3
ATOM      3  C   UNL     1       0.017   3.859  -0.803  0.00  0.00    +0.000 A 
ATOM      4  C   UNL     1       0.710   2.790  -1.398  0.00  0.00    +0.000 A 
ATOM      5  C   UNL     1       1.643   3.026  -2.408  0.00  0.00    +0.000 A 
ATOM      6  C   UNL     1       1.896   4.328  -2.827  0.00  0.00    +0.000 A 
ATOM      7  C   UNL     1       1.217   5.397  -2.239  0.00  0.00    +0.000 A 
ATOM      8  C   UNL     1       0.267   5.180  -1.227  0.00  0.00    +0.000 A 
ATOM      9  C   UNL     1      -0.434   6.367  -0.624  0.00  0.00    +0.000 C 
ENDBRANCH   1   3
BRANCH   1  10
ATOM     10  O   UNL     1      -1.626   2.406  -0.019  0.00  0.00    +0.000 OA
BRANCH  10  14
ATOM     11  C   UNL     1      -5.976   3.156   2.222  0.00  0.00    +0.000 C 
ATOM     12  C   UNL     1      -4.735   2.345   1.996  0.00  0.00    +0.000 A 
ATOM     13  C   UNL     1      -3.749   2.789   1.107  0.00  0.00    +0.000 A 
ATOM     14  C   UNL     1      -2.606   2.016   0.901  0.00  0.00    +0.000 A 
ATOM     15  C   UNL     1      -2.447   0.781   1.526  0.00  0.00    +0.000 A 
ATOM     16  C   UNL     1      -3.435   0.328   2.398  0.00  0.00    +0.000 A 
ATOM     17  C   UNL     1      -4.574   1.105   2.631  0.00  0.00    +0.000 A 
ENDBRANCH  10  14
ENDBRANCH   1  10
TORSDOF 3
