REMARK  Name = *****
REMARK  3 active torsions:
REMARK  status: ('A' for Active; 'I' for Inactive)
REMARK    1  A    between atoms: C_4  and  C_7
REMARK    2  A    between atoms: C_7  and  C_15
REMARK    3  A    between atoms: C_8  and  C_9
REMARK                            x       y       z     vdW  Elec       q    Type
REMARK                         _______ _______ _______ _____ _____    ______ ____
ROOT
ATOM      1  C   UNL     1      -2.858   0.337  -0.525  0.00  0.00    +0.000 C 
ATOM      2  C   UNL     1      -3.454   1.484  -0.140  0.00  0.00    +0.000 C 
ENDROOT
BRANCH   1   6
ATOM      3  C   UNL     1       1.317  -0.193   0.285  0.00  0.00    +0.000 A 
ATOM      4  C   UNL     1       0.386  -1.094   0.798  0.00  0.00    +0.000 A 
ATOM      5  C   UNL     1      -0.975  -0.921   0.534  0.00  0.00    +0.000 A 
ATOM      6  C   UNL     1      -1.418   0.159  -0.244  0.00  0.00    +0.000 A 
ATOM      7  C   UNL     1      -0.469   1.057  -0.758  0.00  0.00    +0.000 A 
ATOM      8  C   UNL     1       0.891   0.881  -0.493  0.00  0.00    +0.000 A 
ENDBRANCH   1   6
BRANCH   2   9
ATOM      9  C   UNL     1      -4.871   1.835  -0.314  0.00  0.00    +0.000 A 
ATOM     10  C   UNL     1      -5.619   2.211   0.801  0.00  0.00    +0.000 A 
ATOM     11  C   UNL     1      -6.945   2.569   0.618  0.00  0.00    +0.000 A 
ATOM     12  N   UNL     1      -7.558   2.585  -0.584  0.00  0.00    +0.000 NA
ATOM     13  C   UNL     1      -6.813   2.225  -1.650  0.00  0.00    +0.000 A 
ATOM     14  C   UNL     1      -5.480   1.853  -1.570  0.00  0.00    +0.000 A 
ENDBRANCH   2   9
BRANCH   1  15
ATOM     15  C   UNL     1      -3.572  -0.734  -1.151  0.00  0.00    +0.000 C 
ATOM     16  N   UNL     1      -4.146  -1.602  -1.666  0.00  0.00    +0.000 NA
ENDBRANCH   1  15
TORSDOF 3
