REMARK  Name = *****
REMARK  4 active torsions:
REMARK  status: ('A' for Active; 'I' for Inactive)
REMARK    1  A    between atoms: C_1  and  C_2
REMARK    2  A    between atoms: C_4  and  C_16
REMARK    3  A    between atoms: C_5  and  C_8
REMARK    4  A    between atoms: C_9  and  C_10
REMARK                            x       y       z     vdW  Elec       q    Type
REMARK                         _______ _______ _______ _____ _____    ______ ____
ROOT
ATOM      1  C   UNL     1       1.178  -0.066   0.464  0.00  0.00    +0.000 C 
ATOM      2  C   UNL     1       2.655  -0.008   0.206  0.00  0.00    +0.000 A 
ATOM      3  C   UNL     1       3.299   1.226   0.036  0.00  0.00    +0.000 A 
ATOM      4  C   UNL     1       4.675   1.296  -0.238  0.00  0.00    +0.000 A 
ATOM      5  C   UNL     1       5.407   0.102  -0.354  0.00  0.00    +0.000 A 
ATOM      6  C   UNL     1       4.764  -1.130  -0.200  0.00  0.00    +0.000 A 
ATOM      7  C   UNL     1       3.396  -1.186   0.073  0.00  0.00    +0.000 A 
ATOM      8  C   UNL     1       5.329   2.640  -0.405  0.00  0.00    +0.000 C 
ENDROOT
BRANCH   5   9
ATOM      9  C   UNL     1       6.813   0.110  -0.635  0.00  0.00    +0.000 C 
ATOM     10  C   UNL     1       7.991   0.118  -0.871  0.00  0.00    +0.000 C 
BRANCH  10  11
ATOM     11  C   UNL     1       9.393   0.134  -1.153  0.00  0.00    +0.000 A 
ATOM     12  C   UNL     1      10.067   1.350  -1.282  0.00  0.00    +0.000 A 
ATOM     13  C   UNL     1      11.436   1.365  -1.557  0.00  0.00    +0.000 A 
ATOM     14  C   UNL     1      12.131   0.165  -1.703  0.00  0.00    +0.000 A 
ATOM     15  C   UNL     1      11.460  -1.051  -1.575  0.00  0.00    +0.000 A 
ATOM     16  C   UNL     1      10.091  -1.067  -1.299  0.00  0.00    +0.000 A 
ENDBRANCH  10  11
ENDBRANCH   5   9
TORSDOF 2
