REMARK  Name = *****
REMARK  5 active torsions:
REMARK  status: ('A' for Active; 'I' for Inactive)
REMARK    1  A    between atoms: C_1  and  C_2
REMARK    2  A    between atoms: C_7  and  C_8
REMARK    3  A    between atoms: C_8  and  C_9
REMARK    4  A    between atoms: C_9  and  C_10
REMARK    5  A    between atoms: C_10  and  C_12
REMARK                            x       y       z     vdW  Elec       q    Type
REMARK                         _______ _______ _______ _____ _____    ______ ____
ROOT
ATOM      1  C   UNL     1       3.422  -2.025   0.926  0.00  0.00    +0.000 C 
ATOM      2  O   UNL     1       4.415  -1.355   0.641  0.00  0.00    +0.000 OA
ENDROOT
BRANCH   1   3
ATOM      3  C   UNL     1       3.053  -2.157   2.355  0.00  0.00    +0.000 A 
ATOM      4  C   UNL     1       2.544  -3.344   2.882  0.00  0.00    +0.000 A 
ATOM      5  C   UNL     1       2.209  -3.439   4.229  0.00  0.00    +0.000 A 
ATOM      6  C   UNL     1       2.395  -2.335   5.051  0.00  0.00    +0.000 A 
ATOM      7  C   UNL     1       2.914  -1.145   4.551  0.00  0.00    +0.000 A 
ATOM      8  C   UNL     1       3.250  -1.055   3.199  0.00  0.00    +0.000 A 
ATOM      9  F   UNL     1       2.073  -2.419   6.348  0.00  0.00    +0.000 F 
ATOM     10  F   UNL     1       2.376  -4.426   2.110  0.00  0.00    +0.000 F 
ENDBRANCH   1   3
BRANCH   1  11
ATOM     11  C   UNL     1       2.598  -2.706  -0.152  0.00  0.00    +0.000 C 
BRANCH  11  12
ATOM     12  C   UNL     1       1.088  -2.465  -0.061  0.00  0.00    +0.000 C 
BRANCH  12  19
ATOM     13  C   UNL     1      -1.136  -1.681   1.823  0.00  0.00    +0.000 C 
ATOM     14  C   UNL     1      -0.393  -0.664   1.000  0.00  0.00    +0.000 A 
ATOM     15  C   UNL     1      -0.752   0.689   1.132  0.00  0.00    +0.000 A 
ATOM     16  C   UNL     1      -0.112   1.678   0.387  0.00  0.00    +0.000 A 
ATOM     17  C   UNL     1       0.892   1.327  -0.506  0.00  0.00    +0.000 A 
ATOM     18  C   UNL     1       1.264  -0.010  -0.645  0.00  0.00    +0.000 A 
ATOM     19  C   UNL     1       0.651  -1.022   0.117  0.00  0.00    +0.000 A 
ENDBRANCH  12  19
ENDBRANCH  11  12
ENDBRANCH   1  11
TORSDOF 4
