REMARK  Name = *****
REMARK  6 active torsions:
REMARK  status: ('A' for Active; 'I' for Inactive)
REMARK    1  A    between atoms: C_1  and  C_2
REMARK    2  A    between atoms: C_2  and  C_5
REMARK    3  A    between atoms: N_3  and  O_4
REMARK    4  A    between atoms: C_5  and  C_6
REMARK    5  A    between atoms: C_5  and  C_13
REMARK    6  A    between atoms: C_6  and  C_7
REMARK                            x       y       z     vdW  Elec       q    Type
REMARK                         _______ _______ _______ _____ _____    ______ ____
ROOT
ATOM      1  C   UNL     1       3.449  -1.253  -0.445  0.00  0.00    +0.000 C 
ENDROOT
BRANCH   1   2
ATOM      2  C   UNL     1       4.911  -0.823  -0.373  0.00  0.00    +0.000 A 
ATOM      3  C   UNL     1       5.903  -1.821  -0.380  0.00  0.00    +0.000 A 
ATOM      4  C   UNL     1       7.258  -1.489  -0.341  0.00  0.00    +0.000 A 
ATOM      5  C   UNL     1       7.645  -0.153  -0.301  0.00  0.00    +0.000 A 
ATOM      6  C   UNL     1       6.678   0.849  -0.304  0.00  0.00    +0.000 A 
ATOM      7  C   UNL     1       5.321   0.517  -0.345  0.00  0.00    +0.000 A 
ENDBRANCH   1   2
BRANCH   1   9
ATOM      8  C   UNL     1       3.433  -0.598  -2.987  0.00  0.00    +0.000 C 
ATOM      9  C   UNL     1       3.024  -1.559  -1.891  0.00  0.00    +0.000 C 
ATOM     10  N   UNL     1       2.290  -2.575  -2.249  0.00  0.00    +0.000 NA
BRANCH  10  11
ATOM     11  O   UNL     1       1.922  -3.372  -1.163  0.00  0.00    +0.000 OA
ATOM     12  H   UNL     1       1.392  -4.133  -1.299  0.00  0.00    +0.000 HD
ENDBRANCH  10  11
ENDBRANCH   1   9
BRANCH   1  13
ATOM     13  C   UNL     1       2.400  -0.289   0.158  0.00  0.00    +0.000 C 
BRANCH  13  14
ATOM     14  C   UNL     1       2.510  -0.082   1.653  0.00  0.00    +0.000 A 
ATOM     15  C   UNL     1       2.730   1.198   2.180  0.00  0.00    +0.000 A 
ATOM     16  C   UNL     1       2.820   1.393   3.559  0.00  0.00    +0.000 A 
ATOM     17  C   UNL     1       2.684   0.313   4.428  0.00  0.00    +0.000 A 
ATOM     18  C   UNL     1       2.451  -0.962   3.918  0.00  0.00    +0.000 A 
ATOM     19  C   UNL     1       2.360  -1.159   2.539  0.00  0.00    +0.000 A 
ENDBRANCH  13  14
ENDBRANCH   1  13
TORSDOF 5
