@<TRIPOS>MOLECULE
control_ 
36 36 0 0 0
SMALL
USER_CHARGES
#CGenFF output mol2 file
@<TRIPOS>ATOM
1	N1    89.9020    71.2360    85.4060	N.pl3	1	UNL1    -0.8300
2	N2    89.0870    64.1130    87.6060	N.4	1	UNL1    -0.4210
3	C1    89.5740    65.4780    85.5470	C.3	1	UNL1     0.1310
4	C2    89.6190    66.9920    85.4950	C.ar	1	UNL1     0.0510
5	C3    89.8960    67.6680    84.2970	C.ar	1	UNL1    -0.1220
6	C4    89.9550    69.0660    84.2640	C.ar	1	UNL1     0.0440
7	C5    89.7020    69.8370    85.4120	C.ar	1	UNL1     0.2120
8	C6    89.4680    69.1460    86.6160	C.ar	1	UNL1     0.0440
9	C7    89.4100    67.7480    86.6550	C.ar	1	UNL1    -0.1220
10	C8    88.5050    64.9170    86.5210	C.3	1	UNL1     0.2080
11	C9    89.0620    63.7290    90.0730	C.3	1	UNL1    -0.2700
12	C10    88.2320    63.9130    88.7910	C.3	1	UNL1     0.3820
13	C11    87.2680    62.7290    88.6140	C.3	1	UNL1    -0.2700
14	C12    87.3960    65.2000    88.9340	C.3	1	UNL1    -0.2700
15	O    90.8630    64.9980    85.9400	O.3	1	UNL1    -0.6230
16	CL1    89.2110    70.0110    88.0940	Cl	1	UNL1    -0.1890
17	CL2    90.3220    69.8270    82.7530	Cl	1	UNL1    -0.1890
18	H1    90.0646    71.7064    84.5566	H	1	UNL1     0.3530
19	H2    89.8787    71.7402    86.2513	H	1	UNL1     0.3530
20	H3    89.9428    64.5754    87.9128	H	1	UNL1     0.3330
21	H4    89.2337    63.1836    87.2121	H	1	UNL1     0.3330
22	H5    89.3020    65.1383    84.5695	H	1	UNL1     0.0900
23	H6    90.0578    67.1292    83.4318	H	1	UNL1     0.1420
24	H7    89.2112    67.2697    87.5476	H	1	UNL1     0.1420
25	H8    87.8266    64.3027    85.9667	H	1	UNL1     0.0900
26	H9    88.0090    65.7521    86.9699	H	1	UNL1     0.0900
27	H10    89.6502    62.8388    89.9924	H	1	UNL1     0.0900
28	H11    88.4057    63.6479    90.9142	H	1	UNL1     0.0900
29	H12    89.7074    64.5723    90.2042	H	1	UNL1     0.0900
30	H13    86.6955    62.8657    87.7205	H	1	UNL1     0.0900
31	H14    86.6090    62.6767    89.4554	H	1	UNL1     0.0900
32	H15    87.8284    61.8203    88.5429	H	1	UNL1     0.0900
33	H16    86.8107    65.3452    88.0501	H	1	UNL1     0.0900
34	H17    88.0493    66.0363    89.0706	H	1	UNL1     0.0900
35	H18    86.7476    65.1119    89.7806	H	1	UNL1     0.0900
36	H19    91.0732    65.3261    86.8283	H	1	UNL1     0.3980
@<TRIPOS>BOND
1	1	7	1
2	1	18	1
3	1	19	1
4	2	10	1
5	2	12	1
6	2	20	1
7	2	21	1
8	3	4	1
9	3	15	1
10	3	10	1
11	3	22	1
12	4	5	2
13	4	9	1
14	5	6	1
15	5	23	1
16	6	17	1
17	6	7	2
18	7	8	1
19	8	9	2
20	8	16	1
21	9	24	1
22	10	25	1
23	10	26	1
24	11	12	1
25	11	27	1
26	11	28	1
27	11	29	1
28	12	13	1
29	12	14	1
30	13	30	1
31	13	31	1
32	13	32	1
33	14	33	1
34	14	34	1
35	14	35	1
36	15	36	1
