@<TRIPOS>MOLECULE
CTL2 
33 33 0 0 0
SMALL
USER_CHARGES
#CGenFF output mol2 file
@<TRIPOS>ATOM
1	N    88.0020    63.0080    88.6140	N.4	1	CTL2    -0.3810
2	C1    87.8060    63.6240    86.1750	C.3	1	CTL2     0.0370
3	C2    89.0470    64.4670    85.9630	C.ar	1	CTL2     0.0050
4	C3    89.0910    65.8100    86.3730	C.ar	1	CTL2    -0.1050
5	C4    90.2410    66.5680    86.1570	C.ar	1	CTL2     0.1080
6	C5    91.3560    66.0180    85.5370	C.ar	1	CTL2    -0.1110
7	C6    91.3110    64.6910    85.1290	C.ar	1	CTL2     0.1080
8	C7    90.1750    63.9150    85.3350	C.ar	1	CTL2    -0.1050
9	C8    87.2180    63.7400    87.6040	C.3	1	CTL2     0.2420
10	C9    89.2010    63.8280    90.5650	C.3	1	CTL2    -0.2320
11	C10    87.8200    63.5390    89.9720	C.3	1	CTL2     0.2500
12	C11    86.9820    64.8190    89.9800	C.3	1	CTL2    -0.2320
13	O1    92.3770    64.1010    84.5130	O.3	1	CTL2    -0.5330
14	O2    90.3110    67.8740    86.5470	O.3	1	CTL2    -0.5330
15	O3    88.1370    62.2550    85.9140	O.3	1	CTL2    -0.6230
16	H1    88.9900    63.0723    88.3688	H	1	CTL2     0.3110
17	H2    87.6742    62.0421    88.6158	H	1	CTL2     0.3110
18	H3    87.0558    63.9869    85.5038	H	1	CTL2     0.0900
19	H4    88.2718    66.2356    86.8342	H	1	CTL2     0.1150
20	H5    92.2036    66.5859    85.3821	H	1	CTL2     0.1150
21	H6    90.1613    62.9307    85.0253	H	1	CTL2     0.1150
22	H7    86.2228    63.3471    87.5954	H	1	CTL2     0.0900
23	H8    87.2384    64.7752    87.8738	H	1	CTL2     0.0900
24	H9    89.7863    62.9323    90.5590	H	1	CTL2     0.0900
25	H10    89.0915    64.1758    91.5710	H	1	CTL2     0.0900
26	H11    89.6907    64.5780    89.9796	H	1	CTL2     0.0900
27	H12    87.2954    62.8109    90.5547	H	1	CTL2     0.0900
28	H13    87.4772    65.5731    89.4047	H	1	CTL2     0.0900
29	H14    86.8616    65.1602    90.9870	H	1	CTL2     0.0900
30	H15    86.0211    64.6189    89.5539	H	1	CTL2     0.0900
31	H16    92.3262    63.2044    84.2455	H	1	CTL2     0.4200
32	H17    91.0925    68.3676    86.3933	H	1	CTL2     0.4200
33	H18    88.8177    61.9620    86.5398	H	1	CTL2     0.3980
@<TRIPOS>BOND
1	1	9	1
2	1	11	1
3	1	16	1
4	1	17	1
5	2	15	1
6	2	3	1
7	2	9	1
8	2	18	1
9	3	8	2
10	3	4	1
11	4	5	2
12	4	19	1
13	5	6	1
14	5	14	1
15	6	7	2
16	6	20	1
17	7	13	1
18	7	8	1
19	8	21	1
20	9	22	1
21	9	23	1
22	10	11	1
23	10	24	1
24	10	25	1
25	10	26	1
26	11	12	1
27	11	27	1
28	12	28	1
29	12	29	1
30	12	30	1
31	13	31	1
32	14	32	1
33	15	33	1
