REMARK  Name = *****
REMARK  6 active torsions:
REMARK  status: ('A' for Active; 'I' for Inactive)
REMARK    1  A    between atoms: C_1  and  C_2
REMARK    2  A    between atoms: C_2  and  O_4
REMARK    3  A    between atoms: O_4  and  C_5
REMARK    4  A    between atoms: C_5  and  C_6
REMARK    5  A    between atoms: C_5  and  C_13
REMARK    6  A    between atoms: C_6  and  C_7
REMARK                            x       y       z     vdW  Elec       q    Type
REMARK                         _______ _______ _______ _____ _____    ______ ____
ROOT
ATOM      1  C   UNL     1       4.266   0.582  -1.095  0.00  0.00    +0.000 C 
ENDROOT
BRANCH   1   2
ATOM      2  C   UNL     1       4.787   1.485  -2.231  0.00  0.00    +0.000 C 
ATOM      3  C   UNL     1       5.399   2.641  -1.905  0.00  0.00    +0.000 C 
ATOM      4  C   UNL     1       6.005   3.724  -2.746  0.00  0.00    +0.000 C 
ATOM      5  C   UNL     1       5.690   3.758  -4.234  0.00  0.00    +0.000 C 
ATOM      6  C   UNL     1       6.087   2.484  -4.963  0.00  0.00    +0.000 C 
ATOM      7  C   UNL     1       5.133   1.357  -4.733  0.00  0.00    +0.000 C 
ATOM      8  C   UNL     1       4.561   0.984  -3.580  0.00  0.00    +0.000 C 
ENDBRANCH   1   2
BRANCH   1   9
ATOM      9  O   UNL     1       2.866   0.315  -1.328  0.00  0.00    +0.000 OA
BRANCH   9  11
ATOM     10  C   UNL     1       0.594   0.444  -0.795  0.00  0.00    +0.000 C 
ATOM     11  C   UNL     1       1.993   0.831  -0.424  0.00  0.00    +0.000 C 
ATOM     12  O   UNL     1       2.279   1.516   0.549  0.00  0.00    +0.000 OA
ENDBRANCH   9  11
ENDBRANCH   1   9
BRANCH   1  13
ATOM     13  C   UNL     1       5.031  -0.760  -1.030  0.00  0.00    +0.000 C 
BRANCH  13  14
ATOM     14  C   UNL     1       4.607  -1.683   0.096  0.00  0.00    +0.000 A 
ATOM     15  C   UNL     1       4.332  -3.032  -0.178  0.00  0.00    +0.000 A 
ATOM     16  C   UNL     1       3.963  -3.908   0.845  0.00  0.00    +0.000 A 
ATOM     17  C   UNL     1       3.868  -3.448   2.156  0.00  0.00    +0.000 A 
ATOM     18  C   UNL     1       4.150  -2.115   2.444  0.00  0.00    +0.000 A 
ATOM     19  C   UNL     1       4.526  -1.239   1.423  0.00  0.00    +0.000 A 
ENDBRANCH  13  14
ENDBRANCH   1  13
TORSDOF 5
