MODEL 1
REMARK VINA RESULT:      -4.3      0.000      0.000
REMARK  Name = *****
REMARK  4 active torsions:
REMARK  status: ('A' for Active; 'I' for Inactive)
REMARK    1  A    between atoms: C_1  and  C_2
REMARK    2  A    between atoms: C_7  and  C_8
REMARK    3  A    between atoms: N_9  and  C_10
REMARK    4  A    between atoms: C_15  and  S_16
REMARK                            x       y       z     vdW  Elec       q    Type
REMARK                         _______ _______ _______ _____ _____    ______ ____
ROOT
ATOM      1  C   UNL     1     102.371 126.192  81.922  0.00  0.00    +0.000 C 
ATOM      2  N   UNL     1     102.890 125.199  82.578  0.00  0.00    +0.000 NA
ENDROOT
BRANCH   1   9
ATOM      3  C   UNL     1     103.085 128.712  83.356  0.00  0.00    +0.000 C 
ATOM      4  C   UNL     1     101.664 128.252  83.186  0.00  0.00    +0.000 A 
ATOM      5  C   UNL     1     100.628 129.038  83.720  0.00  0.00    +0.000 A 
ATOM      6  C   UNL     1      99.293 128.652  83.586  0.00  0.00    +0.000 A 
ATOM      7  C   UNL     1      98.970 127.476  82.918  0.00  0.00    +0.000 A 
ATOM      8  C   UNL     1      99.983 126.682  82.381  0.00  0.00    +0.000 A 
ATOM      9  C   UNL     1     101.327 127.063  82.511  0.00  0.00    +0.000 A 
ENDBRANCH   1   9
BRANCH   2  10
ATOM     10  C   UNL     1     103.869 124.454  81.889  0.00  0.00    +0.000 A 
ATOM     11  C   UNL     1     104.123 124.746  80.543  0.00  0.00    +0.000 A 
ATOM     12  C   UNL     1     105.089 124.036  79.829  0.00  0.00    +0.000 A 
ATOM     13  C   UNL     1     105.818 123.030  80.459  0.00  0.00    +0.000 A 
ATOM     14  C   UNL     1     105.588 122.738  81.805  0.00  0.00    +0.000 A 
ATOM     15  C   UNL     1     104.624 123.451  82.527  0.00  0.00    +0.000 A 
BRANCH  15  16
ATOM     16  S   UNL     1     104.380 123.052  84.254  0.00  0.00    +0.000 S 
ATOM     17  H   UNL     1     104.445 124.190  84.996  0.00  0.00    +0.000 HD
ENDBRANCH  15  16
ENDBRANCH   2  10
TORSDOF 3
ENDMDL
