MODEL 1
REMARK VINA RESULT:      -3.8      0.000      0.000
REMARK  Name = *****
REMARK  3 active torsions:
REMARK  status: ('A' for Active; 'I' for Inactive)
REMARK    1  A    between atoms: C_4  and  S_7
REMARK    2  A    between atoms: S_7  and  C_8
REMARK    3  A    between atoms: C_9  and  C_10
REMARK                            x       y       z     vdW  Elec       q    Type
REMARK                         _______ _______ _______ _____ _____    ______ ____
ROOT
ATOM      1  S   UNL     1     103.081 127.844  83.661  0.00  0.00    +0.000 S 
ENDROOT
BRANCH   1   5
ATOM      2  C   UNL     1      98.605 127.838  82.687  0.00  0.00    +0.000 A 
ATOM      3  C   UNL     1      99.177 128.934  83.334  0.00  0.00    +0.000 A 
ATOM      4  C   UNL     1     100.541 128.937  83.631  0.00  0.00    +0.000 A 
ATOM      5  C   UNL     1     101.338 127.840  83.285  0.00  0.00    +0.000 A 
ATOM      6  C   UNL     1     100.762 126.749  82.629  0.00  0.00    +0.000 A 
ATOM      7  C   UNL     1      99.398 126.747  82.333  0.00  0.00    +0.000 A 
ENDBRANCH   1   5
BRANCH   1   8
ATOM      8  C   UNL     1     103.682 128.554  82.201  0.00  0.00    +0.000 C 
ATOM      9  C   UNL     1     104.238 127.920  81.157  0.00  0.00    +0.000 C 
BRANCH   9  10
ATOM     10  C   UNL     1     104.455 126.519  81.013  0.00  0.00    +0.000 A 
ATOM     11  C   UNL     1     103.612 125.591  80.405  0.00  0.00    +0.000 A 
ATOM     12  C   UNL     1     104.220 124.316  80.489  0.00  0.00    +0.000 A 
ATOM     13  C   UNL     1     105.408 124.517  81.141  0.00  0.00    +0.000 A 
ATOM     14  O   UNL     1     105.556 125.824  81.458  0.00  0.00    +0.000 OA
ENDBRANCH   9  10
ENDBRANCH   1   8
TORSDOF 3
ENDMDL
