REMARK  Name = *****
REMARK  3 active torsions:
REMARK  status: ('A' for Active; 'I' for Inactive)
REMARK    1  A    between atoms: C_5  and  O_7
REMARK    2  A    between atoms: O_7  and  C_8
REMARK    3  A    between atoms: C_8  and  C_10
REMARK                            x       y       z     vdW  Elec       q    Type
REMARK                         _______ _______ _______ _____ _____    ______ ____
ROOT
ATOM      1  C   UNL     1      -1.630  -2.563   0.332  0.00  0.00    +0.000 C 
ATOM      2  O   UNL     1      -2.282  -1.535   0.218  0.00  0.00    +0.000 OA
ENDROOT
BRANCH   1   3
ATOM      3  C   UNL     1      -2.224  -3.920   0.182  0.00  0.00    +0.000 A 
ATOM      4  C   UNL     1      -1.469  -5.092   0.308  0.00  0.00    +0.000 A 
ATOM      5  C   UNL     1      -2.093  -6.326   0.154  0.00  0.00    +0.000 A 
ATOM      6  C   UNL     1      -3.453  -6.421  -0.120  0.00  0.00    +0.000 A 
ATOM      7  C   UNL     1      -4.211  -5.259  -0.245  0.00  0.00    +0.000 A 
ATOM      8  C   UNL     1      -3.598  -4.012  -0.094  0.00  0.00    +0.000 A 
ATOM      9  F   UNL     1      -1.367  -7.446   0.273  0.00  0.00    +0.000 F 
ENDBRANCH   1   3
BRANCH   1  10
ATOM     10  O   UNL     1      -0.279  -2.670   0.596  0.00  0.00    +0.000 OA
BRANCH  10  15
ATOM     11  C   UNL     1       1.565   0.448  -0.011  0.00  0.00    +0.000 A 
ATOM     12  C   UNL     1       1.596   1.000   1.272  0.00  0.00    +0.000 A 
ATOM     13  C   UNL     1       0.996   0.329   2.341  0.00  0.00    +0.000 A 
ATOM     14  C   UNL     1       0.359  -0.894   2.127  0.00  0.00    +0.000 A 
ATOM     15  C   UNL     1       0.316  -1.429   0.837  0.00  0.00    +0.000 A 
ATOM     16  C   UNL     1       0.930  -0.774  -0.232  0.00  0.00    +0.000 A 
ATOM     17 CL   UNL     1      -0.342  -1.719   3.469  0.00  0.00    +0.000 Cl
ENDBRANCH  10  15
ENDBRANCH   1  10
TORSDOF 3
