MODEL 1
REMARK VINA RESULT:      -4.4      0.000      0.000
REMARK  Name = *****
REMARK  2 active torsions:
REMARK  status: ('A' for Active; 'I' for Inactive)
REMARK    1  A    between atoms: C_2  and  C_11
REMARK    2  A    between atoms: N_3  and  C_4
REMARK                            x       y       z     vdW  Elec       q    Type
REMARK                         _______ _______ _______ _____ _____    ______ ____
ROOT
ATOM      1  C   UNL     1      87.577  69.824  88.912  0.00  0.00    +0.000 C 
ATOM      2  C   UNL     1      87.226  68.939  87.725  0.00  0.00    +0.000 C 
ATOM      3  N   UNL     1      87.398  70.386  87.583  0.00  0.00    +0.000 N 
ENDROOT
BRANCH   3   4
ATOM      4  C   UNL     1      86.271  71.202  87.323  0.00  0.00    +0.000 A 
ATOM      5  C   UNL     1      85.908  71.507  86.001  0.00  0.00    +0.000 A 
ATOM      6  C   UNL     1      84.776  72.279  85.731  0.00  0.00    +0.000 A 
ATOM      7  C   UNL     1      83.992  72.731  86.785  0.00  0.00    +0.000 A 
ATOM      8  C   UNL     1      84.312  72.419  88.100  0.00  0.00    +0.000 A 
ATOM      9  C   UNL     1      85.445  71.646  88.367  0.00  0.00    +0.000 A 
ATOM     10  F   UNL     1      82.904  73.469  86.528  0.00  0.00    +0.000 F 
ENDBRANCH   3   4
BRANCH   2  11
ATOM     11  C   UNL     1      88.278  68.039  87.131  0.00  0.00    +0.000 A 
ATOM     12  C   UNL     1      88.224  66.646  87.316  0.00  0.00    +0.000 A 
ATOM     13  C   UNL     1      89.186  65.798  86.759  0.00  0.00    +0.000 A 
ATOM     14  C   UNL     1      90.222  66.334  86.001  0.00  0.00    +0.000 A 
ATOM     15  C   UNL     1      90.302  67.706  85.794  0.00  0.00    +0.000 A 
ATOM     16  C   UNL     1      89.335  68.547  86.355  0.00  0.00    +0.000 A 
ATOM     17 CL   UNL     1      91.408  65.293  85.314  0.00  0.00    +0.000 Cl
ENDBRANCH   2  11
TORSDOF 2
ENDMDL
