MODEL 1
REMARK VINA RESULT:      -5.2      0.000      0.000
REMARK  Name = *****
REMARK  1 active torsions:
REMARK  status: ('A' for Active; 'I' for Inactive)
REMARK    1  A    between atoms: C_8  and  C_10
REMARK                            x       y       z     vdW  Elec       q    Type
REMARK                         _______ _______ _______ _____ _____    ______ ____
ROOT
ATOM      1  C   UNL     1     101.162 127.164  82.817  0.00  0.00    +0.000 A 
ATOM      2  C   UNL     1     101.547 128.335  83.479  0.00  0.00    +0.000 A 
ATOM      3  C   UNL     1     100.607 129.310  83.821  0.00  0.00    +0.000 A 
ATOM      4  C   UNL     1      99.264 129.144  83.517  0.00  0.00    +0.000 A 
ATOM      5  C   UNL     1      98.872 127.984  82.864  0.00  0.00    +0.000 A 
ATOM      6  C   UNL     1      99.805 127.005  82.517  0.00  0.00    +0.000 A 
ATOM      7  F   UNL     1      99.361 125.896  81.906  0.00  0.00    +0.000 F 
ATOM      8  F   UNL     1      97.577 127.808  82.568  0.00  0.00    +0.000 F 
ATOM      9  F   UNL     1     100.999 130.427  84.448  0.00  0.00    +0.000 F 
ATOM     10  F   UNL     1     102.833 128.559  83.786  0.00  0.00    +0.000 F 
ENDROOT
BRANCH   1  18
ATOM     11  C   UNL     1     105.214 123.044  81.554  0.00  0.00    +0.000 A 
ATOM     12  C   UNL     1     105.192 123.700  80.315  0.00  0.00    +0.000 A 
ATOM     13  C   UNL     1     104.354 124.798  80.085  0.00  0.00    +0.000 A 
ATOM     14  C   UNL     1     103.559 125.182  81.158  0.00  0.00    +0.000 A 
ATOM     15  C   UNL     1     103.551 124.563  82.396  0.00  0.00    +0.000 A 
ATOM     16  C   UNL     1     104.394 123.466  82.612  0.00  0.00    +0.000 A 
ATOM     17  N   UNL     1     102.655 125.193  83.223  0.00  0.00    +0.000 NA
ATOM     18  C   UNL     1     102.151 126.156  82.473  0.00  0.00    +0.000 A 
ATOM     19  O   UNL     1     102.665 126.210  81.201  0.00  0.00    +0.000 OA
ENDBRANCH   1  18
TORSDOF 1
ENDMDL
