MODEL 1
REMARK VINA RESULT:      -4.8      0.000      0.000
REMARK  Name = *****
REMARK  2 active torsions:
REMARK  status: ('A' for Active; 'I' for Inactive)
REMARK    1  A    between atoms: C_8  and  C_9
REMARK    2  A    between atoms: C_10  and  C_11
REMARK                            x       y       z     vdW  Elec       q    Type
REMARK                         _______ _______ _______ _____ _____    ______ ____
ROOT
ATOM      1  C   UNL     1     102.336 126.170  82.538  0.00  0.00    +0.000 C 
ATOM      2  C   UNL     1     102.815 125.757  81.353  0.00  0.00    +0.000 C 
ENDROOT
BRANCH   1  10
ATOM      3  C   UNL     1      99.053 128.891  83.152  0.00  0.00    +0.000 C 
ATOM      4  C   UNL     1      98.604 127.594  82.450  0.00  0.00    +0.000 C 
ATOM      5  C   UNL     1      97.569 127.180  83.488  0.00  0.00    +0.000 C 
ATOM      6  C   UNL     1      98.068 127.514  84.694  0.00  0.00    +0.000 C 
ATOM      7  C   UNL     1      99.431 128.149  84.449  0.00  0.00    +0.000 C 
ATOM      8  C   UNL     1     100.392 127.058  83.952  0.00  0.00    +0.000 C 
ATOM      9  C   UNL     1      99.832 126.682  82.595  0.00  0.00    +0.000 C 
ATOM     10  C   UNL     1     101.265 127.160  82.717  0.00  0.00    +0.000 C 
ENDBRANCH   1  10
BRANCH   2  11
ATOM     11  C   UNL     1     103.887 124.766  81.193  0.00  0.00    +0.000 A 
ATOM     12  C   UNL     1     104.210 123.937  82.276  0.00  0.00    +0.000 A 
ATOM     13  C   UNL     1     105.243 123.000  82.173  0.00  0.00    +0.000 A 
ATOM     14  C   UNL     1     105.967 122.898  80.989  0.00  0.00    +0.000 A 
ATOM     15  C   UNL     1     105.670 123.725  79.908  0.00  0.00    +0.000 A 
ATOM     16  C   UNL     1     104.636 124.660  80.013  0.00  0.00    +0.000 A 
ATOM     17 BR   UNL     1     107.365 121.634  80.849  0.00  0.00    +0.000 Br
ENDBRANCH   2  11
TORSDOF 2
ENDMDL
