REMARK  Name = *****
REMARK  1 active torsions:
REMARK  status: ('A' for Active; 'I' for Inactive)
REMARK    1  A    between atoms: C_8  and  C_10
REMARK                            x       y       z     vdW  Elec       q    Type
REMARK                         _______ _______ _______ _____ _____    ______ ____
ROOT
ATOM      1  C   UNL     1      -2.487  -0.440  -0.075  0.00  0.00    +0.000 A 
ATOM      2  C   UNL     1      -2.200   0.918  -0.045  0.00  0.00    +0.000 A 
ATOM      3  C   UNL     1      -0.877   1.363  -0.005  0.00  0.00    +0.000 A 
ATOM      4  C   UNL     1       0.162   0.412   0.006  0.00  0.00    +0.000 A 
ATOM      5  C   UNL     1      -0.102  -0.958  -0.022  0.00  0.00    +0.000 A 
ATOM      6  C   UNL     1      -1.453  -1.380  -0.064  0.00  0.00    +0.000 A 
ATOM      7  C   UNL     1       1.114  -1.720  -0.003  0.00  0.00    +0.000 A 
ATOM      8  C   UNL     1       2.252  -0.938   0.041  0.00  0.00    +0.000 A 
ATOM      9  S   UNL     1       1.853   0.723   0.055  0.00  0.00    +0.000 S 
ENDROOT
BRANCH   8  10
ATOM     10  C   UNL     1       3.633  -1.351   0.074  0.00  0.00    +0.000 A 
ATOM     11  N   UNL     1       4.662  -0.559   0.111  0.00  0.00    +0.000 NA
ATOM     12  S   UNL     1       6.051  -1.512   0.141  0.00  0.00    +0.000 S 
ATOM     13  C   UNL     1       5.103  -2.984   0.100  0.00  0.00    +0.000 A 
ATOM     14  O   UNL     1       5.575  -4.109   0.104  0.00  0.00    +0.000 OA
ATOM     15  O   UNL     1       3.777  -2.707   0.065  0.00  0.00    +0.000 OA
ENDBRANCH   8  10
TORSDOF 1
