MODEL 1
REMARK VINA RESULT:      -5.0      0.000      0.000
REMARK  Name = *****
REMARK  2 active torsions:
REMARK  status: ('A' for Active; 'I' for Inactive)
REMARK    1  A    between atoms: C_1  and  C_2
REMARK    2  A    between atoms: C_10  and  C_12
REMARK                            x       y       z     vdW  Elec       q    Type
REMARK                         _______ _______ _______ _____ _____    ______ ____
ROOT
ATOM      1  C   UNL     1     105.610 125.807  79.973  0.00  0.00    +0.000 C 
ATOM      2  C   UNL     1     104.280 125.057  80.046  0.00  0.00    +0.000 C 
ATOM      3  C   UNL     1     104.288 123.755  80.847  0.00  0.00    +0.000 C 
ATOM      4  C   UNL     1     105.367 122.750  80.435  0.00  0.00    +0.000 C 
ATOM      5  C   UNL     1     105.285 121.484  81.289  0.00  0.00    +0.000 C 
ATOM      6  C   UNL     1     105.352 121.803  82.782  0.00  0.00    +0.000 C 
ATOM      7  C   UNL     1     104.307 122.839  83.187  0.00  0.00    +0.000 C 
ATOM      8  C   UNL     1     104.400 124.100  82.326  0.00  0.00    +0.000 C 
ATOM      9  O   UNL     1     103.346 124.991  82.714  0.00  0.00    +0.000 OA
ATOM     10  C   UNL     1     102.897 125.885  81.802  0.00  0.00    +0.000 C 
ATOM     11  N   UNL     1     103.270 125.974  80.574  0.00  0.00    +0.000 NA
ENDROOT
BRANCH  10  12
ATOM     12  C   UNL     1     101.865 126.776  82.398  0.00  0.00    +0.000 A 
ATOM     13  C   UNL     1     102.201 127.972  83.047  0.00  0.00    +0.000 A 
ATOM     14  C   UNL     1     101.202 128.783  83.592  0.00  0.00    +0.000 A 
ATOM     15  C   UNL     1      99.864 128.405  83.492  0.00  0.00    +0.000 A 
ATOM     16  C   UNL     1      99.520 127.218  82.848  0.00  0.00    +0.000 A 
ATOM     17  C   UNL     1     100.516 126.406  82.302  0.00  0.00    +0.000 A 
ENDBRANCH  10  12
TORSDOF 1
ENDMDL
