REMARK  Name = *****
REMARK  5 active torsions:
REMARK  status: ('A' for Active; 'I' for Inactive)
REMARK    1  A    between atoms: C_4  and  C_7
REMARK    2  A    between atoms: C_7  and  O_9
REMARK    3  A    between atoms: O_9  and  C_10
REMARK    4  A    between atoms: C_10  and  C_11
REMARK    5  A    between atoms: C_10  and  C_13
REMARK                            x       y       z     vdW  Elec       q    Type
REMARK                         _______ _______ _______ _____ _____    ______ ____
ROOT
ATOM      1  C   UNL     1      -5.606  -0.289  -0.244  0.00  0.00    +0.000 C 
ENDROOT
BRANCH   1   2
ATOM      2  C   UNL     1      -6.112  -1.686  -0.564  0.00  0.00    +0.000 A 
ATOM      3  C   UNL     1      -5.513  -2.473  -1.564  0.00  0.00    +0.000 A 
ATOM      4  C   UNL     1      -6.000  -3.749  -1.853  0.00  0.00    +0.000 A 
ATOM      5  C   UNL     1      -7.094  -4.240  -1.154  0.00  0.00    +0.000 A 
ATOM      6  C   UNL     1      -7.713  -3.478  -0.171  0.00  0.00    +0.000 A 
ATOM      7  C   UNL     1      -7.225  -2.203   0.123  0.00  0.00    +0.000 A 
ATOM      8  F   UNL     1      -7.564  -5.462  -1.435  0.00  0.00    +0.000 F 
ENDBRANCH   1   2
BRANCH   1   9
ATOM      9  C   UNL     1      -4.126  -0.254   0.166  0.00  0.00    +0.000 C 
ATOM     10  F   UNL     1      -3.327  -0.608  -0.880  0.00  0.00    +0.000 F 
ENDBRANCH   1   9
BRANCH   1  11
ATOM     11  O   UNL     1      -5.852   0.524  -1.407  0.00  0.00    +0.000 OA
BRANCH  11  12
ATOM     12  C   UNL     1      -5.898   1.858  -1.184  0.00  0.00    +0.000 C 
ATOM     13  O   UNL     1      -5.738   2.401  -0.103  0.00  0.00    +0.000 OA
BRANCH  12  17
ATOM     14  C   UNL     1      -6.747   4.065  -4.760  0.00  0.00    +0.000 A 
ATOM     15  C   UNL     1      -6.571   4.722  -3.544  0.00  0.00    +0.000 A 
ATOM     16  C   UNL     1      -6.292   3.989  -2.388  0.00  0.00    +0.000 A 
ATOM     17  C   UNL     1      -6.189   2.592  -2.445  0.00  0.00    +0.000 A 
ATOM     18  C   UNL     1      -6.366   1.938  -3.672  0.00  0.00    +0.000 A 
ATOM     19  C   UNL     1      -6.645   2.675  -4.826  0.00  0.00    +0.000 A 
ENDBRANCH  12  17
ENDBRANCH  11  12
ENDBRANCH   1  11
TORSDOF 5
