MODEL 1
REMARK VINA RESULT:      -4.6      0.000      0.000
REMARK  Name = *****
REMARK  3 active torsions:
REMARK  status: ('A' for Active; 'I' for Inactive)
REMARK    1  A    between atoms: C_4  and  C_7
REMARK    2  A    between atoms: C_8  and  C_9
REMARK    3  A    between atoms: C_12  and  C_14
REMARK                            x       y       z     vdW  Elec       q    Type
REMARK                         _______ _______ _______ _____ _____    ______ ____
ROOT
ATOM      1  C   UNL     1     103.850 124.604  81.200  0.00  0.00    +0.000 A 
ATOM      2  N   UNL     1     104.485 124.648  80.053  0.00  0.00    +0.000 NA
ATOM      3  N   UNL     1     105.353 123.574  80.052  0.00  0.00    +0.000 NA
ATOM      4  C   UNL     1     105.186 122.947  81.205  0.00  0.00    +0.000 A 
ATOM      5  O   UNL     1     104.229 123.561  81.992  0.00  0.00    +0.000 OA
ENDROOT
BRANCH   4   6
ATOM      6  C   UNL     1     105.853 121.726  81.750  0.00  0.00    +0.000 C 
ATOM      7 CL   UNL     1     107.332 121.314  80.827  0.00  0.00    +0.000 Cl
ATOM      8 CL   UNL     1     106.318 121.992  83.463  0.00  0.00    +0.000 Cl
ATOM      9 CL   UNL     1     104.733 120.326  81.668  0.00  0.00    +0.000 Cl
ENDBRANCH   4   6
BRANCH   1  11
ATOM     10  C   UNL     1     102.015 126.228  82.106  0.00  0.00    +0.000 C 
ATOM     11  C   UNL     1     102.859 125.480  81.691  0.00  0.00    +0.000 C 
BRANCH  10  15
ATOM     12  C   UNL     1      99.053 128.871  83.546  0.00  0.00    +0.000 A 
ATOM     13  C   UNL     1      98.681 127.717  82.854  0.00  0.00    +0.000 A 
ATOM     14  C   UNL     1      99.659 126.843  82.377  0.00  0.00    +0.000 A 
ATOM     15  C   UNL     1     101.012 127.122  82.593  0.00  0.00    +0.000 A 
ATOM     16  C   UNL     1     101.381 128.277  83.287  0.00  0.00    +0.000 A 
ATOM     17  C   UNL     1     100.402 129.150  83.764  0.00  0.00    +0.000 A 
ENDBRANCH  10  15
ENDBRANCH   1  11
TORSDOF 3
ENDMDL
