REMARK  Name = *****
REMARK  2 active torsions:
REMARK  status: ('A' for Active; 'I' for Inactive)
REMARK    1  A    between atoms: C_4  and  C_7
REMARK    2  A    between atoms: C_8  and  C_9
REMARK                            x       y       z     vdW  Elec       q    Type
REMARK                         _______ _______ _______ _____ _____    ______ ____
ROOT
ATOM      1  C   UNL     1       5.562   0.315  -0.427  0.00  0.00    +0.000 A 
ATOM      2  C   UNL     1       6.332  -0.850  -0.467  0.00  0.00    +0.000 A 
ATOM      3  C   UNL     1       7.716  -0.773  -0.561  0.00  0.00    +0.000 A 
ATOM      4  C   UNL     1       8.337   0.468  -0.615  0.00  0.00    +0.000 A 
ATOM      5  C   UNL     1       7.585   1.640  -0.576  0.00  0.00    +0.000 A 
ATOM      6  C   UNL     1       6.193   1.564  -0.482  0.00  0.00    +0.000 A 
ATOM      7  F   UNL     1       9.671   0.550  -0.705  0.00  0.00    +0.000 F 
ATOM      8  F   UNL     1       8.451  -1.894  -0.599  0.00  0.00    +0.000 F 
ATOM      9  F   UNL     1       5.741  -2.055  -0.416  0.00  0.00    +0.000 F 
ENDROOT
BRANCH   1  11
ATOM     10  C   UNL     1       2.940   0.181  -0.245  0.00  0.00    +0.000 C 
ATOM     11  C   UNL     1       4.137   0.244  -0.329  0.00  0.00    +0.000 C 
BRANCH  10  15
ATOM     12  C   UNL     1      -1.266  -0.070   0.045  0.00  0.00    +0.000 A 
ATOM     13  C   UNL     1      -0.644   1.178  -0.001  0.00  0.00    +0.000 A 
ATOM     14  C   UNL     1       0.746   1.262  -0.097  0.00  0.00    +0.000 A 
ATOM     15  C   UNL     1       1.516   0.097  -0.146  0.00  0.00    +0.000 A 
ATOM     16  C   UNL     1       0.892  -1.151  -0.099  0.00  0.00    +0.000 A 
ATOM     17  C   UNL     1      -0.499  -1.234  -0.004  0.00  0.00    +0.000 A 
ENDBRANCH  10  15
ENDBRANCH   1  11
TORSDOF 2
