MODEL 1
REMARK VINA RESULT:      -5.0      0.000      0.000
REMARK  Name = *****
REMARK  8 active torsions:
REMARK  status: ('A' for Active; 'I' for Inactive)
REMARK    1  A    between atoms: C_1  and  C_2
REMARK    2  A    between atoms: C_4  and  C_9
REMARK    3  A    between atoms: C_5  and  C_8
REMARK    4  A    between atoms: C_10  and  C_11
REMARK    5  A    between atoms: C_12  and  O_19
REMARK    6  A    between atoms: C_15  and  O_17
REMARK    7  A    between atoms: O_17  and  C_18
REMARK    8  A    between atoms: O_19  and  C_20
REMARK                            x       y       z     vdW  Elec       q    Type
REMARK                         _______ _______ _______ _____ _____    ______ ____
ROOT
ATOM      1  C   UNL     1      86.780  71.387  85.866  0.00  0.00    +0.000 C 
ATOM      2  C   UNL     1      87.371  71.935  84.793  0.00  0.00    +0.000 C 
ENDROOT
BRANCH   1   6
ATOM      3  C   UNL     1      82.329  73.505  85.058  0.00  0.00    +0.000 C 
ATOM      4  C   UNL     1      83.336  72.931  86.009  0.00  0.00    +0.000 A 
ATOM      5  C   UNL     1      84.547  72.414  85.533  0.00  0.00    +0.000 A 
ATOM      6  C   UNL     1      85.516  71.903  86.412  0.00  0.00    +0.000 A 
ATOM      7  C   UNL     1      85.275  71.924  87.799  0.00  0.00    +0.000 A 
ATOM      8  C   UNL     1      84.067  72.461  88.272  0.00  0.00    +0.000 A 
ATOM      9  C   UNL     1      83.110  72.962  87.387  0.00  0.00    +0.000 A 
ATOM     10  C   UNL     1      86.279  71.393  88.786  0.00  0.00    +0.000 C 
ENDBRANCH   1   6
BRANCH   2  11
ATOM     11  C   UNL     1      88.617  71.427  84.196  0.00  0.00    +0.000 A 
ATOM     12  C   UNL     1      89.616  72.310  83.759  0.00  0.00    +0.000 A 
ATOM     13  C   UNL     1      90.831  71.833  83.265  0.00  0.00    +0.000 A 
ATOM     14  C   UNL     1      91.057  70.458  83.171  0.00  0.00    +0.000 A 
ATOM     15  C   UNL     1      90.074  69.560  83.591  0.00  0.00    +0.000 A 
ATOM     16  C   UNL     1      88.867  70.050  84.106  0.00  0.00    +0.000 A 
BRANCH  15  17
ATOM     17  O   UNL     1      90.170  68.196  83.562  0.00  0.00    +0.000 OA
ATOM     18  C   UNL     1      89.960  67.509  84.789  0.00  0.00    +0.000 C 
ENDBRANCH  15  17
BRANCH  12  19
ATOM     19  O   UNL     1      89.457  73.671  83.861  0.00  0.00    +0.000 OA
ATOM     20  C   UNL     1      89.318  74.244  82.560  0.00  0.00    +0.000 C 
ENDBRANCH  12  19
ENDBRANCH   2  11
TORSDOF 4
ENDMDL
