MODEL 1
REMARK VINA RESULT:      -4.9      0.000      0.000
REMARK  Name = *****
REMARK  4 active torsions:
REMARK  status: ('A' for Active; 'I' for Inactive)
REMARK    1  A    between atoms: C_1  and  C_2
REMARK    2  A    between atoms: C_2  and  C_4
REMARK    3  A    between atoms: C_9  and  C_10
REMARK    4  A    between atoms: C_11  and  C_12
REMARK                            x       y       z     vdW  Elec       q    Type
REMARK                         _______ _______ _______ _____ _____    ______ ____
ROOT
ATOM      1  C   UNL     1      99.624 128.673  83.629  0.00  0.00    +0.000 A 
ATOM      2  C   UNL     1      98.961 129.870  83.952  0.00  0.00    +0.000 A 
ATOM      3  C   UNL     1      99.682 130.979  84.392  0.00  0.00    +0.000 A 
ATOM      4  C   UNL     1     101.066 130.900  84.507  0.00  0.00    +0.000 A 
ATOM      5  C   UNL     1     101.729 129.711  84.192  0.00  0.00    +0.000 A 
ATOM      6  C   UNL     1     101.023 128.571  83.767  0.00  0.00    +0.000 A 
ENDROOT
BRANCH   1   8
ATOM      7  C   UNL     1      98.310 126.549  84.207  0.00  0.00    +0.000 C 
ATOM      8  C   UNL     1      98.794 127.527  83.168  0.00  0.00    +0.000 C 
ATOM      9  O   UNL     1      98.541 127.376  81.977  0.00  0.00    +0.000 OA
ENDBRANCH   1   8
BRANCH   6  10
ATOM     10  C   UNL     1     101.770 127.353  83.393  0.00  0.00    +0.000 C 
ATOM     11  C   UNL     1     102.293 127.141  82.173  0.00  0.00    +0.000 C 
BRANCH  11  12
ATOM     12  C   UNL     1     103.051 125.937  81.800  0.00  0.00    +0.000 A 
ATOM     13  C   UNL     1     103.537 125.726  80.503  0.00  0.00    +0.000 A 
ATOM     14  C   UNL     1     104.286 124.586  80.199  0.00  0.00    +0.000 A 
ATOM     15  C   UNL     1     104.566 123.650  81.192  0.00  0.00    +0.000 A 
ATOM     16  C   UNL     1     104.103 123.855  82.488  0.00  0.00    +0.000 A 
ATOM     17  C   UNL     1     103.353 124.994  82.792  0.00  0.00    +0.000 A 
ENDBRANCH  11  12
ENDBRANCH   6  10
TORSDOF 3
ENDMDL
