MODEL 1
REMARK VINA RESULT:      -4.1      0.000      0.000
REMARK  Name = *****
REMARK  4 active torsions:
REMARK  status: ('A' for Active; 'I' for Inactive)
REMARK    1  A    between atoms: C_4  and  C_7
REMARK    2  A    between atoms: C_7  and  C_8
REMARK    3  A    between atoms: C_8  and  C_9
REMARK    4  A    between atoms: C_9  and  C_10
REMARK                            x       y       z     vdW  Elec       q    Type
REMARK                         _______ _______ _______ _____ _____    ______ ____
ROOT
ATOM      1  C   UNL     1     102.918 127.327  82.940  0.00  0.00    +0.000 C 
ENDROOT
BRANCH   1   5
ATOM      2  C   UNL     1      98.665 128.042  82.951  0.00  0.00    +0.000 A 
ATOM      3  C   UNL     1      99.173 126.864  82.405  0.00  0.00    +0.000 A 
ATOM      4  C   UNL     1     100.549 126.629  82.405  0.00  0.00    +0.000 A 
ATOM      5  C   UNL     1     101.429 127.570  82.956  0.00  0.00    +0.000 A 
ATOM      6  C   UNL     1     100.910 128.754  83.496  0.00  0.00    +0.000 A 
ATOM      7  C   UNL     1      99.533 128.987  83.495  0.00  0.00    +0.000 A 
ENDBRANCH   1   5
BRANCH   1   8
ATOM      8  C   UNL     1     103.616 128.159  81.863  0.00  0.00    +0.000 C 
BRANCH   8   9
ATOM      9  C   UNL     1     103.508 127.488  80.493  0.00  0.00    +0.000 C 
BRANCH   9  10
ATOM     10  C   UNL     1     104.355 126.251  80.400  0.00  0.00    +0.000 A 
ATOM     11  C   UNL     1     105.732 126.247  80.271  0.00  0.00    +0.000 A 
ATOM     12  S   UNL     1     106.385 124.669  80.190  0.00  0.00    +0.000 S 
ATOM     13  C   UNL     1     104.836 123.963  80.325  0.00  0.00    +0.000 A 
ATOM     14  C   UNL     1     103.844 124.912  80.430  0.00  0.00    +0.000 A 
ENDBRANCH   9  10
ENDBRANCH   8   9
ENDBRANCH   1   8
TORSDOF 4
ENDMDL
