MODEL 1
REMARK VINA RESULT:      -4.5      0.000      0.000
REMARK  Name = *****
REMARK  4 active torsions:
REMARK  status: ('A' for Active; 'I' for Inactive)
REMARK    1  A    between atoms: C_2  and  C_3
REMARK    2  A    between atoms: C_2  and  S_10
REMARK    3  A    between atoms: C_3  and  C_4
REMARK    4  A    between atoms: S_10  and  C_11
REMARK                            x       y       z     vdW  Elec       q    Type
REMARK                         _______ _______ _______ _____ _____    ______ ____
ROOT
ATOM      1  C   UNL     1     103.370 127.195  80.587  0.00  0.00    +0.000 C 
ATOM      2  C   UNL     1     103.264 126.389  81.657  0.00  0.00    +0.000 C 
ENDROOT
BRANCH   2   3
ATOM      3  C   UNL     1     101.930 125.869  82.156  0.00  0.00    +0.000 C 
BRANCH   3   4
ATOM      4  C   UNL     1     100.973 126.955  82.605  0.00  0.00    +0.000 A 
ATOM      5  C   UNL     1     101.449 128.075  83.301  0.00  0.00    +0.000 A 
ATOM      6  C   UNL     1     100.570 129.077  83.716  0.00  0.00    +0.000 A 
ATOM      7  C   UNL     1      99.208 128.969  83.439  0.00  0.00    +0.000 A 
ATOM      8  C   UNL     1      98.724 127.860  82.747  0.00  0.00    +0.000 A 
ATOM      9  C   UNL     1      99.602 126.857  82.331  0.00  0.00    +0.000 A 
ENDBRANCH   3   4
ENDBRANCH   2   3
BRANCH   2  10
ATOM     10  S   UNL     1     104.727 125.909  82.488  0.00  0.00    +0.000 S 
BRANCH  10  11
ATOM     11  C   UNL     1     104.731 124.164  82.111  0.00  0.00    +0.000 A 
ATOM     12  C   UNL     1     104.868 123.707  80.796  0.00  0.00    +0.000 A 
ATOM     13  C   UNL     1     104.863 122.337  80.522  0.00  0.00    +0.000 A 
ATOM     14  C   UNL     1     104.711 121.419  81.560  0.00  0.00    +0.000 A 
ATOM     15  C   UNL     1     104.562 121.868  82.872  0.00  0.00    +0.000 A 
ATOM     16  C   UNL     1     104.568 123.238  83.146  0.00  0.00    +0.000 A 
ENDBRANCH  10  11
ENDBRANCH   2  10
TORSDOF 4
ENDMDL
