MODEL 1
REMARK VINA RESULT:      -4.1      0.000      0.000
REMARK  Name = *****
REMARK  4 active torsions:
REMARK  status: ('A' for Active; 'I' for Inactive)
REMARK    1  A    between atoms: N_2  and  C_3
REMARK    2  A    between atoms: C_8  and  O_9
REMARK    3  A    between atoms: O_9  and  C_10
REMARK    4  A    between atoms: C_10  and  C_11
REMARK                            x       y       z     vdW  Elec       q    Type
REMARK                         _______ _______ _______ _____ _____    ______ ____
ROOT
ATOM      1  C   UNL     1     100.766 128.715  83.606  0.00  0.00    +0.000 A 
ATOM      2  C   UNL     1      99.423 129.096  83.626  0.00  0.00    +0.000 A 
ATOM      3  C   UNL     1      98.465 128.262  83.048  0.00  0.00    +0.000 A 
ATOM      4  C   UNL     1      98.855 127.063  82.447  0.00  0.00    +0.000 A 
ATOM      5  C   UNL     1     100.201 126.689  82.430  0.00  0.00    +0.000 A 
ATOM      6  C   UNL     1     101.159 127.506  83.032  0.00  0.00    +0.000 A 
ENDROOT
BRANCH   1   8
ATOM      7  C   UNL     1     102.504 130.315  84.594  0.00  0.00    +0.000 C 
ATOM      8  N   UNL     1     101.703 129.578  84.157  0.00  0.00    +0.000 NA
ENDBRANCH   1   8
BRANCH   6   9
ATOM      9  O   UNL     1     102.462 127.099  82.959  0.00  0.00    +0.000 OA
BRANCH   9  10
ATOM     10  C   UNL     1     102.832 126.745  81.620  0.00  0.00    +0.000 C 
BRANCH  10  11
ATOM     11  C   UNL     1     103.503 125.395  81.658  0.00  0.00    +0.000 A 
ATOM     12  C   UNL     1     103.644 124.704  82.869  0.00  0.00    +0.000 A 
ATOM     13  C   UNL     1     104.280 123.461  82.904  0.00  0.00    +0.000 A 
ATOM     14  C   UNL     1     104.788 122.904  81.731  0.00  0.00    +0.000 A 
ATOM     15  C   UNL     1     104.665 123.590  80.524  0.00  0.00    +0.000 A 
ATOM     16  C   UNL     1     104.029 124.832  80.488  0.00  0.00    +0.000 A 
ENDBRANCH  10  11
ENDBRANCH   9  10
ENDBRANCH   6   9
TORSDOF 4
ENDMDL
