MODEL 1
REMARK VINA RESULT:      -4.6      0.000      0.000
REMARK  Name = *****
REMARK  4 active torsions:
REMARK  status: ('A' for Active; 'I' for Inactive)
REMARK    1  A    between atoms: C_4  and  C_7
REMARK    2  A    between atoms: C_7  and  O_9
REMARK    3  A    between atoms: O_9  and  C_10
REMARK    4  A    between atoms: C_10  and  C_11
REMARK                            x       y       z     vdW  Elec       q    Type
REMARK                         _______ _______ _______ _____ _____    ______ ____
ROOT
ATOM      1  O   UNL     1     103.442 125.151  80.114  0.00  0.00    +0.000 OA
ENDROOT
BRANCH   1   2
ATOM      2  C   UNL     1     104.596 124.441  80.071  0.00  0.00    +0.000 C 
ATOM      3  O   UNL     1     105.536 124.639  79.317  0.00  0.00    +0.000 OA
BRANCH   2   7
ATOM      4  C   UNL     1     104.554 121.245  82.931  0.00  0.00    +0.000 A 
ATOM      5  C   UNL     1     104.435 122.560  83.378  0.00  0.00    +0.000 A 
ATOM      6  C   UNL     1     104.447 123.616  82.464  0.00  0.00    +0.000 A 
ATOM      7  C   UNL     1     104.579 123.358  81.092  0.00  0.00    +0.000 A 
ATOM      8  C   UNL     1     104.696 122.032  80.650  0.00  0.00    +0.000 A 
ATOM      9  C   UNL     1     104.683 120.980  81.569  0.00  0.00    +0.000 A 
ENDBRANCH   2   7
ENDBRANCH   1   2
BRANCH   1  10
ATOM     10  C   UNL     1     103.588 126.558  80.340  0.00  0.00    +0.000 C 
BRANCH  10  11
ATOM     11  C   UNL     1     102.808 126.948  81.569  0.00  0.00    +0.000 A 
ATOM     12  C   UNL     1     103.129 128.117  82.275  0.00  0.00    +0.000 A 
ATOM     13  C   UNL     1     102.417 128.457  83.425  0.00  0.00    +0.000 A 
ATOM     14  C   UNL     1     101.389 127.640  83.890  0.00  0.00    +0.000 A 
ATOM     15  C   UNL     1     101.073 126.469  83.201  0.00  0.00    +0.000 A 
ATOM     16  C   UNL     1     101.781 126.123  82.049  0.00  0.00    +0.000 A 
ATOM     17 CL   UNL     1     102.817 129.896  84.281  0.00  0.00    +0.000 Cl
ENDBRANCH  10  11
ENDBRANCH   1  10
TORSDOF 4
ENDMDL
