MODEL 1
REMARK VINA RESULT:      -4.6      0.000      0.000
REMARK  Name = *****
REMARK  4 active torsions:
REMARK  status: ('A' for Active; 'I' for Inactive)
REMARK    1  A    between atoms: C_4  and  C_7
REMARK    2  A    between atoms: C_7  and  C_8
REMARK    3  A    between atoms: C_8  and  S_11
REMARK    4  A    between atoms: S_11  and  C_12
REMARK                            x       y       z     vdW  Elec       q    Type
REMARK                         _______ _______ _______ _____ _____    ______ ____
ROOT
ATOM      1  C   UNL     1     103.463 126.892  81.338  0.00  0.00    +0.000 C 
ATOM      2  C   UNL     1     103.960 128.079  80.964  0.00  0.00    +0.000 C 
ATOM      3  F   UNL     1     104.131 129.106  81.821  0.00  0.00    +0.000 F 
ENDROOT
BRANCH   1   4
ATOM      4  C   UNL     1     103.262 125.711  80.405  0.00  0.00    +0.000 C 
BRANCH   4   8
ATOM      5  C   UNL     1     106.449 122.806  80.206  0.00  0.00    +0.000 A 
ATOM      6  C   UNL     1     106.460 123.910  79.356  0.00  0.00    +0.000 A 
ATOM      7  C   UNL     1     105.435 124.854  79.423  0.00  0.00    +0.000 A 
ATOM      8  C   UNL     1     104.391 124.703  80.347  0.00  0.00    +0.000 A 
ATOM      9  C   UNL     1     104.387 123.585  81.195  0.00  0.00    +0.000 A 
ATOM     10  C   UNL     1     105.413 122.643  81.125  0.00  0.00    +0.000 A 
ENDBRANCH   4   8
ENDBRANCH   1   4
BRANCH   1  11
ATOM     11  S   UNL     1     103.046 126.637  83.024  0.00  0.00    +0.000 S 
BRANCH  11  12
ATOM     12  C   UNL     1     101.412 127.352  83.017  0.00  0.00    +0.000 A 
ATOM     13  C   UNL     1     101.178 128.617  83.567  0.00  0.00    +0.000 A 
ATOM     14  C   UNL     1      99.893 129.164  83.556  0.00  0.00    +0.000 A 
ATOM     15  C   UNL     1      98.835 128.446  83.003  0.00  0.00    +0.000 A 
ATOM     16  C   UNL     1      99.057 127.179  82.464  0.00  0.00    +0.000 A 
ATOM     17  C   UNL     1     100.342 126.631  82.475  0.00  0.00    +0.000 A 
ENDBRANCH  11  12
ENDBRANCH   1  11
TORSDOF 4
ENDMDL
