REMARK  Name = *****
REMARK  4 active torsions:
REMARK  status: ('A' for Active; 'I' for Inactive)
REMARK    1  A    between atoms: C_1  and  C_2
REMARK    2  A    between atoms: C_3  and  C_4
REMARK    3  A    between atoms: C_3  and  S_10
REMARK    4  A    between atoms: S_10  and  C_11
REMARK                            x       y       z     vdW  Elec       q    Type
REMARK                         _______ _______ _______ _____ _____    ______ ____
ROOT
ATOM      1  C   UNL     1       0.972   0.162  -0.022  0.00  0.00    +0.000 C 
ATOM      2  C   UNL     1       2.458  -0.004  -0.081  0.00  0.00    +0.000 C 
ATOM      3  C   UNL     1       3.186  -1.003   0.450  0.00  0.00    +0.000 C 
ENDROOT
BRANCH   3   4
ATOM      4  C   UNL     1       2.598  -2.134   1.185  0.00  0.00    +0.000 A 
ATOM      5  C   UNL     1       2.405  -3.370   0.552  0.00  0.00    +0.000 A 
ATOM      6  C   UNL     1       1.836  -4.439   1.248  0.00  0.00    +0.000 A 
ATOM      7  C   UNL     1       1.453  -4.280   2.579  0.00  0.00    +0.000 A 
ATOM      8  C   UNL     1       1.637  -3.054   3.217  0.00  0.00    +0.000 A 
ATOM      9  C   UNL     1       2.205  -1.984   2.523  0.00  0.00    +0.000 A 
ENDBRANCH   3   4
BRANCH   3  10
ATOM     10  S   UNL     1       4.913  -1.056   0.229  0.00  0.00    +0.000 S 
BRANCH  10  11
ATOM     11  C   UNL     1       5.420  -0.501   1.848  0.00  0.00    +0.000 A 
ATOM     12  C   UNL     1       5.826  -1.430   2.811  0.00  0.00    +0.000 A 
ATOM     13  C   UNL     1       6.228  -1.001   4.078  0.00  0.00    +0.000 A 
ATOM     14  C   UNL     1       6.233   0.359   4.384  0.00  0.00    +0.000 A 
ATOM     15  C   UNL     1       5.838   1.291   3.426  0.00  0.00    +0.000 A 
ATOM     16  C   UNL     1       5.435   0.862   2.159  0.00  0.00    +0.000 A 
ENDBRANCH  10  11
ENDBRANCH   3  10
TORSDOF 3
