MODEL 1
REMARK VINA RESULT:      -4.8      0.000      0.000
REMARK  Name = *****
REMARK  6 active torsions:
REMARK  status: ('A' for Active; 'I' for Inactive)
REMARK    1  A    between atoms: C_1  and  C_2
REMARK    2  A    between atoms: C_4  and  O_8
REMARK    3  A    between atoms: O_8  and  C_9
REMARK    4  A    between atoms: C_9  and  O_11
REMARK    5  A    between atoms: O_11  and  C_12
REMARK    6  A    between atoms: C_16  and  C_18
REMARK                            x       y       z     vdW  Elec       q    Type
REMARK                         _______ _______ _______ _____ _____    ______ ____
ROOT
ATOM      1  C   UNL     1     103.416 126.539  80.608  0.00  0.00    +0.000 C 
ATOM      2  O   UNL     1     103.510 127.550  79.923  0.00  0.00    +0.000 OA
ENDROOT
BRANCH   1   3
ATOM      3  O   UNL     1     103.367 126.482  81.993  0.00  0.00    +0.000 OA
BRANCH   3   7
ATOM      4  C   UNL     1      98.472 126.786  82.597  0.00  0.00    +0.000 C 
ATOM      5  C   UNL     1      99.862 127.287  82.856  0.00  0.00    +0.000 A 
ATOM      6  C   UNL     1     100.968 126.618  82.319  0.00  0.00    +0.000 A 
ATOM      7  C   UNL     1     102.252 127.108  82.558  0.00  0.00    +0.000 A 
ATOM      8  C   UNL     1     102.457 128.281  83.281  0.00  0.00    +0.000 A 
ATOM      9  C   UNL     1     101.358 128.958  83.802  0.00  0.00    +0.000 A 
ATOM     10  C   UNL     1     100.066 128.465  83.589  0.00  0.00    +0.000 A 
ENDBRANCH   3   7
ENDBRANCH   1   3
BRANCH   1  11
ATOM     11  O   UNL     1     103.337 125.234  80.140  0.00  0.00    +0.000 OA
BRANCH  11  12
ATOM     12  C   UNL     1     104.526 124.494  80.144  0.00  0.00    +0.000 A 
ATOM     13  C   UNL     1     105.624 124.877  79.376  0.00  0.00    +0.000 A 
ATOM     14  C   UNL     1     106.760 124.070  79.364  0.00  0.00    +0.000 A 
ATOM     15  C   UNL     1     106.785 122.883  80.102  0.00  0.00    +0.000 A 
ATOM     16  C   UNL     1     105.676 122.493  80.866  0.00  0.00    +0.000 A 
ATOM     17  C   UNL     1     104.532 123.300  80.867  0.00  0.00    +0.000 A 
ATOM     18  C   UNL     1     105.691 121.195  81.616  0.00  0.00    +0.000 C 
ENDBRANCH  11  12
ENDBRANCH   1  11
TORSDOF 4
ENDMDL
