MODEL 1
REMARK VINA RESULT:      -4.3      0.000      0.000
REMARK  Name = *****
REMARK  3 active torsions:
REMARK  status: ('A' for Active; 'I' for Inactive)
REMARK    1  A    between atoms: C_4  and  C_8
REMARK    2  A    between atoms: C_8  and  C_9
REMARK    3  A    between atoms: C_9  and  C_10
REMARK                            x       y       z     vdW  Elec       q    Type
REMARK                         _______ _______ _______ _____ _____    ______ ____
ROOT
ATOM      1  C   UNL     1      89.170  70.629  87.221  0.00  0.00    +0.000 C 
ENDROOT
BRANCH   1   5
ATOM      2  C   UNL     1      88.040  68.181  85.487  0.00  0.00    +0.000 C 
ATOM      3  C   UNL     1      89.270  68.197  84.577  0.00  0.00    +0.000 C 
ATOM      4  C   UNL     1      90.021  69.432  85.119  0.00  0.00    +0.000 C 
ATOM      5  C   UNL     1      89.787  69.339  86.664  0.00  0.00    +0.000 C 
ATOM      6  C   UNL     1      88.869  68.088  86.773  0.00  0.00    +0.000 C 
ATOM      7  C   UNL     1      89.716  66.886  86.409  0.00  0.00    +0.000 C 
ATOM      8  C   UNL     1      89.963  66.958  85.093  0.00  0.00    +0.000 C 
ENDBRANCH   1   5
BRANCH   1   9
ATOM      9  C   UNL     1      88.045  70.353  88.225  0.00  0.00    +0.000 C 
BRANCH   9  10
ATOM     10  C   UNL     1      86.772  71.065  87.839  0.00  0.00    +0.000 A 
ATOM     11  C   UNL     1      86.489  71.337  86.494  0.00  0.00    +0.000 A 
ATOM     12  C   UNL     1      85.320  72.011  86.139  0.00  0.00    +0.000 A 
ATOM     13  C   UNL     1      84.425  72.424  87.125  0.00  0.00    +0.000 A 
ATOM     14  C   UNL     1      84.701  72.166  88.467  0.00  0.00    +0.000 A 
ATOM     15  C   UNL     1      85.870  71.491  88.823  0.00  0.00    +0.000 A 
ENDBRANCH   9  10
ENDBRANCH   1   9
TORSDOF 3
ENDMDL
