MODEL 1
REMARK VINA RESULT:      -4.5      0.000      0.000
REMARK  Name = *****
REMARK  4 active torsions:
REMARK  status: ('A' for Active; 'I' for Inactive)
REMARK    1  A    between atoms: C_4  and  S_7
REMARK    2  A    between atoms: S_7  and  C_8
REMARK    3  A    between atoms: C_8  and  C_9
REMARK    4  A    between atoms: C_8  and  C_11
REMARK                            x       y       z     vdW  Elec       q    Type
REMARK                         _______ _______ _______ _____ _____    ______ ____
ROOT
ATOM      1  C   UNL     1     103.223 127.203  81.366  0.00  0.00    +0.000 C 
ENDROOT
BRANCH   1   2
ATOM      2  C   UNL     1     103.741 125.766  81.333  0.00  0.00    +0.000 A 
ATOM      3  C   UNL     1     103.697 124.977  82.496  0.00  0.00    +0.000 A 
ATOM      4  C   UNL     1     104.180 123.665  82.488  0.00  0.00    +0.000 A 
ATOM      5  C   UNL     1     104.716 123.131  81.319  0.00  0.00    +0.000 A 
ATOM      6  C   UNL     1     104.777 123.896  80.159  0.00  0.00    +0.000 A 
ATOM      7  C   UNL     1     104.297 125.209  80.164  0.00  0.00    +0.000 A 
ATOM      8 CL   UNL     1     105.311 121.517  81.312  0.00  0.00    +0.000 Cl
ENDBRANCH   1   2
BRANCH   1   9
ATOM      9  C   UNL     1     104.134 128.149  80.684  0.00  0.00    +0.000 C 
ATOM     10  N   UNL     1     104.850 128.895  80.152  0.00  0.00    +0.000 NA
ENDBRANCH   1   9
BRANCH   1  11
ATOM     11  S   UNL     1     102.884 127.688  83.117  0.00  0.00    +0.000 S 
BRANCH  11  15
ATOM     12  C   UNL     1      98.313 127.904  82.957  0.00  0.00    +0.000 A 
ATOM     13  C   UNL     1      99.038 128.949  83.529  0.00  0.00    +0.000 A 
ATOM     14  C   UNL     1     100.432 128.889  83.576  0.00  0.00    +0.000 A 
ATOM     15  C   UNL     1     101.105 127.779  83.057  0.00  0.00    +0.000 A 
ATOM     16  C   UNL     1     100.374 126.740  82.474  0.00  0.00    +0.000 A 
ATOM     17  C   UNL     1      98.980 126.802  82.428  0.00  0.00    +0.000 A 
ENDBRANCH  11  15
ENDBRANCH   1  11
TORSDOF 4
ENDMDL
