MODEL 1
REMARK VINA RESULT:      -4.6      0.000      0.000
REMARK  Name = *****
REMARK  6 active torsions:
REMARK  status: ('A' for Active; 'I' for Inactive)
REMARK    1  A    between atoms: C_1  and  C_2
REMARK    2  A    between atoms: C_7  and  C_8
REMARK    3  A    between atoms: C_8  and  C_9
REMARK    4  A    between atoms: C_9  and  C_10
REMARK    5  A    between atoms: C_15  and  C_16
REMARK    6  A    between atoms: C_16  and  C_18
REMARK                            x       y       z     vdW  Elec       q    Type
REMARK                         _______ _______ _______ _____ _____    ______ ____
ROOT
ATOM      1  C   UNL     1      87.422  70.599  87.906  0.00  0.00    +0.000 C 
ENDROOT
BRANCH   1   2
ATOM      2  C   UNL     1      86.222  71.369  87.405  0.00  0.00    +0.000 A 
ATOM      3  C   UNL     1      85.273  71.836  88.328  0.00  0.00    +0.000 A 
ATOM      4  C   UNL     1      84.119  72.495  87.899  0.00  0.00    +0.000 A 
ATOM      5  C   UNL     1      83.885  72.689  86.539  0.00  0.00    +0.000 A 
ATOM      6  C   UNL     1      84.811  72.231  85.604  0.00  0.00    +0.000 A 
ATOM      7  C   UNL     1      85.974  71.584  86.037  0.00  0.00    +0.000 A 
BRANCH   7   8
ATOM      8  C   UNL     1      86.920  71.138  84.996  0.00  0.00    +0.000 C 
ATOM      9  O   UNL     1      87.887  71.837  84.716  0.00  0.00    +0.000 OA
ATOM     10  C   UNL     1      86.659  69.802  84.357  0.00  0.00    +0.000 C 
ENDBRANCH   7   8
ENDBRANCH   1   2
BRANCH   1  11
ATOM     11  C   UNL     1      87.086  69.124  88.151  0.00  0.00    +0.000 C 
BRANCH  11  18
ATOM     12  C   UNL     1      86.828  66.118  88.222  0.00  0.00    +0.000 C 
ATOM     13  C   UNL     1      87.963  66.803  87.509  0.00  0.00    +0.000 A 
ATOM     14  C   UNL     1      88.927  66.017  86.858  0.00  0.00    +0.000 A 
ATOM     15  C   UNL     1      90.000  66.607  86.189  0.00  0.00    +0.000 A 
ATOM     16  C   UNL     1      90.125  67.991  86.163  0.00  0.00    +0.000 A 
ATOM     17  C   UNL     1      89.178  68.786  86.808  0.00  0.00    +0.000 A 
ATOM     18  C   UNL     1      88.093  68.208  87.490  0.00  0.00    +0.000 A 
ENDBRANCH  11  18
ENDBRANCH   1  11
TORSDOF 4
ENDMDL
