MODEL 1
REMARK VINA RESULT:      -4.1      0.000      0.000
REMARK  Name = *****
REMARK  4 active torsions:
REMARK  status: ('A' for Active; 'I' for Inactive)
REMARK    1  A    between atoms: C_3  and  O_9
REMARK    2  A    between atoms: O_9  and  C_10
REMARK    3  A    between atoms: C_10  and  C_12
REMARK    4  A    between atoms: C_12  and  C_13
REMARK                            x       y       z     vdW  Elec       q    Type
REMARK                         _______ _______ _______ _____ _____    ______ ____
ROOT
ATOM      1  O   UNL     1     103.938 125.763  83.050  0.00  0.00    +0.000 OA
ENDROOT
BRANCH   1   4
ATOM      2  C   UNL     1     104.813 122.513  81.582  0.00  0.00    +0.000 A 
ATOM      3  C   UNL     1     104.356 123.475  82.481  0.00  0.00    +0.000 A 
ATOM      4  C   UNL     1     104.377 124.822  82.112  0.00  0.00    +0.000 A 
ATOM      5  C   UNL     1     104.879 125.234  80.870  0.00  0.00    +0.000 A 
ATOM      6  C   UNL     1     105.337 124.259  79.976  0.00  0.00    +0.000 A 
ATOM      7  C   UNL     1     105.300 122.904  80.333  0.00  0.00    +0.000 A 
ATOM      8 CL   UNL     1     105.974 124.655  78.418  0.00  0.00    +0.000 Cl
ATOM      9 CL   UNL     1     104.936 126.922  80.488  0.00  0.00    +0.000 Cl
ENDBRANCH   1   4
BRANCH   1  10
ATOM     10  C   UNL     1     102.589 125.604  83.376  0.00  0.00    +0.000 C 
ATOM     11  O   UNL     1     102.161 125.223  84.458  0.00  0.00    +0.000 OA
BRANCH  10  12
ATOM     12  C   UNL     1     101.769 126.066  82.189  0.00  0.00    +0.000 C 
BRANCH  12  13
ATOM     13  C   UNL     1     100.676 127.001  82.608  0.00  0.00    +0.000 A 
ATOM     14  C   UNL     1      99.316 126.879  82.407  0.00  0.00    +0.000 A 
ATOM     15  C   UNL     1      98.586 127.970  82.959  0.00  0.00    +0.000 A 
ATOM     16  C   UNL     1      99.412 128.888  83.568  0.00  0.00    +0.000 A 
ATOM     17  S   UNL     1     101.056 128.434  83.472  0.00  0.00    +0.000 S 
ENDBRANCH  12  13
ENDBRANCH  10  12
ENDBRANCH   1  10
TORSDOF 4
ENDMDL
