MODEL 1
REMARK VINA RESULT:      -4.3      0.000      0.000
REMARK  Name = *****
REMARK  4 active torsions:
REMARK  status: ('A' for Active; 'I' for Inactive)
REMARK    1  A    between atoms: C_4  and  C_7
REMARK    2  A    between atoms: C_7  and  O_9
REMARK    3  A    between atoms: O_9  and  C_10
REMARK    4  A    between atoms: C_10  and  C_11
REMARK                            x       y       z     vdW  Elec       q    Type
REMARK                         _______ _______ _______ _____ _____    ______ ____
ROOT
ATOM      1  O   UNL     1      99.961 126.554  83.290  0.00  0.00    +0.000 OA
ENDROOT
BRANCH   1   2
ATOM      2  C   UNL     1      98.925 127.390  82.997  0.00  0.00    +0.000 C 
ATOM      3  O   UNL     1      98.148 127.235  82.065  0.00  0.00    +0.000 OA
BRANCH   2   7
ATOM      4  C   UNL     1     100.314 130.730  85.441  0.00  0.00    +0.000 C 
ATOM      5  C   UNL     1      99.443 131.046  84.230  0.00  0.00    +0.000 C 
ATOM      6  C   UNL     1      99.374 129.867  83.262  0.00  0.00    +0.000 C 
ATOM      7  C   UNL     1      98.908 128.577  83.953  0.00  0.00    +0.000 C 
ATOM      8  C   UNL     1      99.781 128.279  85.182  0.00  0.00    +0.000 C 
ATOM      9  C   UNL     1      99.847 129.462  86.144  0.00  0.00    +0.000 C 
ENDBRANCH   2   7
ENDBRANCH   1   2
BRANCH   1  10
ATOM     10  C   UNL     1     100.899 126.310  82.227  0.00  0.00    +0.000 C 
BRANCH  10  11
ATOM     11  C   UNL     1     102.320 126.609  82.697  0.00  0.00    +0.000 C 
ATOM     12  C   UNL     1     102.711 128.101  82.597  0.00  0.00    +0.000 C 
ATOM     13  C   UNL     1     104.058 128.051  81.850  0.00  0.00    +0.000 C 
ATOM     14  C   UNL     1     103.787 127.724  80.372  0.00  0.00    +0.000 C 
ATOM     15  C   UNL     1     103.400 126.239  80.412  0.00  0.00    +0.000 C 
ATOM     16  C   UNL     1     103.454 125.907  81.913  0.00  0.00    +0.000 C 
ATOM     17  C   UNL     1     104.662 126.740  82.354  0.00  0.00    +0.000 C 
ENDBRANCH  10  11
ENDBRANCH   1  10
TORSDOF 4
ENDMDL
