REMARK  Name = *****
REMARK  5 active torsions:
REMARK  status: ('A' for Active; 'I' for Inactive)
REMARK    1  A    between atoms: C_1  and  C_2
REMARK    2  A    between atoms: C_7  and  O_8
REMARK    3  A    between atoms: O_8  and  C_9
REMARK    4  A    between atoms: C_9  and  C_11
REMARK    5  A    between atoms: C_13  and  C_17
REMARK                            x       y       z     vdW  Elec       q    Type
REMARK                         _______ _______ _______ _____ _____    ______ ____
ROOT
ATOM      1  C   UNL     1       2.165  -2.426  -0.012  0.00  0.00    +0.000 C 
ATOM      2  O   UNL     1       2.596  -3.235  -0.818  0.00  0.00    +0.000 OA
ENDROOT
BRANCH   1   3
ATOM      3  C   UNL     1       3.045  -1.650   0.909  0.00  0.00    +0.000 A 
ATOM      4  C   UNL     1       2.550  -0.690   1.805  0.00  0.00    +0.000 A 
ATOM      5  C   UNL     1       3.422   0.012   2.658  0.00  0.00    +0.000 A 
ATOM      6  C   UNL     1       4.799  -0.250   2.589  0.00  0.00    +0.000 A 
ATOM      7  C   UNL     1       5.296  -1.203   1.700  0.00  0.00    +0.000 A 
ATOM      8  C   UNL     1       4.423  -1.900   0.865  0.00  0.00    +0.000 A 
BRANCH   5   9
ATOM      9  C   UNL     1       2.888   1.062   3.602  0.00  0.00    +0.000 C 
ATOM     10  F   UNL     1       1.632   0.784   4.049  0.00  0.00    +0.000 F 
ATOM     11  F   UNL     1       3.653   1.219   4.718  0.00  0.00    +0.000 F 
ATOM     12  F   UNL     1       2.816   2.290   3.020  0.00  0.00    +0.000 F 
ENDBRANCH   5   9
ENDBRANCH   1   3
BRANCH   1  13
ATOM     13  O   UNL     1       0.846  -2.084   0.214  0.00  0.00    +0.000 OA
BRANCH  13  20
ATOM     14  C   UNL     1      -0.364  -4.491   1.233  0.00  0.00    +0.000 C 
ATOM     15  C   UNL     1      -0.690  -3.928  -0.118  0.00  0.00    +0.000 A 
ATOM     16  C   UNL     1      -1.614  -4.572  -0.951  0.00  0.00    +0.000 A 
ATOM     17  C   UNL     1      -1.911  -4.056  -2.216  0.00  0.00    +0.000 A 
ATOM     18  C   UNL     1      -1.288  -2.891  -2.666  0.00  0.00    +0.000 A 
ATOM     19  C   UNL     1      -0.359  -2.243  -1.856  0.00  0.00    +0.000 A 
ATOM     20  C   UNL     1      -0.055  -2.777  -0.602  0.00  0.00    +0.000 A 
ENDBRANCH  13  20
ENDBRANCH   1  13
TORSDOF 4
