MODEL 1
REMARK VINA RESULT:      -4.9      0.000      0.000
REMARK  Name = *****
REMARK  1 active torsions:
REMARK  status: ('A' for Active; 'I' for Inactive)
REMARK    1  A    between atoms: C_8  and  C_10
REMARK                            x       y       z     vdW  Elec       q    Type
REMARK                         _______ _______ _______ _____ _____    ______ ____
ROOT
ATOM      1  C   UNL     1     105.956 123.742  79.392  0.00  0.00    +0.000 A 
ATOM      2  C   UNL     1     105.584 122.784  80.344  0.00  0.00    +0.000 A 
ATOM      3  C   UNL     1     104.619 123.062  81.319  0.00  0.00    +0.000 A 
ATOM      4  C   UNL     1     104.068 124.335  81.275  0.00  0.00    +0.000 A 
ATOM      5  C   UNL     1     104.405 125.310  80.350  0.00  0.00    +0.000 A 
ATOM      6  C   UNL     1     105.372 125.019  79.381  0.00  0.00    +0.000 A 
ATOM      7  N   UNL     1     103.674 126.448  80.585  0.00  0.00    +0.000 NA
ATOM      8  C   UNL     1     102.932 126.134  81.632  0.00  0.00    +0.000 A 
ATOM      9  O   UNL     1     103.120 124.859  82.104  0.00  0.00    +0.000 OA
ENDROOT
BRANCH   8  10
ATOM     10  C   UNL     1     101.954 126.957  82.338  0.00  0.00    +0.000 A 
ATOM     11  C   UNL     1     100.601 126.583  82.326  0.00  0.00    +0.000 A 
ATOM     12  C   UNL     1      99.647 127.356  82.988  0.00  0.00    +0.000 A 
ATOM     13  C   UNL     1     100.019 128.510  83.670  0.00  0.00    +0.000 A 
ATOM     14  C   UNL     1     101.358 128.886  83.685  0.00  0.00    +0.000 A 
ATOM     15  C   UNL     1     102.322 128.121  83.027  0.00  0.00    +0.000 A 
ATOM     16 CL   UNL     1     101.831 130.315  84.521  0.00  0.00    +0.000 Cl
ATOM     17 CL   UNL     1      97.995 126.877  82.963  0.00  0.00    +0.000 Cl
ENDBRANCH   8  10
TORSDOF 1
ENDMDL
