MODEL 1
REMARK VINA RESULT:      -4.7      0.000      0.000
REMARK  Name = *****
REMARK  5 active torsions:
REMARK  status: ('A' for Active; 'I' for Inactive)
REMARK    1  A    between atoms: C_1  and  C_2
REMARK    2  A    between atoms: C_2  and  S_3
REMARK    3  A    between atoms: S_3  and  C_4
REMARK    4  A    between atoms: C_4  and  C_12
REMARK    5  A    between atoms: C_5  and  C_6
REMARK                            x       y       z     vdW  Elec       q    Type
REMARK                         _______ _______ _______ _____ _____    ______ ____
ROOT
ATOM      1  C   UNL     1     102.950 125.872  81.733  0.00  0.00    +0.000 C 
ATOM      2  C   UNL     1     101.904 125.870  82.580  0.00  0.00    +0.000 C 
ENDROOT
BRANCH   2   3
ATOM      3  C   UNL     1     100.948 126.960  82.816  0.00  0.00    +0.000 A 
ATOM      4  C   UNL     1      99.617 126.870  82.392  0.00  0.00    +0.000 A 
ATOM      5  C   UNL     1      98.723 127.911  82.649  0.00  0.00    +0.000 A 
ATOM      6  C   UNL     1      99.150 129.044  83.339  0.00  0.00    +0.000 A 
ATOM      7  C   UNL     1     100.471 129.136  83.776  0.00  0.00    +0.000 A 
ATOM      8  C   UNL     1     101.366 128.095  83.520  0.00  0.00    +0.000 A 
ENDBRANCH   2   3
BRANCH   1   9
ATOM      9  C   UNL     1     103.800 124.671  81.631  0.00  0.00    +0.000 A 
ATOM     10  C   UNL     1     104.344 124.281  80.400  0.00  0.00    +0.000 A 
ATOM     11  C   UNL     1     105.136 123.136  80.305  0.00  0.00    +0.000 A 
ATOM     12  C   UNL     1     105.391 122.369  81.440  0.00  0.00    +0.000 A 
ATOM     13  C   UNL     1     104.854 122.743  82.671  0.00  0.00    +0.000 A 
ATOM     14  C   UNL     1     104.060 123.889  82.766  0.00  0.00    +0.000 A 
ENDBRANCH   1   9
BRANCH   1  15
ATOM     15  S   UNL     1     103.408 127.196  80.708  0.00  0.00    +0.000 S 
BRANCH  15  17
ATOM     16  C   UNL     1     104.625 129.172  82.158  0.00  0.00    +0.000 C 
ATOM     17  C   UNL     1     104.879 127.783  81.601  0.00  0.00    +0.000 C 
ENDBRANCH  15  17
ENDBRANCH   1  15
TORSDOF 4
ENDMDL
