MODEL 1
REMARK VINA RESULT:      -3.6      0.000      0.000
REMARK  Name = *****
REMARK  1 active torsions:
REMARK  status: ('A' for Active; 'I' for Inactive)
REMARK    1  A    between atoms: C_4  and  C_7
REMARK                            x       y       z     vdW  Elec       q    Type
REMARK                         _______ _______ _______ _____ _____    ______ ____
ROOT
ATOM      1  C   UNL     1     102.844 126.565  82.882  0.00  0.00    +0.000 A 
ATOM      2  C   UNL     1     101.627 126.039  82.431  0.00  0.00    +0.000 A 
ATOM      3  C   UNL     1     100.592 126.946  82.677  0.00  0.00    +0.000 A 
ATOM      4  C   UNL     1     100.955 128.072  83.300  0.00  0.00    +0.000 A 
ATOM      5  S   UNL     1     102.582 128.127  83.656  0.00  0.00    +0.000 S 
ATOM      6  S   UNL     1      99.677 129.113  83.575  0.00  0.00    +0.000 S 
ATOM      7  C   UNL     1      98.584 127.989  82.819  0.00  0.00    +0.000 A 
ATOM      8  C   UNL     1      99.229 126.841  82.378  0.00  0.00    +0.000 A 
ENDROOT
BRANCH   1  12
ATOM      9  C   UNL     1     105.123 125.682  79.821  0.00  0.00    +0.000 C 
ATOM     10  C   UNL     1     104.119 124.687  80.383  0.00  0.00    +0.000 C 
ATOM     11  S   UNL     1     104.365 124.304  82.143  0.00  0.00    +0.000 S 
ATOM     12  C   UNL     1     104.240 125.971  82.880  0.00  0.00    +0.000 C 
ATOM     13  S   UNL     1     105.522 127.066  82.183  0.00  0.00    +0.000 S 
ATOM     14  C   UNL     1     105.022 127.066  80.443  0.00  0.00    +0.000 C 
ENDBRANCH   1  12
TORSDOF 1
ENDMDL
