MODEL 1
REMARK VINA RESULT:      -4.0      0.000      0.000
REMARK  Name = *****
REMARK  2 active torsions:
REMARK  status: ('A' for Active; 'I' for Inactive)
REMARK    1  A    between atoms: C_4  and  N_7
REMARK    2  A    between atoms: C_8  and  C_9
REMARK                            x       y       z     vdW  Elec       q    Type
REMARK                         _______ _______ _______ _____ _____    ______ ____
ROOT
ATOM      1  N   UNL     1      87.643  64.419  87.152  0.00  0.00    +0.000 NA
ATOM      2  C   UNL     1      87.273  63.727  88.172  0.00  0.00    +0.000 C 
ATOM      3 CL   UNL     1      86.293  62.347  87.796  0.00  0.00    +0.000 Cl
ENDROOT
BRANCH   1   7
ATOM      4  C   UNL     1      89.420  68.127  86.026  0.00  0.00    +0.000 C 
ATOM      5  C   UNL     1      88.312  68.160  87.074  0.00  0.00    +0.000 C 
ATOM      6  C   UNL     1      87.517  66.856  87.093  0.00  0.00    +0.000 C 
ATOM      7  C   UNL     1      88.429  65.642  87.296  0.00  0.00    +0.000 C 
ATOM      8  C   UNL     1      89.529  65.613  86.226  0.00  0.00    +0.000 C 
ATOM      9  C   UNL     1      90.328  66.914  86.203  0.00  0.00    +0.000 C 
ENDBRANCH   1   7
BRANCH   2  10
ATOM     10  C   UNL     1      87.594  64.000  89.585  0.00  0.00    +0.000 A 
ATOM     11  C   UNL     1      86.593  64.479  90.435  0.00  0.00    +0.000 A 
ATOM     12  C   UNL     1      86.889  64.716  91.777  0.00  0.00    +0.000 A 
ATOM     13  C   UNL     1      88.174  64.465  92.262  0.00  0.00    +0.000 A 
ATOM     14  C   UNL     1      89.166  63.972  91.412  0.00  0.00    +0.000 A 
ATOM     15  C   UNL     1      88.878  63.733  90.069  0.00  0.00    +0.000 A 
ENDBRANCH   2  10
TORSDOF 2
ENDMDL
