REMARK  Name = *****
REMARK  3 active torsions:
REMARK  status: ('A' for Active; 'I' for Inactive)
REMARK    1  A    between atoms: C_3  and  C_6
REMARK    2  A    between atoms: C_6  and  C_7
REMARK    3  A    between atoms: C_7  and  C_8
REMARK                            x       y       z     vdW  Elec       q    Type
REMARK                         _______ _______ _______ _____ _____    ______ ____
ROOT
ATOM      1  C   UNL     1      -0.225  -3.270  -0.981  0.00  0.00    +0.000 C 
ATOM      2 CL   UNL     1       0.339  -4.279  -2.361  0.00  0.00    +0.000 Cl
ENDROOT
BRANCH   1   3
ATOM      3  C   UNL     1      -1.720  -3.040  -1.114  0.00  0.00    +0.000 A 
ATOM      4  C   UNL     1      -2.272  -2.368  -2.218  0.00  0.00    +0.000 A 
ATOM      5  C   UNL     1      -3.649  -2.154  -2.307  0.00  0.00    +0.000 A 
ATOM      6  C   UNL     1      -4.488  -2.608  -1.293  0.00  0.00    +0.000 A 
ATOM      7  C   UNL     1      -3.961  -3.274  -0.190  0.00  0.00    +0.000 A 
ATOM      8  C   UNL     1      -2.583  -3.489  -0.101  0.00  0.00    +0.000 A 
ATOM      9 CL   UNL     1      -6.184  -2.341  -1.401  0.00  0.00    +0.000 Cl
ENDBRANCH   1   3
BRANCH   1  10
ATOM     10  C   UNL     1       0.602  -1.977  -0.929  0.00  0.00    +0.000 C 
BRANCH  10  13
ATOM     11  C   UNL     1       1.098   0.396   1.884  0.00  0.00    +0.000 C 
ATOM     12  C   UNL     1       1.142   0.123   0.402  0.00  0.00    +0.000 C 
ATOM     13  C   UNL     1       0.282  -1.128   0.300  0.00  0.00    +0.000 C 
ATOM     14  O   UNL     1       0.533  -1.876   1.502  0.00  0.00    +0.000 OA
ATOM     15  C   UNL     1       1.147  -1.002   2.463  0.00  0.00    +0.000 C 
ENDBRANCH  10  13
ENDBRANCH   1  10
TORSDOF 3
