REMARK  Name = *****
REMARK  3 active torsions:
REMARK  status: ('A' for Active; 'I' for Inactive)
REMARK    1  A    between atoms: C_4  and  C_7
REMARK    2  A    between atoms: C_8  and  C_9
REMARK    3  A    between atoms: C_9  and  C_10
REMARK                            x       y       z     vdW  Elec       q    Type
REMARK                         _______ _______ _______ _____ _____    ______ ____
ROOT
ATOM      1  C   UNL     1      -2.729   0.446  -0.442  0.00  0.00    +0.000 C 
ATOM      2  C   UNL     1      -3.689  -0.489  -0.345  0.00  0.00    +0.000 C 
ENDROOT
BRANCH   1   6
ATOM      3  C   UNL     1       1.426  -0.171   0.361  0.00  0.00    +0.000 A 
ATOM      4  C   UNL     1       0.691  -1.177  -0.262  0.00  0.00    +0.000 A 
ATOM      5  C   UNL     1      -0.669  -0.991  -0.523  0.00  0.00    +0.000 A 
ATOM      6  C   UNL     1      -1.310   0.199  -0.154  0.00  0.00    +0.000 A 
ATOM      7  C   UNL     1      -0.556   1.210   0.457  0.00  0.00    +0.000 A 
ATOM      8  C   UNL     1       0.804   1.023   0.719  0.00  0.00    +0.000 A 
ENDBRANCH   1   6
BRANCH   2   9
ATOM      9  C   UNL     1      -5.140  -0.230  -0.639  0.00  0.00    +0.000 C 
BRANCH   9  10
ATOM     10  C   UNL     1      -5.661  -1.110  -1.749  0.00  0.00    +0.000 A 
ATOM     11  C   UNL     1      -6.417  -2.254  -1.459  0.00  0.00    +0.000 A 
ATOM     12  C   UNL     1      -6.878  -3.063  -2.494  0.00  0.00    +0.000 A 
ATOM     13  C   UNL     1      -6.599  -2.760  -3.821  0.00  0.00    +0.000 A 
ATOM     14  C   UNL     1      -5.842  -1.629  -4.121  0.00  0.00    +0.000 A 
ATOM     15  C   UNL     1      -5.374  -0.809  -3.091  0.00  0.00    +0.000 A 
ATOM     16  F   UNL     1      -7.601  -4.153  -2.205  0.00  0.00    +0.000 F 
ENDBRANCH   9  10
ENDBRANCH   2   9
TORSDOF 3
