REMARK  Name = *****
REMARK  3 active torsions:
REMARK  status: ('A' for Active; 'I' for Inactive)
REMARK    1  A    between atoms: C_4  and  C_7
REMARK    2  A    between atoms: C_8  and  C_9
REMARK    3  A    between atoms: C_12  and  C_14
REMARK                            x       y       z     vdW  Elec       q    Type
REMARK                         _______ _______ _______ _____ _____    ______ ____
ROOT
ATOM      1  C   UNL     1       0.655  -0.146   0.009  0.00  0.00    +0.000 C 
ATOM      2  C   UNL     1      -0.544  -0.214   0.003  0.00  0.00    +0.000 C 
ENDROOT
BRANCH   1   6
ATOM      3  C   UNL     1       4.871   0.106   0.022  0.00  0.00    +0.000 A 
ATOM      4  C   UNL     1       4.103   1.270   0.020  0.00  0.00    +0.000 A 
ATOM      5  C   UNL     1       2.709   1.187   0.016  0.00  0.00    +0.000 A 
ATOM      6  C   UNL     1       2.083  -0.061   0.014  0.00  0.00    +0.000 A 
ATOM      7  C   UNL     1       2.854  -1.226   0.017  0.00  0.00    +0.000 A 
ATOM      8  C   UNL     1       4.247  -1.142   0.021  0.00  0.00    +0.000 A 
ENDBRANCH   1   6
BRANCH   2   9
ATOM      9  C   UNL     1      -1.967  -0.294  -0.006  0.00  0.00    +0.000 A 
ATOM     10  C   UNL     1      -2.690  -1.464  -0.071  0.00  0.00    +0.000 A 
ATOM     11  C   UNL     1      -4.097  -1.229  -0.067  0.00  0.00    +0.000 A 
ATOM     12  C   UNL     1      -4.403   0.117   0.006  0.00  0.00    +0.000 A 
ATOM     13  S   UNL     1      -2.983   1.076   0.062  0.00  0.00    +0.000 S 
BRANCH  12  14
ATOM     14  C   UNL     1      -5.748   0.763   0.026  0.00  0.00    +0.000 C 
ATOM     15 CL   UNL     1      -6.497   0.579   1.629  0.00  0.00    +0.000 Cl
ENDBRANCH  12  14
ENDBRANCH   2   9
TORSDOF 3
