MODEL 1
REMARK VINA RESULT:      -4.5      0.000      0.000
REMARK  Name = *****
REMARK  4 active torsions:
REMARK  status: ('A' for Active; 'I' for Inactive)
REMARK    1  A    between atoms: C_1  and  C_2
REMARK    2  A    between atoms: C_5  and  C_7
REMARK    3  A    between atoms: C_7  and  C_8
REMARK    4  A    between atoms: C_8  and  C_9
REMARK                            x       y       z     vdW  Elec       q    Type
REMARK                         _______ _______ _______ _____ _____    ______ ____
ROOT
ATOM      1  C   UNL     1     102.968 126.985  81.398  0.00  0.00    +0.000 C 
ENDROOT
BRANCH   1   6
ATOM      2  C   UNL     1     105.072 122.449  80.364  0.00  0.00    +0.000 C 
ATOM      3  C   UNL     1     104.480 123.556  81.157  0.00  0.00    +0.000 C 
ATOM      4  C   UNL     1     104.265 123.610  82.483  0.00  0.00    +0.000 C 
ATOM      5  C   UNL     1     103.646 124.927  82.845  0.00  0.00    +0.000 C 
ATOM      6  C   UNL     1     103.545 125.608  81.503  0.00  0.00    +0.000 C 
ATOM      7  C   UNL     1     104.033 124.792  80.554  0.00  0.00    +0.000 C 
ENDBRANCH   1   6
BRANCH   1   8
ATOM      8  C   UNL     1     102.582 127.636  82.732  0.00  0.00    +0.000 C 
BRANCH   8   9
ATOM      9  C   UNL     1     101.084 127.716  82.902  0.00  0.00    +0.000 A 
ATOM     10  C   UNL     1     100.257 126.708  82.387  0.00  0.00    +0.000 A 
ATOM     11  C   UNL     1      98.871 126.791  82.527  0.00  0.00    +0.000 A 
ATOM     12  C   UNL     1      98.299 127.881  83.180  0.00  0.00    +0.000 A 
ATOM     13  C   UNL     1      99.112 128.891  83.689  0.00  0.00    +0.000 A 
ATOM     14  C   UNL     1     100.498 128.811  83.550  0.00  0.00    +0.000 A 
ENDBRANCH   8   9
ENDBRANCH   1   8
TORSDOF 3
ENDMDL
