MODEL 1
REMARK VINA RESULT:      -4.3      0.000      0.000
REMARK  Name = *****
REMARK  3 active torsions:
REMARK  status: ('A' for Active; 'I' for Inactive)
REMARK    1  A    between atoms: C_4  and  N_7
REMARK    2  A    between atoms: N_7  and  C_8
REMARK    3  A    between atoms: C_8  and  C_9
REMARK                            x       y       z     vdW  Elec       q    Type
REMARK                         _______ _______ _______ _____ _____    ______ ____
ROOT
ATOM      1  C   UNL     1     102.595 125.817  81.767  0.00  0.00    +0.000 C 
ENDROOT
BRANCH   1   2
ATOM      2  C   UNL     1     101.746 126.835  82.417  0.00  0.00    +0.000 A 
ATOM      3  C   UNL     1     102.317 127.940  83.057  0.00  0.00    +0.000 A 
ATOM      4  C   UNL     1     101.497 128.891  83.666  0.00  0.00    +0.000 A 
ATOM      5  C   UNL     1     100.112 128.735  83.631  0.00  0.00    +0.000 A 
ATOM      6  C   UNL     1      99.538 127.634  82.993  0.00  0.00    +0.000 A 
ATOM      7  C   UNL     1     100.357 126.679  82.382  0.00  0.00    +0.000 A 
ATOM      8 CL   UNL     1      99.099 129.907  84.379  0.00  0.00    +0.000 Cl
ENDBRANCH   1   2
BRANCH   1   9
ATOM      9  N   UNL     1     103.382 126.114  80.790  0.00  0.00    +0.000 NA
BRANCH   9  13
ATOM     10  C   UNL     1     106.380 123.169  80.036  0.00  0.00    +0.000 C 
ATOM     11  C   UNL     1     105.048 122.695  80.610  0.00  0.00    +0.000 C 
ATOM     12  C   UNL     1     104.237 123.854  81.183  0.00  0.00    +0.000 C 
ATOM     13  C   UNL     1     104.031 124.965  80.146  0.00  0.00    +0.000 C 
ATOM     14  C   UNL     1     105.376 125.439  79.582  0.00  0.00    +0.000 C 
ATOM     15  C   UNL     1     106.186 124.280  79.009  0.00  0.00    +0.000 C 
ENDBRANCH   9  13
ENDBRANCH   1   9
TORSDOF 3
ENDMDL
