REMARK  Name = *****
REMARK  4 active torsions:
REMARK  status: ('A' for Active; 'I' for Inactive)
REMARK    1  A    between atoms: C_1  and  O_2
REMARK    2  A    between atoms: O_2  and  C_3
REMARK    3  A    between atoms: C_8  and  C_9
REMARK    4  A    between atoms: C_10  and  C_11
REMARK                            x       y       z     vdW  Elec       q    Type
REMARK                         _______ _______ _______ _____ _____    ______ ____
ROOT
ATOM      1  C   UNL     1       4.516  -0.962   1.720  0.00  0.00    +0.000 C 
ATOM      2  C   UNL     1       4.842  -0.390   2.725  0.00  0.00    +0.000 C 
ENDROOT
BRANCH   2   3
ATOM      3  C   UNL     1       5.222   0.302   3.917  0.00  0.00    +0.000 A 
ATOM      4  C   UNL     1       4.898   1.653   4.071  0.00  0.00    +0.000 A 
ATOM      5  C   UNL     1       5.268   2.332   5.235  0.00  0.00    +0.000 A 
ATOM      6  C   UNL     1       5.960   1.657   6.240  0.00  0.00    +0.000 A 
ATOM      7  C   UNL     1       6.286   0.309   6.091  0.00  0.00    +0.000 A 
ATOM      8  C   UNL     1       5.916  -0.370   4.927  0.00  0.00    +0.000 A 
ATOM      9 CL   UNL     1       6.416   2.493   7.673  0.00  0.00    +0.000 Cl
ENDBRANCH   2   3
BRANCH   1  15
ATOM     10  C   UNL     1       3.011  -1.213  -0.232  0.00  0.00    +0.000 A 
ATOM     11  C   UNL     1       2.671  -1.910  -1.397  0.00  0.00    +0.000 A 
ATOM     12  C   UNL     1       3.424  -3.015  -1.808  0.00  0.00    +0.000 A 
ATOM     13  C   UNL     1       4.521  -3.434  -1.061  0.00  0.00    +0.000 A 
ATOM     14  C   UNL     1       4.870  -2.747   0.101  0.00  0.00    +0.000 A 
ATOM     15  C   UNL     1       4.122  -1.640   0.518  0.00  0.00    +0.000 A 
BRANCH  10  17
ATOM     16  C   UNL     1       1.176   0.299  -0.465  0.00  0.00    +0.000 C 
ATOM     17  O   UNL     1       2.333  -0.119   0.246  0.00  0.00    +0.000 OA
ENDBRANCH  10  17
ENDBRANCH   1  15
TORSDOF 3
