MODEL 1
REMARK VINA RESULT:      -4.3      0.000      0.000
REMARK  Name = *****
REMARK  4 active torsions:
REMARK  status: ('A' for Active; 'I' for Inactive)
REMARK    1  A    between atoms: C_4  and  C_8
REMARK    2  A    between atoms: C_8  and  O_10
REMARK    3  A    between atoms: O_10  and  C_11
REMARK    4  A    between atoms: C_11  and  C_12
REMARK                            x       y       z     vdW  Elec       q    Type
REMARK                         _______ _______ _______ _____ _____    ______ ____
ROOT
ATOM      1  C   UNL     1     103.577 125.281  80.986  0.00  0.00    +0.000 C 
ATOM      2  O   UNL     1     104.009 124.191  81.341  0.00  0.00    +0.000 OA
ENDROOT
BRANCH   1   6
ATOM      3  C   UNL     1     105.971 128.091  80.259  0.00  0.00    +0.000 C 
ATOM      4  C   UNL     1     104.621 128.709  80.632  0.00  0.00    +0.000 C 
ATOM      5  C   UNL     1     103.640 127.675  80.040  0.00  0.00    +0.000 C 
ATOM      6  C   UNL     1     104.392 126.323  80.249  0.00  0.00    +0.000 C 
ATOM      7  C   UNL     1     105.680 126.772  80.985  0.00  0.00    +0.000 C 
ATOM      8  C   UNL     1     105.315 127.339  82.341  0.00  0.00    +0.000 C 
ATOM      9  C   UNL     1     104.670 128.495  82.127  0.00  0.00    +0.000 C 
ENDBRANCH   1   6
BRANCH   1  10
ATOM     10  O   UNL     1     102.342 125.768  81.285  0.00  0.00    +0.000 OA
BRANCH  10  11
ATOM     11  C   UNL     1     102.020 125.849  82.678  0.00  0.00    +0.000 C 
BRANCH  11  12
ATOM     12  C   UNL     1     100.994 126.930  82.887  0.00  0.00    +0.000 A 
ATOM     13  C   UNL     1      99.679 126.763  82.431  0.00  0.00    +0.000 A 
ATOM     14  C   UNL     1      98.735 127.776  82.609  0.00  0.00    +0.000 A 
ATOM     15  C   UNL     1      99.098 128.967  83.235  0.00  0.00    +0.000 A 
ATOM     16  C   UNL     1     100.406 129.149  83.680  0.00  0.00    +0.000 A 
ATOM     17  C   UNL     1     101.351 128.138  83.503  0.00  0.00    +0.000 A 
ENDBRANCH  11  12
ENDBRANCH  10  11
ENDBRANCH   1  10
TORSDOF 4
ENDMDL
