REMARK  Name = *****
REMARK  4 active torsions:
REMARK  status: ('A' for Active; 'I' for Inactive)
REMARK    1  A    between atoms: C_4  and  C_7
REMARK    2  A    between atoms: C_7  and  C_8
REMARK    3  A    between atoms: C_8  and  C_9
REMARK    4  A    between atoms: C_9  and  C_10
REMARK                            x       y       z     vdW  Elec       q    Type
REMARK                         _______ _______ _______ _____ _____    ______ ____
ROOT
ATOM      1  C   UNL     1      -0.809   1.973   2.791  0.00  0.00    +0.000 C 
ENDROOT
BRANCH   1   2
ATOM      2  C   UNL     1       0.303   1.142   2.134  0.00  0.00    +0.000 C 
BRANCH   2   6
ATOM      3  C   UNL     1       3.739   2.228   0.721  0.00  0.00    +0.000 C 
ATOM      4  C   UNL     1       2.775   3.213   1.367  0.00  0.00    +0.000 C 
ATOM      5  S   UNL     1       1.178   3.302   0.510  0.00  0.00    +0.000 S 
ATOM      6  C   UNL     1       0.616   1.577   0.691  0.00  0.00    +0.000 C 
ATOM      7  S   UNL     1       1.776   0.429  -0.126  0.00  0.00    +0.000 S 
ATOM      8  C   UNL     1       3.296   0.774   0.807  0.00  0.00    +0.000 C 
ENDBRANCH   2   6
ENDBRANCH   1   2
BRANCH   1   9
ATOM      9  C   UNL     1      -1.255   1.431   4.160  0.00  0.00    +0.000 C 
BRANCH   9  10
ATOM     10  C   UNL     1      -0.156   1.320   5.232  0.00  0.00    +0.000 C 
ATOM     11  S   UNL     1       0.781   2.850   5.547  0.00  0.00    +0.000 S 
ATOM     12  C   UNL     1      -0.521   3.875   6.284  0.00  0.00    +0.000 C 
ATOM     13  C   UNL     1      -1.080   3.282   7.570  0.00  0.00    +0.000 C 
ATOM     14  C   UNL     1      -1.839   1.977   7.374  0.00  0.00    +0.000 C 
ATOM     15  S   UNL     1      -0.791   0.614   6.791  0.00  0.00    +0.000 S 
ENDBRANCH   9  10
ENDBRANCH   1   9
TORSDOF 4
