MODEL 1
REMARK VINA RESULT:      -4.3      0.000      0.000
REMARK  Name = *****
REMARK  2 active torsions:
REMARK  status: ('A' for Active; 'I' for Inactive)
REMARK    1  A    between atoms: N_5  and  N_8
REMARK    2  A    between atoms: C_9  and  C_10
REMARK                            x       y       z     vdW  Elec       q    Type
REMARK                         _______ _______ _______ _____ _____    ______ ____
ROOT
ATOM      1  N   UNL     1     101.819 128.000  83.355  0.00  0.00    +0.000 NA
ATOM      2  C   UNL     1     102.978 127.686  82.850  0.00  0.00    +0.000 C 
ENDROOT
BRANCH   2   3
ATOM      3  C   UNL     1     103.446 126.388  82.319  0.00  0.00    +0.000 A 
ATOM      4  C   UNL     1     103.643 126.214  80.943  0.00  0.00    +0.000 A 
ATOM      5  C   UNL     1     104.048 124.971  80.447  0.00  0.00    +0.000 A 
ATOM      6  C   UNL     1     104.242 123.905  81.323  0.00  0.00    +0.000 A 
ATOM      7  C   UNL     1     104.031 124.065  82.691  0.00  0.00    +0.000 A 
ATOM      8  C   UNL     1     103.627 125.304  83.189  0.00  0.00    +0.000 A 
ATOM      9 CL   UNL     1     104.739 122.377  80.709  0.00  0.00    +0.000 Cl
ATOM     10 CL   UNL     1     103.434 127.501  79.809  0.00  0.00    +0.000 Cl
ENDBRANCH   2   3
BRANCH   1  15
ATOM     11  C   UNL     1      97.849 126.710  84.885  0.00  0.00    +0.000 C 
ATOM     12  C   UNL     1      97.541 127.005  83.423  0.00  0.00    +0.000 C 
ATOM     13  C   UNL     1      98.638 127.755  82.673  0.00  0.00    +0.000 C 
ATOM     14  C   UNL     1      99.899 126.912  82.476  0.00  0.00    +0.000 C 
ATOM     15  N   UNL     1     100.916 126.996  83.534  0.00  0.00    +0.000 N 
ATOM     16  C   UNL     1     100.391 126.886  84.909  0.00  0.00    +0.000 C 
ATOM     17  C   UNL     1      99.171 125.989  85.136  0.00  0.00    +0.000 C 
ENDBRANCH   1  15
TORSDOF 2
ENDMDL
