MODEL 1
REMARK VINA RESULT:      -4.1      0.000      0.000
REMARK  Name = *****
REMARK  4 active torsions:
REMARK  status: ('A' for Active; 'I' for Inactive)
REMARK    1  A    between atoms: C_1  and  C_2
REMARK    2  A    between atoms: C_2  and  C_4
REMARK    3  A    between atoms: C_6  and  C_7
REMARK    4  A    between atoms: C_7  and  C_8
REMARK                            x       y       z     vdW  Elec       q    Type
REMARK                         _______ _______ _______ _____ _____    ______ ____
ROOT
ATOM      1  C   UNL     1      88.961  70.429  88.383  0.00  0.00    +0.000 C 
ENDROOT
BRANCH   1   2
ATOM      2  C   UNL     1      89.339  69.968  86.995  0.00  0.00    +0.000 A 
ATOM      3  C   UNL     1      89.709  70.894  86.009  0.00  0.00    +0.000 A 
ATOM      4  C   UNL     1      90.042  70.463  84.724  0.00  0.00    +0.000 A 
ATOM      5  C   UNL     1      90.002  69.106  84.410  0.00  0.00    +0.000 A 
ATOM      6  C   UNL     1      89.627  68.178  85.379  0.00  0.00    +0.000 A 
ATOM      7  C   UNL     1      89.295  68.606  86.665  0.00  0.00    +0.000 A 
ENDBRANCH   1   2
BRANCH   1  10
ATOM      8  C   UNL     1      85.572  71.781  87.971  0.00  0.00    +0.000 C 
ATOM      9  C   UNL     1      86.540  70.987  88.325  0.00  0.00    +0.000 C 
ATOM     10  C   UNL     1      87.510  70.197  88.686  0.00  0.00    +0.000 C 
BRANCH   8  12
ATOM     11  C   UNL     1      86.125  71.592  85.490  0.00  0.00    +0.000 C 
ATOM     12  C   UNL     1      85.187  72.017  86.589  0.00  0.00    +0.000 C 
ATOM     13  C   UNL     1      84.012  72.603  86.308  0.00  0.00    +0.000 C 
ENDBRANCH   8  12
ENDBRANCH   1  10
TORSDOF 3
ENDMDL
