MODEL 1
REMARK VINA RESULT:      -4.6      0.000      0.000
REMARK  Name = *****
REMARK  3 active torsions:
REMARK  status: ('A' for Active; 'I' for Inactive)
REMARK    1  A    between atoms: C_4  and  C_7
REMARK    2  A    between atoms: C_8  and  C_9
REMARK    3  A    between atoms: C_9  and  C_10
REMARK                            x       y       z     vdW  Elec       q    Type
REMARK                         _______ _______ _______ _____ _____    ______ ____
ROOT
ATOM      1  C   UNL     1      90.003  68.015  86.306  0.00  0.00    +0.000 C 
ATOM      2  C   UNL     1      89.057  68.735  86.929  0.00  0.00    +0.000 C 
ENDROOT
BRANCH   1   6
ATOM      3  C   UNL     1      89.843  63.766  85.449  0.00  0.00    +0.000 C 
ATOM      4  C   UNL     1      89.146  64.237  86.719  0.00  0.00    +0.000 C 
ATOM      5  C   UNL     1      88.864  65.742  86.673  0.00  0.00    +0.000 C 
ATOM      6  C   UNL     1      90.018  66.567  86.140  0.00  0.00    +0.000 C 
ATOM      7  C   UNL     1      91.059  65.983  85.515  0.00  0.00    +0.000 C 
ATOM      8  C   UNL     1      91.162  64.509  85.248  0.00  0.00    +0.000 C 
ENDBRANCH   1   6
BRANCH   2   9
ATOM      9  C   UNL     1      89.098  70.234  87.057  0.00  0.00    +0.000 C 
BRANCH   9  10
ATOM     10  C   UNL     1      87.718  70.841  87.140  0.00  0.00    +0.000 A 
ATOM     11  C   UNL     1      87.104  71.056  88.381  0.00  0.00    +0.000 A 
ATOM     12  C   UNL     1      85.825  71.611  88.452  0.00  0.00    +0.000 A 
ATOM     13  C   UNL     1      85.146  71.952  87.284  0.00  0.00    +0.000 A 
ATOM     14  C   UNL     1      85.743  71.737  86.043  0.00  0.00    +0.000 A 
ATOM     15  C   UNL     1      87.023  71.184  85.971  0.00  0.00    +0.000 A 
ENDBRANCH   9  10
ENDBRANCH   2   9
TORSDOF 3
ENDMDL
