MODEL 1
REMARK VINA RESULT:      -4.7      0.000      0.000
REMARK  Name = *****
REMARK  4 active torsions:
REMARK  status: ('A' for Active; 'I' for Inactive)
REMARK    1  A    between atoms: C_4  and  C_7
REMARK    2  A    between atoms: C_7  and  O_8
REMARK    3  A    between atoms: O_8  and  C_9
REMARK    4  A    between atoms: C_13  and  C_15
REMARK                            x       y       z     vdW  Elec       q    Type
REMARK                         _______ _______ _______ _____ _____    ______ ____
ROOT
ATOM      1  C   UNL     1     101.284 127.358  82.834  0.00  0.00    +0.000 A 
ATOM      2  C   UNL     1     100.196 126.616  82.375  0.00  0.00    +0.000 A 
ATOM      3  C   UNL     1      98.900 127.125  82.496  0.00  0.00    +0.000 A 
ATOM      4  C   UNL     1      98.686 128.376  83.074  0.00  0.00    +0.000 A 
ATOM      5  C   UNL     1      99.768 129.137  83.533  0.00  0.00    +0.000 A 
ATOM      6  C   UNL     1     101.063 128.612  83.412  0.00  0.00    +0.000 A 
ENDROOT
BRANCH   5   7
ATOM      7  C   UNL     1      99.548 130.473  84.191  0.00  0.00    +0.000 C 
ATOM      8  F   UNL     1      99.352 131.483  83.299  0.00  0.00    +0.000 F 
ATOM      9  F   UNL     1      98.462 130.492  85.015  0.00  0.00    +0.000 F 
ENDBRANCH   5   7
BRANCH   1  10
ATOM     10  O   UNL     1     102.598 126.980  82.785  0.00  0.00    +0.000 OA
BRANCH  10  11
ATOM     11  C   UNL     1     103.116 126.591  81.512  0.00  0.00    +0.000 C 
BRANCH  11  15
ATOM     12  C   UNL     1     104.829 122.639  81.820  0.00  0.00    +0.000 A 
ATOM     13  C   UNL     1     104.765 123.275  80.583  0.00  0.00    +0.000 A 
ATOM     14  C   UNL     1     104.202 124.549  80.482  0.00  0.00    +0.000 A 
ATOM     15  C   UNL     1     103.693 125.197  81.616  0.00  0.00    +0.000 A 
ATOM     16  C   UNL     1     103.771 124.548  82.857  0.00  0.00    +0.000 A 
ATOM     17  C   UNL     1     104.333 123.274  82.957  0.00  0.00    +0.000 A 
ENDBRANCH  11  15
ENDBRANCH  10  11
ENDBRANCH   1  10
TORSDOF 4
ENDMDL
