MODEL 1
REMARK VINA RESULT:      -4.4      0.000      0.000
REMARK  Name = *****
REMARK  4 active torsions:
REMARK  status: ('A' for Active; 'I' for Inactive)
REMARK    1  A    between atoms: C_1  and  C_2
REMARK    2  A    between atoms: N_8  and  C_9
REMARK    3  A    between atoms: C_9  and  C_10
REMARK    4  A    between atoms: C_9  and  C_11
REMARK                            x       y       z     vdW  Elec       q    Type
REMARK                         _______ _______ _______ _____ _____    ______ ____
ROOT
ATOM      1  C   UNL     1      98.735 118.743  83.516  0.00  0.00    +0.000 C 
ATOM      2  C   UNL     1      98.171 118.463  82.122  0.00  0.00    +0.000 C 
ATOM      3  C   UNL     1      98.371 119.645  81.165  0.00  0.00    +0.000 C 
ATOM      4  C   UNL     1      97.481 120.848  81.488  0.00  0.00    +0.000 C 
ATOM      5  C   UNL     1      96.006 120.452  81.556  0.00  0.00    +0.000 C 
ATOM      6  C   UNL     1      95.771 119.319  82.547  0.00  0.00    +0.000 C 
ATOM      7  C   UNL     1      96.680 118.150  82.203  0.00  0.00    +0.000 C 
ATOM      8  N   UNL     1      96.116 117.011  82.013  0.00  0.00    +0.000 NA
ENDROOT
BRANCH   8   9
ATOM      9  C   UNL     1      96.842 115.804  81.618  0.00  0.00    +0.000 C 
ATOM     10  C   UNL     1      96.288 114.602  82.383  0.00  0.00    +0.000 C 
BRANCH   9  11
ATOM     11  C   UNL     1      96.714 115.549  80.121  0.00  0.00    +0.000 A 
ATOM     12  C   UNL     1      97.573 116.199  79.220  0.00  0.00    +0.000 A 
ATOM     13  C   UNL     1      97.484 115.954  77.847  0.00  0.00    +0.000 A 
ATOM     14  C   UNL     1      96.540 115.052  77.359  0.00  0.00    +0.000 A 
ATOM     15  C   UNL     1      95.684 114.395  78.241  0.00  0.00    +0.000 A 
ATOM     16  C   UNL     1      95.773 114.641  79.613  0.00  0.00    +0.000 A 
ENDBRANCH   9  11
ENDBRANCH   8   9
TORSDOF 2
ENDMDL
