MODEL 1
REMARK VINA RESULT:      -4.5      0.000      0.000
REMARK  Name = *****
REMARK  3 active torsions:
REMARK  status: ('A' for Active; 'I' for Inactive)
REMARK    1  A    between atoms: C_2  and  C_13
REMARK    2  A    between atoms: C_3  and  C_4
REMARK    3  A    between atoms: C_3  and  C_6
REMARK                            x       y       z     vdW  Elec       q    Type
REMARK                         _______ _______ _______ _____ _____    ______ ____
ROOT
ATOM      1  C   UNL     1      86.274  63.397  86.747  0.00  0.00    +0.000 C 
ATOM      2  C   UNL     1      87.372  62.857  87.616  0.00  0.00    +0.000 C 
ATOM      3  C   UNL     1      87.723  63.703  86.371  0.00  0.00    +0.000 C 
ENDROOT
BRANCH   3   4
ATOM      4  C   UNL     1      88.191  65.161  86.540  0.00  0.00    +0.000 A 
ATOM      5  C   UNL     1      89.520  65.536  86.265  0.00  0.00    +0.000 A 
ATOM      6  C   UNL     1      89.953  66.859  86.400  0.00  0.00    +0.000 A 
ATOM      7  C   UNL     1      89.055  67.843  86.799  0.00  0.00    +0.000 A 
ATOM      8  C   UNL     1      87.729  67.513  87.055  0.00  0.00    +0.000 A 
ATOM      9  C   UNL     1      87.303  66.187  86.919  0.00  0.00    +0.000 A 
ATOM     10 CL   UNL     1      89.582  69.470  86.966  0.00  0.00    +0.000 Cl
ENDBRANCH   3   4
BRANCH   2  11
ATOM     11  C   UNL     1      87.617  63.363  89.024  0.00  0.00    +0.000 A 
ATOM     12  C   UNL     1      88.897  63.462  89.594  0.00  0.00    +0.000 A 
ATOM     13  C   UNL     1      89.086  63.947  90.892  0.00  0.00    +0.000 A 
ATOM     14  C   UNL     1      87.994  64.359  91.649  0.00  0.00    +0.000 A 
ATOM     15  C   UNL     1      86.716  64.294  91.104  0.00  0.00    +0.000 A 
ATOM     16  C   UNL     1      86.536  63.809  89.806  0.00  0.00    +0.000 A 
ENDBRANCH   2  11
BRANCH   3  17
ATOM     17  C   UNL     1      88.252  62.936  85.251  0.00  0.00    +0.000 C 
ATOM     18  N   UNL     1      88.688  62.339  84.356  0.00  0.00    +0.000 NA
ENDBRANCH   3  17
TORSDOF 3
ENDMDL
