REMARK  Name = *****
REMARK  4 active torsions:
REMARK  status: ('A' for Active; 'I' for Inactive)
REMARK    1  A    between atoms: C_1  and  C_2
REMARK    2  A    between atoms: C_6  and  C_20
REMARK    3  A    between atoms: C_8  and  C_10
REMARK    4  A    between atoms: C_11  and  C_12
REMARK                            x       y       z     vdW  Elec       q    Type
REMARK                         _______ _______ _______ _____ _____    ______ ____
ROOT
ATOM      1  C   UNL     1       0.971   0.096   0.287  0.00  0.00    +0.000 C 
ATOM      2  C   UNL     1       2.483  -0.067   0.121  0.00  0.00    +0.000 C 
ATOM      3  C   UNL     1       3.076   0.912  -0.913  0.00  0.00    +0.000 C 
ATOM      4  C   UNL     1       2.763   0.520  -2.359  0.00  0.00    +0.000 C 
ATOM      5  C   UNL     1       3.108  -0.946  -2.639  0.00  0.00    +0.000 C 
ATOM      6  C   UNL     1       2.455  -1.857  -1.593  0.00  0.00    +0.000 C 
ATOM      7  N   UNL     1       2.872  -1.452  -0.234  0.00  0.00    +0.000 N 
ATOM      8  C   UNL     1       4.074  -1.957   0.278  0.00  0.00    +0.000 C 
ATOM      9  O   UNL     1       4.895  -2.602  -0.366  0.00  0.00    +0.000 OA
ATOM     10  C   UNL     1       2.634  -3.341  -1.925  0.00  0.00    +0.000 C 
ENDROOT
BRANCH   8  11
ATOM     11  C   UNL     1       4.287  -1.718   1.732  0.00  0.00    +0.000 C 
ATOM     12  C   UNL     1       5.523  -1.798   2.245  0.00  0.00    +0.000 C 
BRANCH  12  13
ATOM     13  C   UNL     1       5.796  -1.556   3.670  0.00  0.00    +0.000 A 
ATOM     14  C   UNL     1       5.503  -2.518   4.656  0.00  0.00    +0.000 A 
ATOM     15  C   UNL     1       5.772  -2.267   6.007  0.00  0.00    +0.000 A 
ATOM     16  C   UNL     1       6.339  -1.057   6.398  0.00  0.00    +0.000 A 
ATOM     17  C   UNL     1       6.638  -0.093   5.438  0.00  0.00    +0.000 A 
ATOM     18  C   UNL     1       6.369  -0.339   4.087  0.00  0.00    +0.000 A 
ATOM     19 CL   UNL     1       6.761   0.921   2.962  0.00  0.00    +0.000 Cl
ATOM     20 CL   UNL     1       4.811  -4.056   4.263  0.00  0.00    +0.000 Cl
ENDBRANCH  12  13
ENDBRANCH   8  11
TORSDOF 2
