MODEL 1
REMARK VINA RESULT:      -4.5      0.000      0.000
REMARK  Name = *****
REMARK  4 active torsions:
REMARK  status: ('A' for Active; 'I' for Inactive)
REMARK    1  A    between atoms: C_1  and  C_2
REMARK    2  A    between atoms: C_6  and  O_7
REMARK    3  A    between atoms: O_7  and  C_8
REMARK    4  A    between atoms: C_8  and  C_10
REMARK                            x       y       z     vdW  Elec       q    Type
REMARK                         _______ _______ _______ _____ _____    ______ ____
ROOT
ATOM      1  C   UNL     1     102.011 125.830  82.709  0.00  0.00    +0.000 C 
ATOM      2  O   UNL     1     102.493 125.227  83.654  0.00  0.00    +0.000 OA
ENDROOT
BRANCH   1   3
ATOM      3  C   UNL     1     100.997 126.902  82.893  0.00  0.00    +0.000 A 
ATOM      4  C   UNL     1      99.671 126.768  82.459  0.00  0.00    +0.000 A 
ATOM      5  C   UNL     1      98.764 127.813  82.655  0.00  0.00    +0.000 A 
ATOM      6  C   UNL     1      99.175 128.990  83.281  0.00  0.00    +0.000 A 
ATOM      7  C   UNL     1     100.495 129.130  83.710  0.00  0.00    +0.000 A 
ATOM      8  C   UNL     1     101.405 128.091  83.512  0.00  0.00    +0.000 A 
ENDBRANCH   1   3
BRANCH   1   9
ATOM      9  O   UNL     1     102.216 125.627  81.376  0.00  0.00    +0.000 OA
BRANCH   9  15
ATOM     10  C   UNL     1     103.817 127.826  80.253  0.00  0.00    +0.000 C 
ATOM     11  C   UNL     1     104.276 126.415  80.326  0.00  0.00    +0.000 C 
ATOM     12  C   UNL     1     105.451 125.911  79.906  0.00  0.00    +0.000 C 
ATOM     13  C   UNL     1     105.498 124.434  80.168  0.00  0.00    +0.000 C 
ATOM     14  C   UNL     1     104.166 124.182  80.807  0.00  0.00    +0.000 C 
ATOM     15  C   UNL     1     103.482 125.337  80.880  0.00  0.00    +0.000 C 
ENDBRANCH   9  15
ENDBRANCH   1   9
TORSDOF 3
ENDMDL
