REMARK  Name = *****
REMARK  5 active torsions:
REMARK  status: ('A' for Active; 'I' for Inactive)
REMARK    1  A    between atoms: C_1  and  C_2
REMARK    2  A    between atoms: C_4  and  C_20
REMARK    3  A    between atoms: C_6  and  O_8
REMARK    4  A    between atoms: O_8  and  C_9
REMARK    5  A    between atoms: C_9  and  C_11
REMARK                            x       y       z     vdW  Elec       q    Type
REMARK                         _______ _______ _______ _____ _____    ______ ____
ROOT
ATOM      1  C   UNL     1       0.863  -3.913  -0.496  0.00  0.00    +0.000 C 
ATOM      2  O   UNL     1       1.694  -3.725   0.379  0.00  0.00    +0.000 OA
ENDROOT
BRANCH   1   3
ATOM      3  C   UNL     1       0.657  -5.239  -1.115  0.00  0.00    +0.000 A 
ATOM      4  C   UNL     1      -0.583  -5.642  -1.614  0.00  0.00    +0.000 A 
ATOM      5  C   UNL     1      -0.730  -6.905  -2.176  0.00  0.00    +0.000 A 
ATOM      6  C   UNL     1       0.354  -7.772  -2.237  0.00  0.00    +0.000 A 
ATOM      7  C   UNL     1       1.594  -7.393  -1.731  0.00  0.00    +0.000 A 
ATOM      8  C   UNL     1       1.746  -6.126  -1.163  0.00  0.00    +0.000 A 
ATOM      9  F   UNL     1       0.212  -8.990  -2.778  0.00  0.00    +0.000 F 
ATOM     10  F   UNL     1      -1.923  -7.289  -2.653  0.00  0.00    +0.000 F 
ATOM     11  F   UNL     1      -1.656  -4.841  -1.536  0.00  0.00    +0.000 F 
ENDBRANCH   1   3
BRANCH   1  12
ATOM     12  O   UNL     1       0.052  -2.985  -1.118  0.00  0.00    +0.000 OA
BRANCH  12  18
ATOM     13  C   UNL     1       2.562   1.143   0.038  0.00  0.00    +0.000 C 
ATOM     14  C   UNL     1       1.279   0.391  -0.156  0.00  0.00    +0.000 A 
ATOM     15  C   UNL     1       0.048   1.004   0.123  0.00  0.00    +0.000 A 
ATOM     16  C   UNL     1      -1.159   0.306  -0.034  0.00  0.00    +0.000 A 
ATOM     17  C   UNL     1      -1.123  -1.034  -0.431  0.00  0.00    +0.000 A 
ATOM     18  C   UNL     1       0.103  -1.654  -0.673  0.00  0.00    +0.000 A 
ATOM     19  C   UNL     1       1.300  -0.950  -0.558  0.00  0.00    +0.000 A 
ATOM     20  C   UNL     1      -2.468   0.968   0.281  0.00  0.00    +0.000 C 
ENDBRANCH  12  18
ENDBRANCH   1  12
TORSDOF 3
