MODEL 1
REMARK VINA RESULT:      -4.5      0.000      0.000
REMARK  Name = *****
REMARK  4 active torsions:
REMARK  status: ('A' for Active; 'I' for Inactive)
REMARK    1  A    between atoms: C_1  and  C_2
REMARK    2  A    between atoms: C_6  and  O_8
REMARK    3  A    between atoms: O_8  and  C_9
REMARK    4  A    between atoms: C_9  and  C_11
REMARK                            x       y       z     vdW  Elec       q    Type
REMARK                         _______ _______ _______ _____ _____    ______ ____
ROOT
ATOM      1  O   UNL     1     100.214 127.351  82.249  0.00  0.00    +0.000 OA
ENDROOT
BRANCH   1   7
ATOM      2  C   UNL     1     103.946 126.381  80.164  0.00  0.00    +0.000 C 
ATOM      3  C   UNL     1     103.196 126.817  81.391  0.00  0.00    +0.000 C 
ATOM      4  C   UNL     1     103.483 127.963  82.033  0.00  0.00    +0.000 C 
ATOM      5  C   UNL     1     102.779 128.416  83.279  0.00  0.00    +0.000 C 
ATOM      6  C   UNL     1     101.967 127.304  83.947  0.00  0.00    +0.000 C 
ATOM      7  C   UNL     1     101.165 126.499  82.924  0.00  0.00    +0.000 C 
ATOM      8  C   UNL     1     102.095 125.889  81.858  0.00  0.00    +0.000 C 
ENDBRANCH   1   7
BRANCH   1   9
ATOM      9  C   UNL     1      98.966 127.395  82.774  0.00  0.00    +0.000 C 
ATOM     10  O   UNL     1      98.053 126.625  82.517  0.00  0.00    +0.000 OA
BRANCH   9  11
ATOM     11  C   UNL     1      98.845 128.527  83.732  0.00  0.00    +0.000 A 
ATOM     12  C   UNL     1      99.358 129.774  83.351  0.00  0.00    +0.000 A 
ATOM     13  C   UNL     1      99.265 130.868  84.215  0.00  0.00    +0.000 A 
ATOM     14  C   UNL     1      98.659 130.722  85.462  0.00  0.00    +0.000 A 
ATOM     15  C   UNL     1      98.146 129.484  85.848  0.00  0.00    +0.000 A 
ATOM     16  C   UNL     1      98.237 128.387  84.987  0.00  0.00    +0.000 A 
ENDBRANCH   9  11
ENDBRANCH   1   9
TORSDOF 3
ENDMDL
