MODEL 1
REMARK VINA RESULT:      -4.6      0.000      0.000
REMARK  Name = *****
REMARK  6 active torsions:
REMARK  status: ('A' for Active; 'I' for Inactive)
REMARK    1  A    between atoms: C_1  and  O_2
REMARK    2  A    between atoms: O_2  and  C_3
REMARK    3  A    between atoms: C_6  and  C_9
REMARK    4  A    between atoms: C_10  and  C_11
REMARK    5  A    between atoms: C_14  and  O_17
REMARK    6  A    between atoms: O_17  and  C_18
REMARK                            x       y       z     vdW  Elec       q    Type
REMARK                         _______ _______ _______ _____ _____    ______ ____
ROOT
ATOM      1  C   UNL     1      89.233  66.917  86.475  0.00  0.00    +0.000 C 
ATOM      2  C   UNL     1      88.031  66.505  86.917  0.00  0.00    +0.000 C 
ATOM      3  F   UNL     1      86.974  67.352  86.864  0.00  0.00    +0.000 F 
ATOM      4  F   UNL     1      90.288  66.067  86.529  0.00  0.00    +0.000 F 
ENDROOT
BRANCH   1   8
ATOM      5  C   UNL     1      90.067  70.781  84.770  0.00  0.00    +0.000 A 
ATOM      6  C   UNL     1      90.068  69.630  83.984  0.00  0.00    +0.000 A 
ATOM      7  C   UNL     1      89.799  68.383  84.562  0.00  0.00    +0.000 A 
ATOM      8  C   UNL     1      89.535  68.256  85.935  0.00  0.00    +0.000 A 
ATOM      9  C   UNL     1      89.523  69.422  86.710  0.00  0.00    +0.000 A 
ATOM     10  C   UNL     1      89.792  70.667  86.133  0.00  0.00    +0.000 A 
BRANCH   5  12
ATOM     11  C   UNL     1      89.195  72.792  83.853  0.00  0.00    +0.000 C 
ATOM     12  O   UNL     1      90.309  72.054  84.337  0.00  0.00    +0.000 OA
ENDBRANCH   5  12
ENDBRANCH   1   8
BRANCH   2  13
ATOM     13  C   UNL     1      87.733  65.162  87.452  0.00  0.00    +0.000 A 
ATOM     14  C   UNL     1      88.220  64.697  88.681  0.00  0.00    +0.000 A 
ATOM     15  C   UNL     1      87.889  63.419  89.154  0.00  0.00    +0.000 A 
ATOM     16  C   UNL     1      87.055  62.589  88.409  0.00  0.00    +0.000 A 
ATOM     17  C   UNL     1      86.550  63.050  87.193  0.00  0.00    +0.000 A 
ATOM     18  C   UNL     1      86.879  64.324  86.721  0.00  0.00    +0.000 A 
BRANCH  16  19
ATOM     19  O   UNL     1      86.656  61.327  88.753  0.00  0.00    +0.000 OA
ATOM     20  C   UNL     1      85.646  61.220  89.748  0.00  0.00    +0.000 C 
ENDBRANCH  16  19
ENDBRANCH   2  13
TORSDOF 4
ENDMDL
