MODEL 1
REMARK VINA RESULT:      -3.9      0.000      0.000
REMARK  Name = *****
REMARK  4 active torsions:
REMARK  status: ('A' for Active; 'I' for Inactive)
REMARK    1  A    between atoms: C_1  and  C_2
REMARK    2  A    between atoms: C_4  and  C_7
REMARK    3  A    between atoms: C_7  and  S_8
REMARK    4  A    between atoms: S_8  and  C_9
REMARK                            x       y       z     vdW  Elec       q    Type
REMARK                         _______ _______ _______ _____ _____    ______ ____
ROOT
ATOM      1  S   UNL     1      88.091  70.503  85.659  0.00  0.00    +0.000 S 
ENDROOT
BRANCH   1   2
ATOM      2  C   UNL     1      86.680  71.242  86.464  0.00  0.00    +0.000 A 
ATOM      3  C   UNL     1      86.512  71.260  87.853  0.00  0.00    +0.000 A 
ATOM      4  C   UNL     1      85.374  71.838  88.424  0.00  0.00    +0.000 A 
ATOM      5  C   UNL     1      84.391  72.388  87.606  0.00  0.00    +0.000 A 
ATOM      6  C   UNL     1      84.534  72.364  86.221  0.00  0.00    +0.000 A 
ATOM      7  C   UNL     1      85.674  71.788  85.654  0.00  0.00    +0.000 A 
ATOM      8 BR   UNL     1      82.850  73.163  88.378  0.00  0.00    +0.000 Br
ENDBRANCH   1   2
BRANCH   1   9
ATOM      9  C   UNL     1      88.929  69.688  87.065  0.00  0.00    +0.000 C 
BRANCH   9  13
ATOM     10  C   UNL     1      91.318  65.661  85.446  0.00  0.00    +0.000 C 
ATOM     11  C   UNL     1      90.224  66.470  86.047  0.00  0.00    +0.000 A 
ATOM     12  N   UNL     1      90.253  67.780  86.178  0.00  0.00    +0.000 NA
ATOM     13  C   UNL     1      89.094  68.225  86.802  0.00  0.00    +0.000 A 
ATOM     14  C   UNL     1      88.185  67.226  87.100  0.00  0.00    +0.000 A 
ATOM     15  S   UNL     1      88.799  65.701  86.621  0.00  0.00    +0.000 S 
ENDBRANCH   9  13
ENDBRANCH   1   9
TORSDOF 3
ENDMDL
