REMARK  Name = *****
REMARK  3 active torsions:
REMARK  status: ('A' for Active; 'I' for Inactive)
REMARK    1  A    between atoms: C_5  and  C_7
REMARK    2  A    between atoms: C_7  and  C_8
REMARK    3  A    between atoms: C_8  and  C_10
REMARK                            x       y       z     vdW  Elec       q    Type
REMARK                         _______ _______ _______ _____ _____    ______ ____
ROOT
ATOM      1  C   UNL     1      -2.294  -1.501   0.522  0.00  0.00    +0.000 C 
ATOM      2  O   UNL     1      -2.954  -0.527   0.164  0.00  0.00    +0.000 OA
ENDROOT
BRANCH   1   3
ATOM      3  C   UNL     1      -2.693  -2.205   1.759  0.00  0.00    +0.000 A 
ATOM      4  C   UNL     1      -2.829  -1.423   2.915  0.00  0.00    +0.000 A 
ATOM      5  C   UNL     1      -3.183  -2.017   4.126  0.00  0.00    +0.000 A 
ATOM      6  C   UNL     1      -3.413  -3.390   4.185  0.00  0.00    +0.000 A 
ATOM      7  C   UNL     1      -3.302  -4.168   3.030  0.00  0.00    +0.000 A 
ATOM      8  C   UNL     1      -2.948  -3.579   1.812  0.00  0.00    +0.000 A 
ATOM      9 CL   UNL     1      -2.906  -4.594   0.416  0.00  0.00    +0.000 Cl
ENDBRANCH   1   3
BRANCH   1  10
ATOM     10  C   UNL     1      -1.049  -1.973  -0.206  0.00  0.00    +0.000 C 
BRANCH  10  15
ATOM     11  C   UNL     1       0.894   0.912  -1.758  0.00  0.00    +0.000 A 
ATOM     12  C   UNL     1       1.799   1.238  -0.751  0.00  0.00    +0.000 A 
ATOM     13  C   UNL     1       1.790   0.525   0.447  0.00  0.00    +0.000 A 
ATOM     14  C   UNL     1       0.878  -0.517   0.639  0.00  0.00    +0.000 A 
ATOM     15  C   UNL     1      -0.031  -0.867  -0.373  0.00  0.00    +0.000 A 
ATOM     16  C   UNL     1      -0.016  -0.130  -1.570  0.00  0.00    +0.000 A 
ATOM     17 CL   UNL     1       0.917  -1.345   2.155  0.00  0.00    +0.000 Cl
ENDBRANCH  10  15
ENDBRANCH   1  10
TORSDOF 3
