MODEL 1
REMARK VINA RESULT:      -4.9      0.000      0.000
REMARK  Name = *****
REMARK  2 active torsions:
REMARK  status: ('A' for Active; 'I' for Inactive)
REMARK    1  A    between atoms: C_6  and  C_9
REMARK    2  A    between atoms: C_10  and  C_11
REMARK                            x       y       z     vdW  Elec       q    Type
REMARK                         _______ _______ _______ _____ _____    ______ ____
ROOT
ATOM      1  C   UNL     1     105.289 122.094  80.826  0.00  0.00    +0.000 C 
ATOM      2  C   UNL     1     106.142 122.049  82.093  0.00  0.00    +0.000 C 
ATOM      3  C   UNL     1     105.909 123.199  83.058  0.00  0.00    +0.000 C 
ATOM      4  C   UNL     1     104.439 123.513  83.201  0.00  0.00    +0.000 C 
ATOM      5  O   UNL     1     103.758 123.027  84.103  0.00  0.00    +0.000 OA
ATOM      6  C   UNL     1     103.842 124.478  82.213  0.00  0.00    +0.000 C 
ATOM      7  C   UNL     1     104.209 124.442  80.916  0.00  0.00    +0.000 C 
ATOM      8  C   UNL     1     105.134 123.484  80.207  0.00  0.00    +0.000 C 
ENDROOT
BRANCH   6   9
ATOM      9  C   UNL     1     102.850 125.412  82.722  0.00  0.00    +0.000 C 
ATOM     10  C   UNL     1     101.917 126.031  81.980  0.00  0.00    +0.000 C 
BRANCH  10  11
ATOM     11  C   UNL     1     100.936 126.986  82.520  0.00  0.00    +0.000 A 
ATOM     12  C   UNL     1      99.553 126.793  82.394  0.00  0.00    +0.000 A 
ATOM     13  C   UNL     1      98.654 127.707  82.949  0.00  0.00    +0.000 A 
ATOM     14  C   UNL     1      99.127 128.817  83.645  0.00  0.00    +0.000 A 
ATOM     15  C   UNL     1     100.499 129.012  83.791  0.00  0.00    +0.000 A 
ATOM     16  C   UNL     1     101.398 128.097  83.237  0.00  0.00    +0.000 A 
ENDBRANCH  10  11
ENDBRANCH   6   9
TORSDOF 2
ENDMDL
