REMARK  Name = *****
REMARK  2 active torsions:
REMARK  status: ('A' for Active; 'I' for Inactive)
REMARK    1  A    between atoms: C_4  and  C_7
REMARK    2  A    between atoms: C_8  and  C_9
REMARK                            x       y       z     vdW  Elec       q    Type
REMARK                         _______ _______ _______ _____ _____    ______ ____
ROOT
ATOM      1  C   UNL     1       5.539   0.294  -0.527  0.00  0.00    +0.000 A 
ATOM      2  C   UNL     1       6.334  -0.859  -0.603  0.00  0.00    +0.000 A 
ATOM      3  C   UNL     1       7.720  -0.731  -0.736  0.00  0.00    +0.000 A 
ATOM      4  C   UNL     1       8.324   0.520  -0.794  0.00  0.00    +0.000 A 
ATOM      5  C   UNL     1       7.528   1.653  -0.718  0.00  0.00    +0.000 A 
ATOM      6  C   UNL     1       6.146   1.554  -0.585  0.00  0.00    +0.000 A 
ATOM      7  F   UNL     1       8.098   2.863  -0.772  0.00  0.00    +0.000 F 
ATOM      8  F   UNL     1       8.504  -1.817  -0.811  0.00  0.00    +0.000 F 
ATOM      9 BR   UNL     1       5.584  -2.605  -0.531  0.00  0.00    +0.000 Br
ENDROOT
BRANCH   1  11
ATOM     10  C   UNL     1       2.918   0.182  -0.283  0.00  0.00    +0.000 C 
ATOM     11  C   UNL     1       4.113   0.237  -0.393  0.00  0.00    +0.000 C 
BRANCH  10  15
ATOM     12  C   UNL     1      -1.281  -0.067   0.093  0.00  0.00    +0.000 A 
ATOM     13  C   UNL     1      -0.660   1.181   0.031  0.00  0.00    +0.000 A 
ATOM     14  C   UNL     1       0.729   1.265  -0.092  0.00  0.00    +0.000 A 
ATOM     15  C   UNL     1       1.496   0.100  -0.154  0.00  0.00    +0.000 A 
ATOM     16  C   UNL     1       0.873  -1.149  -0.092  0.00  0.00    +0.000 A 
ATOM     17  C   UNL     1      -0.515  -1.231   0.032  0.00  0.00    +0.000 A 
ENDBRANCH  10  15
ENDBRANCH   1  11
TORSDOF 2
