MODEL 1
REMARK VINA RESULT:      -5.1      0.000      0.000
REMARK  Name = *****
REMARK  4 active torsions:
REMARK  status: ('A' for Active; 'I' for Inactive)
REMARK    1  A    between atoms: C_1  and  C_2
REMARK    2  A    between atoms: C_4  and  O_8
REMARK    3  A    between atoms: O_8  and  C_9
REMARK    4  A    between atoms: C_9  and  C_11
REMARK                            x       y       z     vdW  Elec       q    Type
REMARK                         _______ _______ _______ _____ _____    ______ ____
ROOT
ATOM      1  C   UNL     1     102.679 125.619  83.546  0.00  0.00    +0.000 C 
ATOM      2  O   UNL     1     102.301 125.139  84.606  0.00  0.00    +0.000 OA
ENDROOT
BRANCH   1   3
ATOM      3  C   UNL     1     103.455 124.837  82.560  0.00  0.00    +0.000 A 
ATOM      4  C   UNL     1     104.166 123.684  82.904  0.00  0.00    +0.000 A 
ATOM      5  C   UNL     1     104.890 122.980  81.944  0.00  0.00    +0.000 A 
ATOM      6  C   UNL     1     104.907 123.440  80.635  0.00  0.00    +0.000 A 
ATOM      7  C   UNL     1     104.218 124.593  80.269  0.00  0.00    +0.000 A 
ATOM      8  C   UNL     1     103.493 125.297  81.233  0.00  0.00    +0.000 A 
ATOM      9  F   UNL     1     105.601 122.768  79.709  0.00  0.00    +0.000 F 
ATOM     10  F   UNL     1     104.199 123.237  84.167  0.00  0.00    +0.000 F 
ENDBRANCH   1   3
BRANCH   1  11
ATOM     11  O   UNL     1     102.544 126.922  83.110  0.00  0.00    +0.000 OA
BRANCH  11  15
ATOM     12  C   UNL     1      99.358 130.605  84.044  0.00  0.00    +0.000 C 
ATOM     13  C   UNL     1      99.668 129.230  83.534  0.00  0.00    +0.000 A 
ATOM     14  C   UNL     1     100.973 128.726  83.599  0.00  0.00    +0.000 A 
ATOM     15  C   UNL     1     101.245 127.448  83.110  0.00  0.00    +0.000 A 
ATOM     16  C   UNL     1     100.252 126.681  82.507  0.00  0.00    +0.000 A 
ATOM     17  C   UNL     1      98.956 127.186  82.424  0.00  0.00    +0.000 A 
ATOM     18  C   UNL     1      98.667 128.454  82.933  0.00  0.00    +0.000 A 
ENDBRANCH  11  15
ENDBRANCH   1  11
TORSDOF 3
ENDMDL
