MODEL 1
REMARK VINA RESULT:      -4.9      0.000      0.000
REMARK  Name = *****
REMARK  4 active torsions:
REMARK  status: ('A' for Active; 'I' for Inactive)
REMARK    1  A    between atoms: C_1  and  C_2
REMARK    2  A    between atoms: C_2  and  C_13
REMARK    3  A    between atoms: C_4  and  C_5
REMARK    4  A    between atoms: C_5  and  C_7
REMARK                            x       y       z     vdW  Elec       q    Type
REMARK                         _______ _______ _______ _____ _____    ______ ____
ROOT
ATOM      1  C   UNL     1      87.310  65.490  85.633  0.00  0.00    +0.000 C 
ATOM      2  C   UNL     1      88.454  65.166  86.566  0.00  0.00    +0.000 C 
ATOM      3  C   UNL     1      89.589  64.329  86.008  0.00  0.00    +0.000 C 
ATOM      4  C   UNL     1      89.833  65.786  86.316  0.00  0.00    +0.000 C 
ENDROOT
BRANCH   2   5
ATOM      5  C   UNL     1      88.030  64.934  88.015  0.00  0.00    +0.000 A 
ATOM      6  C   UNL     1      86.987  65.673  88.599  0.00  0.00    +0.000 A 
ATOM      7  C   UNL     1      86.591  65.457  89.923  0.00  0.00    +0.000 A 
ATOM      8  C   UNL     1      87.227  64.487  90.691  0.00  0.00    +0.000 A 
ATOM      9  C   UNL     1      88.251  63.729  90.134  0.00  0.00    +0.000 A 
ATOM     10  C   UNL     1      88.641  63.948  88.810  0.00  0.00    +0.000 A 
ENDBRANCH   2   5
BRANCH   4  11
ATOM     11  C   UNL     1      90.077  66.744  85.196  0.00  0.00    +0.000 C 
ATOM     12  O   UNL     1      90.427  66.334  84.094  0.00  0.00    +0.000 OA
BRANCH  11  13
ATOM     13  C   UNL     1      89.912  68.206  85.430  0.00  0.00    +0.000 A 
ATOM     14  C   UNL     1      90.036  69.151  84.404  0.00  0.00    +0.000 A 
ATOM     15  C   UNL     1      89.862  70.511  84.678  0.00  0.00    +0.000 A 
ATOM     16  C   UNL     1      89.563  70.933  85.973  0.00  0.00    +0.000 A 
ATOM     17  C   UNL     1      89.442  70.000  86.999  0.00  0.00    +0.000 A 
ATOM     18  C   UNL     1      89.620  68.641  86.731  0.00  0.00    +0.000 A 
ENDBRANCH  11  13
ENDBRANCH   4  11
TORSDOF 3
ENDMDL
