MODEL 1
REMARK VINA RESULT:      -4.4      0.000      0.000
REMARK  Name = *****
REMARK  1 active torsions:
REMARK  status: ('A' for Active; 'I' for Inactive)
REMARK    1  A    between atoms: C_11  and  C_12
REMARK                            x       y       z     vdW  Elec       q    Type
REMARK                         _______ _______ _______ _____ _____    ______ ____
ROOT
ATOM      1  C   UNL     1      87.350  70.156  89.520  0.00  0.00    +0.000 C 
ATOM      2  C   UNL     1      86.525  71.441  89.369  0.00  0.00    +0.000 C 
ATOM      3  C   UNL     1      86.006  71.622  87.960  0.00  0.00    +0.000 A 
ATOM      4  C   UNL     1      84.751  72.199  87.730  0.00  0.00    +0.000 A 
ATOM      5  C   UNL     1      84.284  72.359  86.426  0.00  0.00    +0.000 A 
ATOM      6  C   UNL     1      85.070  71.954  85.350  0.00  0.00    +0.000 A 
ATOM      7  C   UNL     1      86.330  71.395  85.576  0.00  0.00    +0.000 A 
ATOM      8  C   UNL     1      86.822  71.222  86.877  0.00  0.00    +0.000 A 
ATOM      9  C   UNL     1      88.193  70.647  87.132  0.00  0.00    +0.000 C 
ATOM     10  C   UNL     1      88.457  70.091  88.506  0.00  0.00    +0.000 C 
ATOM     11  C   UNL     1      88.507  69.172  87.295  0.00  0.00    +0.000 C 
ENDROOT
BRANCH  11  12
ATOM     12  C   UNL     1      87.494  68.065  87.010  0.00  0.00    +0.000 A 
ATOM     13  C   UNL     1      86.656  67.920  85.930  0.00  0.00    +0.000 A 
ATOM     14  S   UNL     1      85.695  66.504  86.033  0.00  0.00    +0.000 S 
ATOM     15  C   UNL     1      86.403  66.069  87.526  0.00  0.00    +0.000 A 
ATOM     16  C   UNL     1      87.349  66.983  87.933  0.00  0.00    +0.000 A 
ENDBRANCH  11  12
TORSDOF 1
ENDMDL
