MODEL 1
REMARK VINA RESULT:      -5.2      0.000      0.000
REMARK  Name = *****
REMARK  3 active torsions:
REMARK  status: ('A' for Active; 'I' for Inactive)
REMARK    1  A    between atoms: C_3  and  C_8
REMARK    2  A    between atoms: C_9  and  C_10
REMARK    3  A    between atoms: C_13  and  C_16
REMARK                            x       y       z     vdW  Elec       q    Type
REMARK                         _______ _______ _______ _____ _____    ______ ____
ROOT
ATOM      1  C   UNL     1     103.820 124.710  81.407  0.00  0.00    +0.000 A 
ATOM      2  C   UNL     1     104.486 124.470  80.198  0.00  0.00    +0.000 A 
ATOM      3  C   UNL     1     105.467 123.478  80.110  0.00  0.00    +0.000 A 
ATOM      4  C   UNL     1     105.808 122.709  81.232  0.00  0.00    +0.000 A 
ATOM      5  C   UNL     1     105.156 122.966  82.447  0.00  0.00    +0.000 A 
ATOM      6  C   UNL     1     104.175 123.960  82.534  0.00  0.00    +0.000 A 
ENDROOT
BRANCH   4   7
ATOM      7  C   UNL     1     106.875 121.646  81.156  0.00  0.00    +0.000 C 
ATOM      8  F   UNL     1     107.689 121.770  80.070  0.00  0.00    +0.000 F 
ATOM      9  F   UNL     1     107.696 121.657  82.242  0.00  0.00    +0.000 F 
ATOM     10  F   UNL     1     106.358 120.387  81.091  0.00  0.00    +0.000 F 
ENDBRANCH   4   7
BRANCH   1  12
ATOM     11  C   UNL     1     102.070 125.946  82.654  0.00  0.00    +0.000 C 
ATOM     12  C   UNL     1     102.808 125.767  81.545  0.00  0.00    +0.000 C 
BRANCH  11  15
ATOM     13  C   UNL     1     100.298 129.130  83.956  0.00  0.00    +0.000 C 
ATOM     14  C   UNL     1     101.462 128.340  83.359  0.00  0.00    +0.000 C 
ATOM     15  C   UNL     1     101.051 126.972  82.857  0.00  0.00    +0.000 C 
ATOM     16  C   UNL     1      99.764 126.672  82.601  0.00  0.00    +0.000 C 
ATOM     17  C   UNL     1      98.692 127.689  82.716  0.00  0.00    +0.000 C 
ATOM     18  O   UNL     1      97.532 127.372  82.466  0.00  0.00    +0.000 OA
ATOM     19  C   UNL     1      99.082 129.109  83.046  0.00  0.00    +0.000 C 
ENDBRANCH  11  15
ENDBRANCH   1  12
TORSDOF 3
ENDMDL
