MODEL 1
REMARK VINA RESULT:      -4.6      0.000      0.000
REMARK  Name = *****
REMARK  4 active torsions:
REMARK  status: ('A' for Active; 'I' for Inactive)
REMARK    1  A    between atoms: C_3  and  C_16
REMARK    2  A    between atoms: C_5  and  O_7
REMARK    3  A    between atoms: O_7  and  C_8
REMARK    4  A    between atoms: C_8  and  C_9
REMARK                            x       y       z     vdW  Elec       q    Type
REMARK                         _______ _______ _______ _____ _____    ______ ____
ROOT
ATOM      1  C   UNL     1     103.523 128.062  82.236  0.00  0.00    +0.000 A 
ATOM      2  C   UNL     1     102.282 128.070  82.873  0.00  0.00    +0.000 A 
ATOM      3  C   UNL     1     101.379 127.021  82.661  0.00  0.00    +0.000 A 
ATOM      4  C   UNL     1     101.735 125.963  81.803  0.00  0.00    +0.000 A 
ATOM      5  C   UNL     1     102.976 125.956  81.165  0.00  0.00    +0.000 A 
ATOM      6  C   UNL     1     103.864 127.009  81.388  0.00  0.00    +0.000 A 
ENDROOT
BRANCH   3   7
ATOM      7  C   UNL     1     100.034 126.987  83.326  0.00  0.00    +0.000 C 
ATOM      8  O   UNL     1      99.976 126.492  84.451  0.00  0.00    +0.000 OA
ATOM      9 CL   UNL     1      98.631 127.634  82.501  0.00  0.00    +0.000 Cl
ENDBRANCH   3   7
BRANCH   5  10
ATOM     10  O   UNL     1     103.438 124.993  80.312  0.00  0.00    +0.000 OA
BRANCH  10  11
ATOM     11  C   UNL     1     104.757 124.495  80.537  0.00  0.00    +0.000 C 
BRANCH  11  12
ATOM     12  C   UNL     1     104.656 123.215  81.335  0.00  0.00    +0.000 A 
ATOM     13  C   UNL     1     104.552 123.249  82.734  0.00  0.00    +0.000 A 
ATOM     14  C   UNL     1     104.445 122.062  83.462  0.00  0.00    +0.000 A 
ATOM     15  C   UNL     1     104.442 120.844  82.792  0.00  0.00    +0.000 A 
ATOM     16  C   UNL     1     104.544 120.789  81.408  0.00  0.00    +0.000 A 
ATOM     17  C   UNL     1     104.650 121.973  80.678  0.00  0.00    +0.000 A 
ATOM     18  F   UNL     1     104.340 119.707  83.493  0.00  0.00    +0.000 F 
ENDBRANCH  11  12
ENDBRANCH  10  11
ENDBRANCH   5  10
TORSDOF 4
ENDMDL
