MODEL 1
REMARK VINA RESULT:      -5.0      0.000      0.000
REMARK  Name = *****
REMARK  4 active torsions:
REMARK  status: ('A' for Active; 'I' for Inactive)
REMARK    1  A    between atoms: C_1  and  C_2
REMARK    2  A    between atoms: N_8  and  C_18
REMARK    3  A    between atoms: C_10  and  C_11
REMARK    4  A    between atoms: C_11  and  C_12
REMARK                            x       y       z     vdW  Elec       q    Type
REMARK                         _______ _______ _______ _____ _____    ______ ____
ROOT
ATOM      1  C   UNL     1      87.278  69.488  87.966  0.00  0.00    +0.000 C 
ATOM      2  C   UNL     1      88.125  68.391  87.391  0.00  0.00    +0.000 A 
ATOM      3  C   UNL     1      87.783  67.045  87.593  0.00  0.00    +0.000 A 
ATOM      4  C   UNL     1      88.571  66.017  87.030  0.00  0.00    +0.000 A 
ATOM      5  C   UNL     1      89.691  66.373  86.275  0.00  0.00    +0.000 A 
ATOM      6  C   UNL     1      90.050  67.713  86.059  0.00  0.00    +0.000 A 
ATOM      7  C   UNL     1      89.249  68.709  86.624  0.00  0.00    +0.000 A 
ATOM      8  N   UNL     1      90.276  65.201  85.850  0.00  0.00    +0.000 N 
ATOM      9  C   UNL     1      89.580  64.122  86.322  0.00  0.00    +0.000 A 
ATOM     10  C   UNL     1      88.495  64.583  87.048  0.00  0.00    +0.000 A 
ATOM     11  C   UNL     1      91.464  65.115  85.030  0.00  0.00    +0.000 C 
ENDROOT
BRANCH  10  12
ATOM     12  C   UNL     1      87.475  63.745  87.748  0.00  0.00    +0.000 C 
BRANCH  12  13
ATOM     13  C   UNL     1      87.676  63.965  89.229  0.00  0.00    +0.000 A 
ATOM     14  C   UNL     1      86.614  64.401  90.038  0.00  0.00    +0.000 A 
ATOM     15  C   UNL     1      86.798  64.601  91.407  0.00  0.00    +0.000 A 
ATOM     16  C   UNL     1      88.044  64.367  91.986  0.00  0.00    +0.000 A 
ATOM     17  C   UNL     1      89.107  63.936  91.195  0.00  0.00    +0.000 A 
ATOM     18  C   UNL     1      88.926  63.737  89.826  0.00  0.00    +0.000 A 
ENDBRANCH  12  13
ENDBRANCH  10  12
TORSDOF 2
ENDMDL
