REMARK  Name = *****
REMARK  6 active torsions:
REMARK  status: ('A' for Active; 'I' for Inactive)
REMARK    1  A    between atoms: C_1  and  C_2
REMARK    2  A    between atoms: C_5  and  C_8
REMARK    3  A    between atoms: C_8  and  C_9
REMARK    4  A    between atoms: C_9  and  C_10
REMARK    5  A    between atoms: C_9  and  O_16
REMARK    6  A    between atoms: O_16  and  C_17
REMARK                            x       y       z     vdW  Elec       q    Type
REMARK                         _______ _______ _______ _____ _____    ______ ____
ROOT
ATOM      1  C   UNL     1      -3.464   1.634  -0.072  0.00  0.00    +0.000 C 
ENDROOT
BRANCH   1   2
ATOM      2  C   UNL     1      -2.546   2.796  -0.432  0.00  0.00    +0.000 A 
ATOM      3  C   UNL     1      -1.204   2.640  -0.803  0.00  0.00    +0.000 A 
ATOM      4  C   UNL     1      -0.415   3.750  -1.120  0.00  0.00    +0.000 A 
ATOM      5  C   UNL     1      -0.957   5.032  -1.077  0.00  0.00    +0.000 A 
ATOM      6  C   UNL     1      -2.289   5.208  -0.717  0.00  0.00    +0.000 A 
ATOM      7  C   UNL     1      -3.076   4.100  -0.398  0.00  0.00    +0.000 A 
ENDBRANCH   1   2
BRANCH   1   8
ATOM      8  O   UNL     1      -4.605   1.608  -0.958  0.00  0.00    +0.000 OA
ATOM      9  C   UNL     1      -4.328   1.230  -2.300  0.00  0.00    +0.000 C 
ENDBRANCH   1   8
BRANCH   1  10
ATOM     10  C   UNL     1      -2.851   0.220   0.086  0.00  0.00    +0.000 C 
BRANCH  10  15
ATOM     11  C   UNL     1       0.872  -0.756   4.479  0.00  0.00    +0.000 C 
ATOM     12  C   UNL     1      -0.072  -0.476   3.348  0.00  0.00    +0.000 A 
ATOM     13  C   UNL     1      -1.247   0.248   3.569  0.00  0.00    +0.000 A 
ATOM     14  C   UNL     1      -2.147   0.484   2.525  0.00  0.00    +0.000 A 
ATOM     15  C   UNL     1      -1.887   0.006   1.235  0.00  0.00    +0.000 A 
ATOM     16  C   UNL     1      -0.725  -0.752   1.028  0.00  0.00    +0.000 A 
ATOM     17  C   UNL     1       0.173  -0.990   2.072  0.00  0.00    +0.000 A 
ENDBRANCH  10  15
ENDBRANCH   1  10
TORSDOF 4
