MODEL 1
REMARK VINA RESULT:      -4.6      0.000      0.000
REMARK  Name = *****
REMARK  4 active torsions:
REMARK  status: ('A' for Active; 'I' for Inactive)
REMARK    1  A    between atoms: C_1  and  C_2
REMARK    2  A    between atoms: C_5  and  N_8
REMARK    3  A    between atoms: C_9  and  O_10
REMARK    4  A    between atoms: O_10  and  C_11
REMARK                            x       y       z     vdW  Elec       q    Type
REMARK                         _______ _______ _______ _____ _____    ______ ____
ROOT
ATOM      1  O   UNL     1      90.455  67.200  86.674  0.00  0.00    +0.000 OA
ENDROOT
BRANCH   1   2
ATOM      2  C   UNL     1      89.775  66.016  86.373  0.00  0.00    +0.000 A 
ATOM      3  C   UNL     1      90.356  65.122  85.487  0.00  0.00    +0.000 A 
ATOM      4  C   UNL     1      89.700  63.924  85.244  0.00  0.00    +0.000 A 
ATOM      5  N   UNL     1      88.530  63.570  85.827  0.00  0.00    +0.000 NA
ATOM      6  C   UNL     1      88.007  64.459  86.701  0.00  0.00    +0.000 A 
ATOM      7  C   UNL     1      88.587  65.679  87.007  0.00  0.00    +0.000 A 
ATOM      8  F   UNL     1      88.013  66.517  87.881  0.00  0.00    +0.000 F 
ATOM      9  F   UNL     1      86.851  64.125  87.294  0.00  0.00    +0.000 F 
ATOM     10  F   UNL     1      90.240  63.055  84.379  0.00  0.00    +0.000 F 
ATOM     11  F   UNL     1      91.510  65.412  84.874  0.00  0.00    +0.000 F 
ENDBRANCH   1   2
BRANCH   1  13
ATOM     12  N   UNL     1      89.559  69.313  86.497  0.00  0.00    +0.000 NA
ATOM     13  C   UNL     1      90.073  68.283  85.923  0.00  0.00    +0.000 C 
BRANCH  12  18
ATOM     14  C   UNL     1      88.079  73.544  82.953  0.00  0.00    +0.000 C 
ATOM     15  C   UNL     1      88.473  72.455  83.907  0.00  0.00    +0.000 A 
ATOM     16  C   UNL     1      89.810  72.051  84.006  0.00  0.00    +0.000 A 
ATOM     17  C   UNL     1      90.171  71.010  84.866  0.00  0.00    +0.000 A 
ATOM     18  C   UNL     1      89.204  70.361  85.637  0.00  0.00    +0.000 A 
ATOM     19  C   UNL     1      87.867  70.741  85.514  0.00  0.00    +0.000 A 
ATOM     20  C   UNL     1      87.502  71.781  84.654  0.00  0.00    +0.000 A 
ENDBRANCH  12  18
ENDBRANCH   1  13
TORSDOF 3
ENDMDL
