MODEL 1
REMARK VINA RESULT:      -4.8      0.000      0.000
REMARK  Name = *****
REMARK  3 active torsions:
REMARK  status: ('A' for Active; 'I' for Inactive)
REMARK    1  A    between atoms: C_4  and  C_7
REMARK    2  A    between atoms: C_8  and  C_9
REMARK    3  A    between atoms: C_12  and  C_15
REMARK                            x       y       z     vdW  Elec       q    Type
REMARK                         _______ _______ _______ _____ _____    ______ ____
ROOT
ATOM      1  C   UNL     1     103.665 124.771  81.661  0.00  0.00    +0.000 A 
ATOM      2  N   UNL     1     103.960 124.053  82.770  0.00  0.00    +0.000 NA
ATOM      3  C   UNL     1     104.852 123.042  82.648  0.00  0.00    +0.000 A 
ATOM      4  C   UNL     1     105.484 122.705  81.461  0.00  0.00    +0.000 A 
ATOM      5  C   UNL     1     105.159 123.451  80.326  0.00  0.00    +0.000 A 
ATOM      6  C   UNL     1     104.243 124.498  80.425  0.00  0.00    +0.000 A 
ENDROOT
BRANCH   4   7
ATOM      7  C   UNL     1     106.440 121.555  81.416  0.00  0.00    +0.000 C 
ATOM      8  F   UNL     1     105.824 120.347  81.285  0.00  0.00    +0.000 F 
ATOM      9  F   UNL     1     107.310 121.645  80.373  0.00  0.00    +0.000 F 
ATOM     10  F   UNL     1     107.210 121.458  82.535  0.00  0.00    +0.000 F 
ENDBRANCH   4   7
BRANCH   1  12
ATOM     11  C   UNL     1     101.773 125.937  82.769  0.00  0.00    +0.000 C 
ATOM     12  C   UNL     1     102.694 125.868  81.795  0.00  0.00    +0.000 C 
BRANCH  11  16
ATOM     13  C   UNL     1      99.024 129.173  83.275  0.00  0.00    +0.000 A 
ATOM     14  C   UNL     1      98.582 127.980  82.705  0.00  0.00    +0.000 A 
ATOM     15  C   UNL     1      99.472 126.917  82.528  0.00  0.00    +0.000 A 
ATOM     16  C   UNL     1     100.814 127.040  82.911  0.00  0.00    +0.000 A 
ATOM     17  C   UNL     1     101.242 128.237  83.499  0.00  0.00    +0.000 A 
ATOM     18  C   UNL     1     100.353 129.301  83.674  0.00  0.00    +0.000 A 
ENDBRANCH  11  16
ENDBRANCH   1  12
TORSDOF 3
ENDMDL
