REMARK  Name = *****
REMARK  5 active torsions:
REMARK  status: ('A' for Active; 'I' for Inactive)
REMARK    1  A    between atoms: C_1  and  C_2
REMARK    2  A    between atoms: C_5  and  C_8
REMARK    3  A    between atoms: C_9  and  C_10
REMARK    4  A    between atoms: C_10  and  S_16
REMARK    5  A    between atoms: S_16  and  C_17
REMARK                            x       y       z     vdW  Elec       q    Type
REMARK                         _______ _______ _______ _____ _____    ______ ____
ROOT
ATOM      1  C   UNL     1      -3.184  -0.003  -0.077  0.00  0.00    +0.000 C 
ATOM      2  C   UNL     1      -3.979   1.085  -0.088  0.00  0.00    +0.000 C 
ENDROOT
BRANCH   1   7
ATOM      3  C   UNL     1       2.602   0.065   0.094  0.00  0.00    +0.000 C 
ATOM      4  C   UNL     1       1.104   0.079   0.031  0.00  0.00    +0.000 A 
ATOM      5  C   UNL     1       0.368   0.982   0.806  0.00  0.00    +0.000 A 
ATOM      6  C   UNL     1      -1.030   0.971   0.773  0.00  0.00    +0.000 A 
ATOM      7  C   UNL     1      -1.717   0.058  -0.035  0.00  0.00    +0.000 A 
ATOM      8  C   UNL     1      -0.979  -0.866  -0.784  0.00  0.00    +0.000 A 
ATOM      9  C   UNL     1       0.419  -0.856  -0.752  0.00  0.00    +0.000 A 
ENDBRANCH   1   7
BRANCH   2  10
ATOM     10  C   UNL     1      -5.498   1.141  -0.136  0.00  0.00    +0.000 C 
ATOM     11  S   UNL     1      -6.018   2.695  -0.966  0.00  0.00    +0.000 S 
ATOM     12  C   UNL     1      -5.391   2.400  -2.642  0.00  0.00    +0.000 C 
ATOM     13  C   UNL     1      -6.013   1.177  -3.296  0.00  0.00    +0.000 C 
ATOM     14  C   UNL     1      -5.618  -0.134  -2.634  0.00  0.00    +0.000 C 
ATOM     15  S   UNL     1      -6.260  -0.310  -0.947  0.00  0.00    +0.000 S 
BRANCH  10  16
ATOM     16  S   UNL     1      -6.015   1.213   1.652  0.00  0.00    +0.000 S 
ATOM     17  C   UNL     1      -7.821   1.294   1.522  0.00  0.00    +0.000 C 
ENDBRANCH  10  16
ENDBRANCH   2  10
TORSDOF 3
