MODEL 1
REMARK VINA RESULT:      -4.2      0.000      0.000
REMARK  Name = *****
REMARK  4 active torsions:
REMARK  status: ('A' for Active; 'I' for Inactive)
REMARK    1  A    between atoms: C_1  and  C_2
REMARK    2  A    between atoms: C_3  and  N_9
REMARK    3  A    between atoms: C_4  and  C_8
REMARK    4  A    between atoms: C_10  and  C_11
REMARK                            x       y       z     vdW  Elec       q    Type
REMARK                         _______ _______ _______ _____ _____    ______ ____
ROOT
ATOM      1  C   UNL     1     103.079 129.115  84.380  0.00  0.00    +0.000 C 
ATOM      2  C   UNL     1     101.622 129.092  84.011  0.00  0.00    +0.000 A 
ATOM      3  C   UNL     1     101.043 127.948  83.426  0.00  0.00    +0.000 A 
ATOM      4  C   UNL     1      99.682 127.962  83.057  0.00  0.00    +0.000 A 
ATOM      5  C   UNL     1      98.904 129.098  83.329  0.00  0.00    +0.000 A 
ATOM      6  C   UNL     1      99.471 130.215  83.937  0.00  0.00    +0.000 A 
ATOM      7  C   UNL     1     100.824 130.214  84.274  0.00  0.00    +0.000 A 
ATOM      8  C   UNL     1      99.049 126.770  82.396  0.00  0.00    +0.000 C 
ENDROOT
BRANCH   3   9
ATOM      9  N   UNL     1     101.828 126.806  83.178  0.00  0.00    +0.000 NA
ATOM     10  C   UNL     1     102.379 126.751  82.006  0.00  0.00    +0.000 C 
BRANCH  10  11
ATOM     11  C   UNL     1     103.206 125.629  81.636  0.00  0.00    +0.000 A 
ATOM     12  C   UNL     1     103.655 125.259  80.384  0.00  0.00    +0.000 A 
ATOM     13  C   UNL     1     104.457 124.081  80.425  0.00  0.00    +0.000 A 
ATOM     14  C   UNL     1     104.592 123.596  81.706  0.00  0.00    +0.000 A 
ATOM     15  S   UNL     1     103.755 124.557  82.848  0.00  0.00    +0.000 S 
ENDBRANCH  10  11
ENDBRANCH   3   9
TORSDOF 2
ENDMDL
