MODEL 1
REMARK VINA RESULT:      -4.1      0.000      0.000
REMARK  Name = *****
REMARK  3 active torsions:
REMARK  status: ('A' for Active; 'I' for Inactive)
REMARK    1  A    between atoms: C_4  and  C_6
REMARK    2  A    between atoms: C_6  and  C_7
REMARK    3  A    between atoms: C_7  and  C_8
REMARK                            x       y       z     vdW  Elec       q    Type
REMARK                         _______ _______ _______ _____ _____    ______ ____
ROOT
ATOM      1  C   UNL     1      88.698  70.445  86.619  0.00  0.00    +0.000 C 
ATOM      2  F   UNL     1      87.849  70.979  87.551  0.00  0.00    +0.000 F 
ATOM      3  F   UNL     1      89.927  70.967  86.924  0.00  0.00    +0.000 F 
ENDROOT
BRANCH   1   7
ATOM      4  C   UNL     1      89.401  66.713  86.417  0.00  0.00    +0.000 C 
ATOM      5  C   UNL     1      88.180  66.726  87.334  0.00  0.00    +0.000 C 
ATOM      6  C   UNL     1      87.773  68.161  87.318  0.00  0.00    +0.000 C 
ATOM      7  C   UNL     1      88.728  68.950  86.800  0.00  0.00    +0.000 C 
ATOM      8  C   UNL     1      89.923  68.150  86.383  0.00  0.00    +0.000 C 
ENDBRANCH   1   7
BRANCH   1   9
ATOM      9  C   UNL     1      88.275  70.919  85.195  0.00  0.00    +0.000 C 
ATOM     10  F   UNL     1      87.720  69.866  84.515  0.00  0.00    +0.000 F 
ATOM     11  F   UNL     1      87.268  71.841  85.297  0.00  0.00    +0.000 F 
BRANCH   9  12
ATOM     12  C   UNL     1      89.389  71.514  84.375  0.00  0.00    +0.000 C 
ATOM     13  C   UNL     1      89.555  72.797  84.014  0.00  0.00    +0.000 C 
ATOM     14  C   UNL     1      90.786  72.992  83.194  0.00  0.00    +0.000 C 
ATOM     15  C   UNL     1      91.541  71.682  83.404  0.00  0.00    +0.000 C 
ATOM     16  C   UNL     1      90.499  70.656  83.850  0.00  0.00    +0.000 C 
ENDBRANCH   9  12
ENDBRANCH   1   9
TORSDOF 3
ENDMDL
