MODEL 1
REMARK VINA RESULT:      -4.8      0.000      0.000
REMARK  Name = *****
REMARK  5 active torsions:
REMARK  status: ('A' for Active; 'I' for Inactive)
REMARK    1  A    between atoms: C_1  and  C_2
REMARK    2  A    between atoms: C_4  and  C_8
REMARK    3  A    between atoms: C_8  and  C_9
REMARK    4  A    between atoms: C_9  and  C_10
REMARK    5  A    between atoms: C_10  and  C_12
REMARK                            x       y       z     vdW  Elec       q    Type
REMARK                         _______ _______ _______ _____ _____    ______ ____
ROOT
ATOM      1  C   UNL     1      89.592  69.569  84.379  0.00  0.00    +0.000 C 
ATOM      2  O   UNL     1      90.275  68.842  83.661  0.00  0.00    +0.000 OA
ENDROOT
BRANCH   1   3
ATOM      3  C   UNL     1      89.387  70.993  83.976  0.00  0.00    +0.000 A 
ATOM      4  C   UNL     1      88.117  71.526  83.726  0.00  0.00    +0.000 A 
ATOM      5  C   UNL     1      87.993  72.863  83.353  0.00  0.00    +0.000 A 
ATOM      6  C   UNL     1      89.105  73.684  83.223  0.00  0.00    +0.000 A 
ATOM      7  C   UNL     1      90.359  73.150  83.472  0.00  0.00    +0.000 A 
ATOM      8  C   UNL     1      90.513  71.818  83.846  0.00  0.00    +0.000 A 
ATOM      9  F   UNL     1      91.441  73.929  83.351  0.00  0.00    +0.000 F 
ATOM     10  F   UNL     1      86.775  73.365  83.116  0.00  0.00    +0.000 F 
ENDBRANCH   1   3
BRANCH   1  11
ATOM     11  C   UNL     1      88.949  69.075  85.661  0.00  0.00    +0.000 C 
BRANCH  11  12
ATOM     12  C   UNL     1      89.523  69.778  86.891  0.00  0.00    +0.000 C 
BRANCH  12  16
ATOM     13  C   UNL     1      85.011  72.020  87.139  0.00  0.00    +0.000 C 
ATOM     14  C   UNL     1      86.236  71.487  87.821  0.00  0.00    +0.000 A 
ATOM     15  C   UNL     1      87.268  70.904  87.074  0.00  0.00    +0.000 A 
ATOM     16  C   UNL     1      88.434  70.437  87.699  0.00  0.00    +0.000 A 
ATOM     17  C   UNL     1      88.559  70.563  89.088  0.00  0.00    +0.000 A 
ATOM     18  C   UNL     1      87.543  71.156  89.836  0.00  0.00    +0.000 A 
ATOM     19  C   UNL     1      86.389  71.620  89.206  0.00  0.00    +0.000 A 
ENDBRANCH  12  16
ENDBRANCH  11  12
ENDBRANCH   1  11
TORSDOF 4
ENDMDL
