MODEL 1
REMARK VINA RESULT:      -3.8      0.000      0.000
REMARK  Name = *****
REMARK  2 active torsions:
REMARK  status: ('A' for Active; 'I' for Inactive)
REMARK    1  A    between atoms: C_5  and  C_6
REMARK    2  A    between atoms: C_6  and  C_8
REMARK                            x       y       z     vdW  Elec       q    Type
REMARK                         _______ _______ _______ _____ _____    ______ ____
ROOT
ATOM      1  C   UNL     1      88.175  70.388  88.100  0.00  0.00    +0.000 C 
ATOM      2  O   UNL     1      88.499  70.586  89.265  0.00  0.00    +0.000 OA
ENDROOT
BRANCH   1   3
ATOM      3  C   UNL     1      86.975  71.066  87.533  0.00  0.00    +0.000 A 
ATOM      4  C   UNL     1      86.797  71.252  86.155  0.00  0.00    +0.000 A 
ATOM      5  C   UNL     1      85.647  71.893  85.678  0.00  0.00    +0.000 A 
ATOM      6  C   UNL     1      84.675  72.340  86.572  0.00  0.00    +0.000 A 
ATOM      7  C   UNL     1      84.836  72.146  87.942  0.00  0.00    +0.000 A 
ATOM      8  C   UNL     1      85.982  71.507  88.422  0.00  0.00    +0.000 A 
ATOM      9 CL   UNL     1      83.267  73.127  85.978  0.00  0.00    +0.000 Cl
ENDBRANCH   1   3
BRANCH   1  14
ATOM     10  C   UNL     1      89.412  65.786  86.246  0.00  0.00    +0.000 C 
ATOM     11  C   UNL     1      87.917  65.828  86.507  0.00  0.00    +0.000 C 
ATOM     12  S   UNL     1      87.579  67.267  87.564  0.00  0.00    +0.000 S 
ATOM     13  C   UNL     1      88.844  68.270  86.920  0.00  0.00    +0.000 C 
ATOM     14  C   UNL     1      89.004  69.576  87.170  0.00  0.00    +0.000 C 
ATOM     15  S   UNL     1      89.942  67.472  85.816  0.00  0.00    +0.000 S 
ENDBRANCH   1  14
TORSDOF 2
ENDMDL
