MODEL 1
REMARK VINA RESULT:      -4.5      0.000      0.000
REMARK  Name = *****
REMARK  4 active torsions:
REMARK  status: ('A' for Active; 'I' for Inactive)
REMARK    1  A    between atoms: C_4  and  C_8
REMARK    2  A    between atoms: C_8  and  O_10
REMARK    3  A    between atoms: O_10  and  C_11
REMARK    4  A    between atoms: C_11  and  C_12
REMARK                            x       y       z     vdW  Elec       q    Type
REMARK                         _______ _______ _______ _____ _____    ______ ____
ROOT
ATOM      1  C   UNL     1     103.566 125.217  81.412  0.00  0.00    +0.000 C 
ATOM      2  O   UNL     1     104.001 124.177  81.892  0.00  0.00    +0.000 OA
ENDROOT
BRANCH   1   6
ATOM      3  C   UNL     1     105.872 127.998  80.371  0.00  0.00    +0.000 C 
ATOM      4  C   UNL     1     104.481 128.598  80.590  0.00  0.00    +0.000 C 
ATOM      5  C   UNL     1     103.570 127.450  80.104  0.00  0.00    +0.000 C 
ATOM      6  C   UNL     1     104.361 126.180  80.537  0.00  0.00    +0.000 C 
ATOM      7  C   UNL     1     105.592 126.783  81.265  0.00  0.00    +0.000 C 
ATOM      8  C   UNL     1     105.144 127.518  82.511  0.00  0.00    +0.000 C 
ATOM      9  C   UNL     1     104.463 128.598  82.102  0.00  0.00    +0.000 C 
ATOM     10  F   UNL     1     104.808 125.558  79.398  0.00  0.00    +0.000 F 
ENDBRANCH   1   6
BRANCH   1  11
ATOM     11  O   UNL     1     102.308 125.702  81.617  0.00  0.00    +0.000 OA
BRANCH  11  12
ATOM     12  C   UNL     1     101.932 125.907  82.983  0.00  0.00    +0.000 C 
BRANCH  12  13
ATOM     13  C   UNL     1     100.905 127.005  83.065  0.00  0.00    +0.000 A 
ATOM     14  C   UNL     1      99.624 126.823  82.527  0.00  0.00    +0.000 A 
ATOM     15  C   UNL     1      98.678 127.846  82.589  0.00  0.00    +0.000 A 
ATOM     16  C   UNL     1      99.006 129.064  83.182  0.00  0.00    +0.000 A 
ATOM     17  C   UNL     1     100.281 129.262  83.708  0.00  0.00    +0.000 A 
ATOM     18  C   UNL     1     101.229 128.239  83.646  0.00  0.00    +0.000 A 
ENDBRANCH  12  13
ENDBRANCH  11  12
ENDBRANCH   1  11
TORSDOF 4
ENDMDL
