MODEL 1
REMARK VINA RESULT:      -4.5      0.000      0.000
REMARK  Name = *****
REMARK  4 active torsions:
REMARK  status: ('A' for Active; 'I' for Inactive)
REMARK    1  A    between atoms: C_1  and  C_2
REMARK    2  A    between atoms: C_4  and  O_8
REMARK    3  A    between atoms: O_8  and  C_9
REMARK    4  A    between atoms: C_9  and  C_10
REMARK                            x       y       z     vdW  Elec       q    Type
REMARK                         _______ _______ _______ _____ _____    ______ ____
ROOT
ATOM      1  C   UNL     1      99.403 130.829  84.054  0.00  0.00    +0.000 C 
ATOM      2  C   UNL     1      99.737 129.445  83.572  0.00  0.00    +0.000 A 
ATOM      3  C   UNL     1     101.022 128.890  83.689  0.00  0.00    +0.000 A 
ATOM      4  C   UNL     1     101.234 127.594  83.209  0.00  0.00    +0.000 A 
ATOM      5  N   UNL     1     100.266 126.838  82.638  0.00  0.00    +0.000 NA
ATOM      6  C   UNL     1      99.042 127.391  82.537  0.00  0.00    +0.000 A 
ATOM      7  C   UNL     1      98.733 128.668  82.981  0.00  0.00    +0.000 A 
ATOM      8 BR   UNL     1     102.448 129.871  84.481  0.00  0.00    +0.000 Br
ENDROOT
BRANCH   4   9
ATOM      9  O   UNL     1     102.502 127.059  83.328  0.00  0.00    +0.000 OA
BRANCH   9  10
ATOM     10  C   UNL     1     102.515 125.640  83.480  0.00  0.00    +0.000 C 
BRANCH  10  11
ATOM     11  C   UNL     1     103.353 124.979  82.400  0.00  0.00    +0.000 A 
ATOM     12  C   UNL     1     103.400 125.450  81.081  0.00  0.00    +0.000 A 
ATOM     13  C   UNL     1     104.183 124.805  80.122  0.00  0.00    +0.000 A 
ATOM     14  C   UNL     1     104.928 123.680  80.469  0.00  0.00    +0.000 A 
ATOM     15  C   UNL     1     104.892 123.199  81.775  0.00  0.00    +0.000 A 
ATOM     16  C   UNL     1     104.109 123.844  82.735  0.00  0.00    +0.000 A 
ENDBRANCH  10  11
ENDBRANCH   9  10
ENDBRANCH   4   9
TORSDOF 3
ENDMDL
