MODEL 1
REMARK VINA RESULT:      -4.6      0.000      0.000
REMARK  Name = *****
REMARK  4 active torsions:
REMARK  status: ('A' for Active; 'I' for Inactive)
REMARK    1  A    between atoms: C_2  and  C_3
REMARK    2  A    between atoms: C_3  and  C_4
REMARK    3  A    between atoms: C_3  and  C_10
REMARK    4  A    between atoms: C_4  and  C_5
REMARK                            x       y       z     vdW  Elec       q    Type
REMARK                         _______ _______ _______ _____ _____    ______ ____
ROOT
ATOM      1  C   UNL     1     102.822 126.653  81.217  0.00  0.00    +0.000 C 
ENDROOT
BRANCH   1   2
ATOM      2  C   UNL     1     103.531 125.322  81.456  0.00  0.00    +0.000 A 
ATOM      3  C   UNL     1     104.133 124.583  80.426  0.00  0.00    +0.000 A 
ATOM      4  C   UNL     1     104.757 123.361  80.691  0.00  0.00    +0.000 A 
ATOM      5  C   UNL     1     104.779 122.854  81.988  0.00  0.00    +0.000 A 
ATOM      6  C   UNL     1     104.174 123.564  83.020  0.00  0.00    +0.000 A 
ATOM      7  C   UNL     1     103.552 124.785  82.756  0.00  0.00    +0.000 A 
ENDBRANCH   1   2
BRANCH   1   9
ATOM      8  C   UNL     1     104.461 128.470  80.567  0.00  0.00    +0.000 C 
ATOM      9  C   UNL     1     103.622 127.482  80.226  0.00  0.00    +0.000 C 
ENDBRANCH   1   9
BRANCH   1  10
ATOM     10  C   UNL     1     102.536 127.508  82.483  0.00  0.00    +0.000 C 
BRANCH  10  11
ATOM     11  C   UNL     1     101.100 127.760  82.853  0.00  0.00    +0.000 C 
ATOM     12  C   UNL     1     100.557 128.760  83.561  0.00  0.00    +0.000 C 
ATOM     13  C   UNL     1      99.082 128.602  83.723  0.00  0.00    +0.000 C 
ATOM     14  C   UNL     1      98.745 127.514  82.709  0.00  0.00    +0.000 C 
ATOM     15  C   UNL     1     100.051 126.771  82.436  0.00  0.00    +0.000 C 
ENDBRANCH  10  11
ENDBRANCH   1  10
TORSDOF 4
ENDMDL
