MODEL 1
REMARK VINA RESULT:      -4.9      0.000      0.000
REMARK  Name = *****
REMARK  5 active torsions:
REMARK  status: ('A' for Active; 'I' for Inactive)
REMARK    1  A    between atoms: C_1  and  C_2
REMARK    2  A    between atoms: C_4  and  C_18
REMARK    3  A    between atoms: C_6  and  S_8
REMARK    4  A    between atoms: S_8  and  C_10
REMARK    5  A    between atoms: C_10  and  C_11
REMARK                            x       y       z     vdW  Elec       q    Type
REMARK                         _______ _______ _______ _____ _____    ______ ____
ROOT
ATOM      1  S   UNL     1      88.599  70.252  86.201  0.00  0.00    +0.000 S 
ATOM      2  O   UNL     1      89.962  70.869  86.331  0.00  0.00    +0.000 OA
ENDROOT
BRANCH   1   8
ATOM      3  C   UNL     1      91.248  65.718  85.420  0.00  0.00    +0.000 C 
ATOM      4  C   UNL     1      90.107  66.436  86.078  0.00  0.00    +0.000 A 
ATOM      5  C   UNL     1      89.185  65.734  86.865  0.00  0.00    +0.000 A 
ATOM      6  C   UNL     1      88.087  66.386  87.441  0.00  0.00    +0.000 A 
ATOM      7  C   UNL     1      87.928  67.762  87.239  0.00  0.00    +0.000 A 
ATOM      8  C   UNL     1      88.839  68.476  86.450  0.00  0.00    +0.000 A 
ATOM      9  C   UNL     1      89.916  67.807  85.861  0.00  0.00    +0.000 A 
ATOM     10  C   UNL     1      87.125  65.629  88.309  0.00  0.00    +0.000 C 
ENDBRANCH   1   8
BRANCH   1  11
ATOM     11  C   UNL     1      87.702  70.564  87.763  0.00  0.00    +0.000 C 
BRANCH  11  12
ATOM     12  C   UNL     1      86.398  71.286  87.527  0.00  0.00    +0.000 A 
ATOM     13  C   UNL     1      85.974  71.590  86.224  0.00  0.00    +0.000 A 
ATOM     14  C   UNL     1      84.769  72.264  86.012  0.00  0.00    +0.000 A 
ATOM     15  C   UNL     1      83.984  72.641  87.099  0.00  0.00    +0.000 A 
ATOM     16  C   UNL     1      84.393  72.351  88.398  0.00  0.00    +0.000 A 
ATOM     17  C   UNL     1      85.597  71.676  88.611  0.00  0.00    +0.000 A 
ATOM     18 CL   UNL     1      82.500  73.471  86.834  0.00  0.00    +0.000 Cl
ENDBRANCH  11  12
ENDBRANCH   1  11
TORSDOF 3
ENDMDL
