MODEL 1
REMARK VINA RESULT:      -4.7      0.000      0.000
REMARK  Name = *****
REMARK  4 active torsions:
REMARK  status: ('A' for Active; 'I' for Inactive)
REMARK    1  A    between atoms: C_4  and  C_7
REMARK    2  A    between atoms: C_7  and  O_9
REMARK    3  A    between atoms: O_9  and  C_10
REMARK    4  A    between atoms: C_10  and  C_11
REMARK                            x       y       z     vdW  Elec       q    Type
REMARK                         _______ _______ _______ _____ _____    ______ ____
ROOT
ATOM      1  O   UNL     1     103.542 125.008  80.139  0.00  0.00    +0.000 OA
ENDROOT
BRANCH   1   2
ATOM      2  C   UNL     1     104.680 124.275  80.128  0.00  0.00    +0.000 C 
ATOM      3  O   UNL     1     105.640 124.452  79.394  0.00  0.00    +0.000 OA
BRANCH   2   7
ATOM      4  C   UNL     1     104.489 121.090  82.992  0.00  0.00    +0.000 A 
ATOM      5  C   UNL     1     104.427 122.410  83.437  0.00  0.00    +0.000 A 
ATOM      6  C   UNL     1     104.489 123.462  82.520  0.00  0.00    +0.000 A 
ATOM      7  C   UNL     1     104.614 123.195  81.149  0.00  0.00    +0.000 A 
ATOM      8  C   UNL     1     104.673 121.866  80.711  0.00  0.00    +0.000 A 
ATOM      9  C   UNL     1     104.612 120.816  81.630  0.00  0.00    +0.000 A 
ENDBRANCH   2   7
ENDBRANCH   1   2
BRANCH   1  10
ATOM     10  C   UNL     1     103.709 126.423  80.291  0.00  0.00    +0.000 C 
BRANCH  10  11
ATOM     11  C   UNL     1     102.949 126.898  81.506  0.00  0.00    +0.000 A 
ATOM     12  C   UNL     1     103.278 128.082  82.195  0.00  0.00    +0.000 A 
ATOM     13  C   UNL     1     102.543 128.455  83.333  0.00  0.00    +0.000 A 
ATOM     14  C   UNL     1     101.493 127.652  83.790  0.00  0.00    +0.000 A 
ATOM     15  C   UNL     1     101.173 126.473  83.122  0.00  0.00    +0.000 A 
ATOM     16  C   UNL     1     101.898 126.098  81.993  0.00  0.00    +0.000 A 
ATOM     17 CL   UNL     1     102.878 129.898  84.226  0.00  0.00    +0.000 Cl
ATOM     18 CL   UNL     1     104.593 129.069  81.638  0.00  0.00    +0.000 Cl
ENDBRANCH  10  11
ENDBRANCH   1  10
TORSDOF 4
ENDMDL
