REMARK  Name = *****
REMARK  2 active torsions:
REMARK  status: ('A' for Active; 'I' for Inactive)
REMARK    1  A    between atoms: C_7  and  C_8
REMARK    2  A    between atoms: C_9  and  C_10
REMARK                            x       y       z     vdW  Elec       q    Type
REMARK                         _______ _______ _______ _____ _____    ______ ____
ROOT
ATOM      1  C   UNL     1      -0.118  -0.014  -1.280  0.00  0.00    +0.000 C 
ATOM      2  C   UNL     1      -0.010  -1.155  -0.253  0.00  0.00    +0.000 C 
ATOM      3  C   UNL     1       1.245  -0.664   0.455  0.00  0.00    +0.000 C 
ATOM      4  C   UNL     1       1.185   0.683   0.482  0.00  0.00    +0.000 C 
ATOM      5  C   UNL     1      -0.112   1.086  -0.205  0.00  0.00    +0.000 C 
ATOM      6  C   UNL     1      -1.275   0.559   0.610  0.00  0.00    +0.000 C 
ATOM      7  C   UNL     1      -1.223  -0.785   0.589  0.00  0.00    +0.000 C 
ATOM      8 CL   UNL     1      -2.389   1.583   1.365  0.00  0.00    +0.000 Cl
ENDROOT
BRANCH   7   9
ATOM      9  C   UNL     1      -2.110  -1.691   1.209  0.00  0.00    +0.000 C 
ATOM     10  C   UNL     1      -2.865  -2.462   1.736  0.00  0.00    +0.000 C 
BRANCH  10  11
ATOM     11  C   UNL     1      -3.768  -3.374   2.366  0.00  0.00    +0.000 A 
ATOM     12  C   UNL     1      -3.484  -4.741   2.385  0.00  0.00    +0.000 A 
ATOM     13  C   UNL     1      -4.367  -5.630   3.001  0.00  0.00    +0.000 A 
ATOM     14  C   UNL     1      -5.534  -5.153   3.598  0.00  0.00    +0.000 A 
ATOM     15  C   UNL     1      -5.819  -3.788   3.580  0.00  0.00    +0.000 A 
ATOM     16  C   UNL     1      -4.937  -2.898   2.965  0.00  0.00    +0.000 A 
ENDBRANCH  10  11
ENDBRANCH   7   9
TORSDOF 2
