MODEL 1
REMARK VINA RESULT:      -4.3      0.000      0.000
REMARK  Name = *****
REMARK  4 active torsions:
REMARK  status: ('A' for Active; 'I' for Inactive)
REMARK    1  A    between atoms: C_4  and  C_7
REMARK    2  A    between atoms: C_7  and  N_8
REMARK    3  A    between atoms: N_8  and  C_9
REMARK    4  A    between atoms: N_8  and  C_15
REMARK                            x       y       z     vdW  Elec       q    Type
REMARK                         _______ _______ _______ _____ _____    ______ ____
ROOT
ATOM      1  N   UNL     1      87.927  70.875  86.063  0.00  0.00    +0.000 N 
ENDROOT
BRANCH   1   2
ATOM      2  C   UNL     1      86.655  71.355  86.535  0.00  0.00    +0.000 A 
ATOM      3  C   UNL     1      85.687  71.844  85.644  0.00  0.00    +0.000 A 
ATOM      4  C   UNL     1      84.462  72.338  86.105  0.00  0.00    +0.000 A 
ATOM      5  C   UNL     1      84.190  72.367  87.469  0.00  0.00    +0.000 A 
ATOM      6  C   UNL     1      85.146  71.910  88.370  0.00  0.00    +0.000 A 
ATOM      7  C   UNL     1      86.369  71.414  87.907  0.00  0.00    +0.000 A 
ENDBRANCH   1   2
BRANCH   1   8
ATOM      8  C   UNL     1      88.329  70.974  84.719  0.00  0.00    +0.000 C 
ATOM      9  S   UNL     1      89.118  72.268  83.994  0.00  0.00    +0.000 S 
ATOM     10 CL   UNL     1      87.902  69.742  83.573  0.00  0.00    +0.000 Cl
ENDBRANCH   1   8
BRANCH   1  11
ATOM     11  C   UNL     1      88.798  70.212  87.054  0.00  0.00    +0.000 C 
BRANCH  11  15
ATOM     12  C   UNL     1      88.969  65.890  86.829  0.00  0.00    +0.000 A 
ATOM     13  C   UNL     1      90.017  66.639  86.303  0.00  0.00    +0.000 A 
ATOM     14  C   UNL     1      89.982  68.034  86.360  0.00  0.00    +0.000 A 
ATOM     15  C   UNL     1      88.892  68.702  86.940  0.00  0.00    +0.000 A 
ATOM     16  C   UNL     1      87.845  67.929  87.470  0.00  0.00    +0.000 A 
ATOM     17  C   UNL     1      87.883  66.535  87.414  0.00  0.00    +0.000 A 
ENDBRANCH  11  15
ENDBRANCH   1  11
TORSDOF 4
ENDMDL
