MODEL 1
REMARK VINA RESULT:      -5.2      0.000      0.000
REMARK  Name = *****
REMARK  2 active torsions:
REMARK  status: ('A' for Active; 'I' for Inactive)
REMARK    1  A    between atoms: C_3  and  C_8
REMARK    2  A    between atoms: C_9  and  C_10
REMARK                            x       y       z     vdW  Elec       q    Type
REMARK                         _______ _______ _______ _____ _____    ______ ____
ROOT
ATOM      1  C   UNL     1     102.082 125.921  82.353  0.00  0.00    +0.000 C 
ATOM      2  C   UNL     1     102.900 125.983  81.289  0.00  0.00    +0.000 C 
ENDROOT
BRANCH   2   3
ATOM      3  C   UNL     1     103.898 124.956  80.962  0.00  0.00    +0.000 A 
ATOM      4  C   UNL     1     104.693 125.024  79.809  0.00  0.00    +0.000 A 
ATOM      5  C   UNL     1     105.646 124.039  79.559  0.00  0.00    +0.000 A 
ATOM      6  C   UNL     1     105.827 122.990  80.450  0.00  0.00    +0.000 A 
ATOM      7  C   UNL     1     105.061 122.914  81.607  0.00  0.00    +0.000 A 
ATOM      8  C   UNL     1     104.102 123.899  81.864  0.00  0.00    +0.000 A 
ATOM      9  F   UNL     1     106.746 122.046  80.205  0.00  0.00    +0.000 F 
ATOM     10  F   UNL     1     106.393 124.117  78.449  0.00  0.00    +0.000 F 
ENDBRANCH   2   3
BRANCH   1  13
ATOM     11  C   UNL     1     100.633 129.138  83.679  0.00  0.00    +0.000 A 
ATOM     12  C   UNL     1     101.539 128.136  83.314  0.00  0.00    +0.000 A 
ATOM     13  C   UNL     1     101.097 126.959  82.690  0.00  0.00    +0.000 A 
ATOM     14  C   UNL     1      99.726 126.791  82.465  0.00  0.00    +0.000 A 
ATOM     15  C   UNL     1      98.833 127.794  82.831  0.00  0.00    +0.000 A 
ATOM     16  C   UNL     1      99.274 128.966  83.433  0.00  0.00    +0.000 A 
ATOM     17  F   UNL     1      97.524 127.623  82.605  0.00  0.00    +0.000 F 
ENDBRANCH   1  13
TORSDOF 2
ENDMDL
