MODEL 1
REMARK VINA RESULT:      -4.5      0.000      0.000
REMARK  Name = *****
REMARK  4 active torsions:
REMARK  status: ('A' for Active; 'I' for Inactive)
REMARK    1  A    between atoms: C_4  and  C_7
REMARK    2  A    between atoms: C_7  and  O_8
REMARK    3  A    between atoms: O_8  and  C_9
REMARK    4  A    between atoms: C_9  and  C_11
REMARK                            x       y       z     vdW  Elec       q    Type
REMARK                         _______ _______ _______ _____ _____    ______ ____
ROOT
ATOM      1  O   UNL     1     103.450 125.150  80.089  0.00  0.00    +0.000 OA
ENDROOT
BRANCH   1   2
ATOM      2  C   UNL     1     104.623 124.471  80.094  0.00  0.00    +0.000 C 
ATOM      3  O   UNL     1     105.593 124.702  79.390  0.00  0.00    +0.000 OA
BRANCH   2   4
ATOM      4  C   UNL     1     104.587 123.370  81.094  0.00  0.00    +0.000 A 
ATOM      5  C   UNL     1     104.438 123.604  82.469  0.00  0.00    +0.000 A 
ATOM      6  C   UNL     1     104.425 122.533  83.366  0.00  0.00    +0.000 A 
ATOM      7  C   UNL     1     104.557 121.226  82.897  0.00  0.00    +0.000 A 
ATOM      8  C   UNL     1     104.704 120.984  81.532  0.00  0.00    +0.000 A 
ATOM      9  C   UNL     1     104.720 122.053  80.633  0.00  0.00    +0.000 A 
ENDBRANCH   2   4
ENDBRANCH   1   2
BRANCH   1  10
ATOM     10  C   UNL     1     103.549 126.561  80.317  0.00  0.00    +0.000 C 
BRANCH  10  14
ATOM     11  C   UNL     1     101.432 127.643  83.913  0.00  0.00    +0.000 A 
ATOM     12  C   UNL     1     101.082 126.484  83.223  0.00  0.00    +0.000 A 
ATOM     13  C   UNL     1     101.765 126.131  82.057  0.00  0.00    +0.000 A 
ATOM     14  C   UNL     1     102.811 126.932  81.577  0.00  0.00    +0.000 A 
ATOM     15  C   UNL     1     103.143 128.102  82.273  0.00  0.00    +0.000 A 
ATOM     16  C   UNL     1     102.459 128.455  83.437  0.00  0.00    +0.000 A 
ENDBRANCH  10  14
ENDBRANCH   1  10
TORSDOF 4
ENDMDL
