MODEL 1
REMARK VINA RESULT:      -4.8      0.000      0.000
REMARK  Name = *****
REMARK  4 active torsions:
REMARK  status: ('A' for Active; 'I' for Inactive)
REMARK    1  A    between atoms: C_4  and  C_7
REMARK    2  A    between atoms: C_7  and  C_8
REMARK    3  A    between atoms: C_8  and  O_10
REMARK    4  A    between atoms: O_10  and  C_11
REMARK                            x       y       z     vdW  Elec       q    Type
REMARK                         _______ _______ _______ _____ _____    ______ ____
ROOT
ATOM      1  C   UNL     1     102.843 125.330  83.276  0.00  0.00    +0.000 C 
ATOM      2  O   UNL     1     102.426 125.080  84.398  0.00  0.00    +0.000 OA
ENDROOT
BRANCH   1   3
ATOM      3  C   UNL     1     102.049 125.950  82.144  0.00  0.00    +0.000 C 
BRANCH   3   7
ATOM      4  C   UNL     1      99.127 128.864  83.408  0.00  0.00    +0.000 A 
ATOM      5  C   UNL     1      98.716 127.696  82.770  0.00  0.00    +0.000 A 
ATOM      6  C   UNL     1      99.660 126.753  82.362  0.00  0.00    +0.000 A 
ATOM      7  C   UNL     1     101.027 126.969  82.590  0.00  0.00    +0.000 A 
ATOM      8  C   UNL     1     101.430 128.152  83.226  0.00  0.00    +0.000 A 
ATOM      9  C   UNL     1     100.483 129.092  83.635  0.00  0.00    +0.000 A 
ENDBRANCH   3   7
ENDBRANCH   1   3
BRANCH   1  10
ATOM     10  O   UNL     1     104.149 125.136  82.825  0.00  0.00    +0.000 OA
BRANCH  10  11
ATOM     11  C   UNL     1     104.379 123.826  82.406  0.00  0.00    +0.000 A 
ATOM     12  C   UNL     1     104.449 122.811  83.357  0.00  0.00    +0.000 A 
ATOM     13  C   UNL     1     104.640 121.495  82.931  0.00  0.00    +0.000 A 
ATOM     14  C   UNL     1     104.741 121.203  81.566  0.00  0.00    +0.000 A 
ATOM     15  C   UNL     1     104.650 122.226  80.621  0.00  0.00    +0.000 A 
ATOM     16  C   UNL     1     104.462 123.537  81.046  0.00  0.00    +0.000 A 
ATOM     17  F   UNL     1     104.353 124.517  80.138  0.00  0.00    +0.000 F 
ENDBRANCH  10  11
ENDBRANCH   1  10
TORSDOF 4
ENDMDL
