REMARK  Name = *****
REMARK  4 active torsions:
REMARK  status: ('A' for Active; 'I' for Inactive)
REMARK    1  A    between atoms: C_1  and  C_2
REMARK    2  A    between atoms: C_2  and  C_3
REMARK    3  A    between atoms: C_8  and  C_9
REMARK    4  A    between atoms: C_10  and  C_11
REMARK                            x       y       z     vdW  Elec       q    Type
REMARK                         _______ _______ _______ _____ _____    ______ ____
ROOT
ATOM      1  C   UNL     1       2.928   0.895   1.154  0.00  0.00    +0.000 A 
ATOM      2  C   UNL     1       2.756   2.291   1.096  0.00  0.00    +0.000 A 
ATOM      3  C   UNL     1       2.987   3.090   2.215  0.00  0.00    +0.000 A 
ATOM      4  C   UNL     1       3.390   2.509   3.412  0.00  0.00    +0.000 A 
ATOM      5  C   UNL     1       3.559   1.127   3.490  0.00  0.00    +0.000 A 
ATOM      6  C   UNL     1       3.327   0.309   2.372  0.00  0.00    +0.000 A 
ENDROOT
BRANCH   1   8
ATOM      7  C   UNL     1       1.190  -0.406  -0.117  0.00  0.00    +0.000 C 
ATOM      8  C   UNL     1       2.632   0.081  -0.085  0.00  0.00    +0.000 C 
ENDBRANCH   1   8
BRANCH   6   9
ATOM      9  C   UNL     1       3.528  -1.139   2.506  0.00  0.00    +0.000 C 
ATOM     10  C   UNL     1       2.760  -1.892   3.309  0.00  0.00    +0.000 C 
BRANCH  10  11
ATOM     11  C   UNL     1       2.911  -3.346   3.452  0.00  0.00    +0.000 A 
ATOM     12  C   UNL     1       4.167  -3.964   3.512  0.00  0.00    +0.000 A 
ATOM     13  C   UNL     1       4.271  -5.347   3.679  0.00  0.00    +0.000 A 
ATOM     14  C   UNL     1       3.121  -6.125   3.796  0.00  0.00    +0.000 A 
ATOM     15  C   UNL     1       1.867  -5.520   3.753  0.00  0.00    +0.000 A 
ATOM     16  C   UNL     1       1.763  -4.136   3.588  0.00  0.00    +0.000 A 
ENDBRANCH  10  11
ENDBRANCH   6   9
TORSDOF 3
