MODEL 1
REMARK VINA RESULT:      -4.1      0.000      0.000
REMARK  Name = *****
REMARK  3 active torsions:
REMARK  status: ('A' for Active; 'I' for Inactive)
REMARK    1  A    between atoms: C_1  and  N_2
REMARK    2  A    between atoms: N_2  and  C_3
REMARK    3  A    between atoms: N_2  and  C_9
REMARK                            x       y       z     vdW  Elec       q    Type
REMARK                         _______ _______ _______ _____ _____    ______ ____
ROOT
ATOM      1  C   UNL     1      89.397  70.727  85.902  0.00  0.00    +0.000 C 
ATOM      2  N   UNL     1      88.533  69.985  86.820  0.00  0.00    +0.000 N 
ENDROOT
BRANCH   2   3
ATOM      3  C   UNL     1      87.676  70.588  87.732  0.00  0.00    +0.000 C 
ATOM      4  C   UNL     1      86.523  71.263  87.599  0.00  0.00    +0.000 C 
ATOM      5  C   UNL     1      85.749  71.556  86.343  0.00  0.00    +0.000 C 
ATOM      6  C   UNL     1      84.616  72.464  86.810  0.00  0.00    +0.000 C 
ATOM      7  C   UNL     1      84.373  72.041  88.249  0.00  0.00    +0.000 C 
ATOM      8  C   UNL     1      85.778  71.814  88.791  0.00  0.00    +0.000 C 
ENDBRANCH   2   3
BRANCH   2   9
ATOM      9  C   UNL     1      88.746  68.580  86.831  0.00  0.00    +0.000 A 
ATOM     10  C   UNL     1      89.895  67.996  86.273  0.00  0.00    +0.000 A 
ATOM     11  C   UNL     1      90.090  66.611  86.294  0.00  0.00    +0.000 A 
ATOM     12  C   UNL     1      89.138  65.780  86.877  0.00  0.00    +0.000 A 
ATOM     13  C   UNL     1      87.994  66.333  87.442  0.00  0.00    +0.000 A 
ATOM     14  C   UNL     1      87.803  67.719  87.420  0.00  0.00    +0.000 A 
ENDBRANCH   2   9
TORSDOF 2
ENDMDL
