MODEL 1
REMARK VINA RESULT:      -4.4      0.000      0.000
REMARK  Name = *****
REMARK  3 active torsions:
REMARK  status: ('A' for Active; 'I' for Inactive)
REMARK    1  A    between atoms: C_4  and  C_7
REMARK    2  A    between atoms: C_8  and  C_9
REMARK    3  A    between atoms: C_12  and  C_14
REMARK                            x       y       z     vdW  Elec       q    Type
REMARK                         _______ _______ _______ _____ _____    ______ ____
ROOT
ATOM      1  C   UNL     1     102.101 126.175  82.108  0.00  0.00    +0.000 C 
ATOM      2  C   UNL     1     102.955 125.430  81.710  0.00  0.00    +0.000 C 
ENDROOT
BRANCH   1   6
ATOM      3  C   UNL     1      99.091 128.785  83.511  0.00  0.00    +0.000 A 
ATOM      4  C   UNL     1     100.435 129.085  83.736  0.00  0.00    +0.000 A 
ATOM      5  C   UNL     1     101.430 128.222  83.272  0.00  0.00    +0.000 A 
ATOM      6  C   UNL     1     101.081 127.059  82.582  0.00  0.00    +0.000 A 
ATOM      7  C   UNL     1      99.735 126.761  82.356  0.00  0.00    +0.000 A 
ATOM      8  C   UNL     1      98.741 127.624  82.820  0.00  0.00    +0.000 A 
ENDBRANCH   1   6
BRANCH   2   9
ATOM      9  C   UNL     1     103.966 124.545  81.237  0.00  0.00    +0.000 A 
ATOM     10  C   UNL     1     104.622 124.669  80.032  0.00  0.00    +0.000 A 
ATOM     11  C   UNL     1     105.580 123.632  79.830  0.00  0.00    +0.000 A 
ATOM     12  C   UNL     1     105.628 122.749  80.893  0.00  0.00    +0.000 A 
ATOM     13  S   UNL     1     104.509 123.186  82.116  0.00  0.00    +0.000 S 
BRANCH  12  14
ATOM     14  C   UNL     1     106.487 121.540  81.056  0.00  0.00    +0.000 C 
ATOM     15 CL   UNL     1     105.535 120.193  81.722  0.00  0.00    +0.000 Cl
ENDBRANCH  12  14
ENDBRANCH   2   9
TORSDOF 3
ENDMDL
