MODEL 1
REMARK VINA RESULT:      -4.5      0.000      0.000
REMARK  Name = *****
REMARK  4 active torsions:
REMARK  status: ('A' for Active; 'I' for Inactive)
REMARK    1  A    between atoms: C_1  and  C_2
REMARK    2  A    between atoms: C_5  and  S_8
REMARK    3  A    between atoms: S_8  and  C_9
REMARK    4  A    between atoms: C_9  and  C_10
REMARK                            x       y       z     vdW  Elec       q    Type
REMARK                         _______ _______ _______ _____ _____    ______ ____
ROOT
ATOM      1  S   UNL     1     103.779 127.926  82.004  0.00  0.00    +0.000 S 
ENDROOT
BRANCH   1   6
ATOM      2  C   UNL     1     104.849 122.087  80.599  0.00  0.00    +0.000 C 
ATOM      3  C   UNL     1     104.612 123.523  80.960  0.00  0.00    +0.000 A 
ATOM      4  C   UNL     1     104.290 123.878  82.275  0.00  0.00    +0.000 A 
ATOM      5  C   UNL     1     104.037 125.212  82.609  0.00  0.00    +0.000 A 
ATOM      6  C   UNL     1     104.104 126.210  81.634  0.00  0.00    +0.000 A 
ATOM      7  C   UNL     1     104.395 125.852  80.315  0.00  0.00    +0.000 A 
ATOM      8  C   UNL     1     104.646 124.519  79.979  0.00  0.00    +0.000 A 
ENDBRANCH   1   6
BRANCH   1   9
ATOM      9  C   UNL     1     102.739 127.784  83.500  0.00  0.00    +0.000 C 
BRANCH   9  10
ATOM     10  C   UNL     1     101.260 127.822  83.221  0.00  0.00    +0.000 A 
ATOM     11  C   UNL     1     100.598 126.731  82.637  0.00  0.00    +0.000 A 
ATOM     12  C   UNL     1      99.224 126.785  82.388  0.00  0.00    +0.000 A 
ATOM     13  C   UNL     1      98.494 127.925  82.723  0.00  0.00    +0.000 A 
ATOM     14  C   UNL     1      99.139 129.012  83.311  0.00  0.00    +0.000 A 
ATOM     15  C   UNL     1     100.508 128.952  83.555  0.00  0.00    +0.000 A 
ATOM     16  F   UNL     1     101.103 130.005  84.135  0.00  0.00    +0.000 F 
ENDBRANCH   9  10
ENDBRANCH   1   9
TORSDOF 3
ENDMDL
