MODEL 1
REMARK VINA RESULT:      -4.8      0.000      0.000
REMARK  Name = *****
REMARK  7 active torsions:
REMARK  status: ('A' for Active; 'I' for Inactive)
REMARK    1  A    between atoms: C_1  and  C_2
REMARK    2  A    between atoms: C_2  and  O_3
REMARK    3  A    between atoms: O_3  and  C_4
REMARK    4  A    between atoms: C_7  and  C_10
REMARK    5  A    between atoms: C_10  and  S_12
REMARK    6  A    between atoms: S_12  and  C_13
REMARK    7  A    between atoms: C_16  and  C_19
REMARK                            x       y       z     vdW  Elec       q    Type
REMARK                         _______ _______ _______ _____ _____    ______ ____
ROOT
ATOM      1  C   UNL     1      89.021  69.937  86.391  0.00  0.00    +0.000 C 
ATOM      2  O   UNL     1      89.662  70.675  87.132  0.00  0.00    +0.000 OA
ENDROOT
BRANCH   1   6
ATOM      3  C   UNL     1      88.866  65.677  87.079  0.00  0.00    +0.000 A 
ATOM      4  C   UNL     1      89.945  66.214  86.378  0.00  0.00    +0.000 A 
ATOM      5  C   UNL     1      90.021  67.595  86.144  0.00  0.00    +0.000 A 
ATOM      6  C   UNL     1      89.019  68.457  86.610  0.00  0.00    +0.000 A 
ATOM      7  C   UNL     1      87.938  67.907  87.314  0.00  0.00    +0.000 A 
ATOM      8  C   UNL     1      87.866  66.531  87.545  0.00  0.00    +0.000 A 
BRANCH   3   9
ATOM      9  O   UNL     1      88.672  64.356  87.369  0.00  0.00    +0.000 OA
BRANCH   9  11
ATOM     10  C   UNL     1      88.810  63.746  89.669  0.00  0.00    +0.000 C 
ATOM     11  C   UNL     1      87.875  64.049  88.512  0.00  0.00    +0.000 C 
ENDBRANCH   9  11
ENDBRANCH   3   9
ENDBRANCH   1   6
BRANCH   1  12
ATOM     12  S   UNL     1      88.105  70.587  85.033  0.00  0.00    +0.000 S 
BRANCH  12  13
ATOM     13  C   UNL     1      86.702  71.286  85.877  0.00  0.00    +0.000 A 
ATOM     14  C   UNL     1      85.661  71.856  85.138  0.00  0.00    +0.000 A 
ATOM     15  C   UNL     1      84.540  72.383  85.786  0.00  0.00    +0.000 A 
ATOM     16  C   UNL     1      84.437  72.331  87.180  0.00  0.00    +0.000 A 
ATOM     17  C   UNL     1      85.484  71.767  87.919  0.00  0.00    +0.000 A 
ATOM     18  C   UNL     1      86.605  71.239  87.271  0.00  0.00    +0.000 A 
ATOM     19  C   UNL     1      83.251  72.930  87.877  0.00  0.00    +0.000 C 
ENDBRANCH  12  13
ENDBRANCH   1  12
TORSDOF 5
ENDMDL
