MODEL 1
REMARK VINA RESULT:      -5.2      0.000      0.000
REMARK  Name = *****
REMARK  4 active torsions:
REMARK  status: ('A' for Active; 'I' for Inactive)
REMARK    1  A    between atoms: C_1  and  N_2
REMARK    2  A    between atoms: N_2  and  C_3
REMARK    3  A    between atoms: C_7  and  C_10
REMARK    4  A    between atoms: C_11  and  C_12
REMARK                            x       y       z     vdW  Elec       q    Type
REMARK                         _______ _______ _______ _____ _____    ______ ____
ROOT
ATOM      1  C   UNL     1     102.753 126.069  81.522  0.00  0.00    +0.000 C 
ATOM      2  C   UNL     1     101.948 126.094  82.596  0.00  0.00    +0.000 C 
ENDROOT
BRANCH   1   9
ATOM      3  C   UNL     1     107.778 122.276  80.423  0.00  0.00    +0.000 C 
ATOM      4  N   UNL     1     106.412 121.822  80.680  0.00  0.00    +0.000 N 
ATOM      5  C   UNL     1     106.312 120.794  81.717  0.00  0.00    +0.000 C 
ATOM      6  C   UNL     1     105.517 122.893  80.887  0.00  0.00    +0.000 A 
ATOM      7  N   UNL     1     104.837 122.990  82.049  0.00  0.00    +0.000 NA
ATOM      8  C   UNL     1     103.976 124.027  82.208  0.00  0.00    +0.000 A 
ATOM      9  C   UNL     1     103.736 125.012  81.258  0.00  0.00    +0.000 A 
ATOM     10  C   UNL     1     104.417 124.884  80.052  0.00  0.00    +0.000 A 
ATOM     11  C   UNL     1     105.309 123.825  79.868  0.00  0.00    +0.000 A 
ENDBRANCH   1   9
BRANCH   2  12
ATOM     12  C   UNL     1     100.969 127.168  82.853  0.00  0.00    +0.000 A 
ATOM     13  C   UNL     1      99.628 127.029  82.462  0.00  0.00    +0.000 A 
ATOM     14  C   UNL     1      98.680 128.020  82.720  0.00  0.00    +0.000 A 
ATOM     15  C   UNL     1      99.053 129.180  83.388  0.00  0.00    +0.000 A 
ATOM     16  C   UNL     1     100.377 129.341  83.798  0.00  0.00    +0.000 A 
ATOM     17  C   UNL     1     101.326 128.343  83.538  0.00  0.00    +0.000 A 
ATOM     18 CL   UNL     1     102.946 128.634  84.079  0.00  0.00    +0.000 Cl
ATOM     19  F   UNL     1      99.214 125.919  81.830  0.00  0.00    +0.000 F 
ENDBRANCH   2  12
TORSDOF 2
ENDMDL
