MODEL 1
REMARK VINA RESULT:      -4.6      0.000      0.000
REMARK  Name = *****
REMARK  3 active torsions:
REMARK  status: ('A' for Active; 'I' for Inactive)
REMARK    1  A    between atoms: C_3  and  C_14
REMARK    2  A    between atoms: C_4  and  C_6
REMARK    3  A    between atoms: C_7  and  C_8
REMARK                            x       y       z     vdW  Elec       q    Type
REMARK                         _______ _______ _______ _____ _____    ______ ____
ROOT
ATOM      1  C   UNL     1      82.382  58.920  91.784  0.00  0.00    +0.000 C 
ATOM      2  C   UNL     1      83.500  57.883  91.846  0.00  0.00    +0.000 C 
ATOM      3  C   UNL     1      84.698  58.647  91.351  0.00  0.00    +0.000 C 
ATOM      4  C   UNL     1      84.320  59.789  90.753  0.00  0.00    +0.000 C 
ATOM      5  C   UNL     1      82.831  59.953  90.756  0.00  0.00    +0.000 C 
ENDROOT
BRANCH   3   6
ATOM      6  C   UNL     1      86.046  58.160  91.513  0.00  0.00    +0.000 C 
ATOM      7  C   UNL     1      86.713  57.569  90.567  0.00  0.00    +0.000 C 
ATOM      8  O   UNL     1      87.315  57.034  89.710  0.00  0.00    +0.000 OA
ENDBRANCH   3   6
BRANCH   4   9
ATOM      9  C   UNL     1      85.193  60.742  90.169  0.00  0.00    +0.000 C 
ATOM     10  C   UNL     1      85.931  61.552  89.677  0.00  0.00    +0.000 C 
BRANCH  10  11
ATOM     11  C   UNL     1      86.812  62.517  89.093  0.00  0.00    +0.000 A 
ATOM     12  C   UNL     1      86.931  62.606  87.704  0.00  0.00    +0.000 A 
ATOM     13  C   UNL     1      87.791  63.546  87.135  0.00  0.00    +0.000 A 
ATOM     14  C   UNL     1      88.533  64.398  87.954  0.00  0.00    +0.000 A 
ATOM     15  C   UNL     1      88.415  64.311  89.340  0.00  0.00    +0.000 A 
ATOM     16  C   UNL     1      87.555  63.372  89.911  0.00  0.00    +0.000 A 
ENDBRANCH  10  11
ENDBRANCH   4   9
TORSDOF 3
ENDMDL
