MODEL 1
REMARK VINA RESULT:      -4.6      0.000      0.000
REMARK  Name = *****
REMARK  4 active torsions:
REMARK  status: ('A' for Active; 'I' for Inactive)
REMARK    1  A    between atoms: C_1  and  C_2
REMARK    2  A    between atoms: C_2  and  C_3
REMARK    3  A    between atoms: C_2  and  O_10
REMARK    4  A    between atoms: O_10  and  C_11
REMARK                            x       y       z     vdW  Elec       q    Type
REMARK                         _______ _______ _______ _____ _____    ______ ____
ROOT
ATOM      1  C   UNL     1     103.595 127.448  80.651  0.00  0.00    +0.000 C 
ATOM      2  C   UNL     1     102.789 126.392  81.410  0.00  0.00    +0.000 C 
ENDROOT
BRANCH   2   3
ATOM      3  C   UNL     1     103.595 125.104  81.500  0.00  0.00    +0.000 A 
ATOM      4  C   UNL     1     104.196 124.530  80.368  0.00  0.00    +0.000 A 
ATOM      5  C   UNL     1     104.919 123.340  80.472  0.00  0.00    +0.000 A 
ATOM      6  C   UNL     1     105.041 122.709  81.707  0.00  0.00    +0.000 A 
ATOM      7  C   UNL     1     104.445 123.257  82.840  0.00  0.00    +0.000 A 
ATOM      8  C   UNL     1     103.724 124.449  82.737  0.00  0.00    +0.000 A 
ATOM      9 CL   UNL     1     105.930 121.241  81.835  0.00  0.00    +0.000 Cl
ENDBRANCH   2   3
BRANCH   2  10
ATOM     10  O   UNL     1     102.502 126.948  82.701  0.00  0.00    +0.000 OA
BRANCH  10  11
ATOM     11  C   UNL     1     101.258 127.475  82.910  0.00  0.00    +0.000 A 
ATOM     12  C   UNL     1     100.983 128.698  83.524  0.00  0.00    +0.000 A 
ATOM     13  C   UNL     1      99.661 129.133  83.659  0.00  0.00    +0.000 A 
ATOM     14  C   UNL     1      98.611 128.353  83.174  0.00  0.00    +0.000 A 
ATOM     15  C   UNL     1      98.882 127.140  82.546  0.00  0.00    +0.000 A 
ATOM     16  C   UNL     1     100.202 126.708  82.409  0.00  0.00    +0.000 A 
ENDBRANCH  10  11
ENDBRANCH   2  10
TORSDOF 3
ENDMDL
