MODEL 1
REMARK VINA RESULT:      -4.9      0.000      0.000
REMARK  Name = *****
REMARK  4 active torsions:
REMARK  status: ('A' for Active; 'I' for Inactive)
REMARK    1  A    between atoms: C_1  and  C_2
REMARK    2  A    between atoms: C_2  and  C_12
REMARK    3  A    between atoms: N_3  and  O_4
REMARK    4  A    between atoms: O_4  and  C_5
REMARK                            x       y       z     vdW  Elec       q    Type
REMARK                         _______ _______ _______ _____ _____    ______ ____
ROOT
ATOM      1  C   UNL     1      89.785  70.802  85.738  0.00  0.00    +0.000 C 
ATOM      2  C   UNL     1      88.724  70.069  86.534  0.00  0.00    +0.000 C 
ATOM      3  N   UNL     1      88.879  68.854  86.975  0.00  0.00    +0.000 NA
ENDROOT
BRANCH   2   4
ATOM      4  C   UNL     1      87.435  70.770  86.815  0.00  0.00    +0.000 A 
ATOM      5  C   UNL     1      86.986  70.980  88.124  0.00  0.00    +0.000 A 
ATOM      6  C   UNL     1      85.778  71.643  88.353  0.00  0.00    +0.000 A 
ATOM      7  C   UNL     1      85.019  72.106  87.278  0.00  0.00    +0.000 A 
ATOM      8  C   UNL     1      85.468  71.912  85.973  0.00  0.00    +0.000 A 
ATOM      9  C   UNL     1      86.674  71.250  85.741  0.00  0.00    +0.000 A 
ENDBRANCH   2   4
BRANCH   3  10
ATOM     10  O   UNL     1      90.124  68.327  86.610  0.00  0.00    +0.000 OA
BRANCH  10  11
ATOM     11  C   UNL     1      90.037  66.976  86.356  0.00  0.00    +0.000 A 
ATOM     12  C   UNL     1      90.964  66.249  85.605  0.00  0.00    +0.000 A 
ATOM     13  C   UNL     1      90.777  64.879  85.421  0.00  0.00    +0.000 A 
ATOM     14  C   UNL     1      89.681  64.228  85.986  0.00  0.00    +0.000 A 
ATOM     15  C   UNL     1      88.760  64.952  86.744  0.00  0.00    +0.000 A 
ATOM     16  C   UNL     1      88.942  66.324  86.930  0.00  0.00    +0.000 A 
ATOM     17 CL   UNL     1      91.914  63.980  84.492  0.00  0.00    +0.000 Cl
ENDBRANCH  10  11
ENDBRANCH   3  10
TORSDOF 3
ENDMDL
