MODEL 1
REMARK VINA RESULT:      -4.4      0.000      0.000
REMARK  Name = *****
REMARK  2 active torsions:
REMARK  status: ('A' for Active; 'I' for Inactive)
REMARK    1  A    between atoms: C_4  and  C_7
REMARK    2  A    between atoms: N_8  and  C_9
REMARK                            x       y       z     vdW  Elec       q    Type
REMARK                         _______ _______ _______ _____ _____    ______ ____
ROOT
ATOM      1  C   UNL     1     102.708 126.230  81.489  0.00  0.00    +0.000 C 
ATOM      2  N   UNL     1     101.793 125.902  82.346  0.00  0.00    +0.000 NA
ENDROOT
BRANCH   1   6
ATOM      3  C   UNL     1     105.661 123.479  80.117  0.00  0.00    +0.000 A 
ATOM      4  C   UNL     1     104.915 123.177  81.257  0.00  0.00    +0.000 A 
ATOM      5  C   UNL     1     103.946 124.071  81.714  0.00  0.00    +0.000 A 
ATOM      6  C   UNL     1     103.727 125.267  81.026  0.00  0.00    +0.000 A 
ATOM      7  C   UNL     1     104.473 125.572  79.884  0.00  0.00    +0.000 A 
ATOM      8  C   UNL     1     105.441 124.674  79.431  0.00  0.00    +0.000 A 
ENDBRANCH   1   6
BRANCH   2   9
ATOM      9  C   UNL     1     100.892 126.919  82.693  0.00  0.00    +0.000 A 
ATOM     10  C   UNL     1     101.348 128.084  83.315  0.00  0.00    +0.000 A 
ATOM     11  C   UNL     1     100.453 129.102  83.652  0.00  0.00    +0.000 A 
ATOM     12  C   UNL     1      99.097 128.963  83.358  0.00  0.00    +0.000 A 
ATOM     13  C   UNL     1      98.637 127.809  82.723  0.00  0.00    +0.000 A 
ATOM     14  C   UNL     1      99.535 126.793  82.388  0.00  0.00    +0.000 A 
ENDBRANCH   2   9
TORSDOF 2
ENDMDL
