REMARK  Name = *****
REMARK  2 active torsions:
REMARK  status: ('A' for Active; 'I' for Inactive)
REMARK    1  A    between atoms: C_3  and  C_7
REMARK    2  A    between atoms: C_8  and  C_10
REMARK                            x       y       z     vdW  Elec       q    Type
REMARK                         _______ _______ _______ _____ _____    ______ ____
ROOT
ATOM      1  C   UNL     1      -1.359   0.440  -1.810  0.00  0.00    +0.000 C 
ATOM      2  C   UNL     1      -0.129   0.370  -2.692  0.00  0.00    +0.000 C 
ATOM      3  S   UNL     1      -1.003   1.875  -2.696  0.00  0.00    +0.000 S 
ENDROOT
BRANCH   1   6
ATOM      4  C   UNL     1      -1.908  -1.938   0.140  0.00  0.00    +0.000 C 
ATOM      5  C   UNL     1      -0.818  -0.870   0.276  0.00  0.00    +0.000 C 
ATOM      6  C   UNL     1      -1.232   0.494  -0.300  0.00  0.00    +0.000 C 
ATOM      7  C   UNL     1      -2.546   0.972   0.355  0.00  0.00    +0.000 C 
ATOM      8  C   UNL     1      -3.574  -0.113   0.518  0.00  0.00    +0.000 C 
ATOM      9  C   UNL     1      -3.288  -1.418   0.407  0.00  0.00    +0.000 C 
ENDBRANCH   1   6
BRANCH   2  10
ATOM     10  C   UNL     1      -0.163  -0.444  -3.969  0.00  0.00    +0.000 A 
ATOM     11  C   UNL     1       0.200   0.101  -5.215  0.00  0.00    +0.000 A 
ATOM     12  C   UNL     1       0.169  -0.659  -6.387  0.00  0.00    +0.000 A 
ATOM     13  C   UNL     1      -0.212  -1.996  -6.340  0.00  0.00    +0.000 A 
ATOM     14  C   UNL     1      -0.554  -2.571  -5.120  0.00  0.00    +0.000 A 
ATOM     15  C   UNL     1      -0.524  -1.804  -3.952  0.00  0.00    +0.000 A 
ENDBRANCH   2  10
TORSDOF 2
