MODEL 1
REMARK VINA RESULT:      -4.8      0.000      0.000
REMARK  Name = *****
REMARK  2 active torsions:
REMARK  status: ('A' for Active; 'I' for Inactive)
REMARK    1  A    between atoms: C_4  and  C_7
REMARK    2  A    between atoms: C_8  and  C_9
REMARK                            x       y       z     vdW  Elec       q    Type
REMARK                         _______ _______ _______ _____ _____    ______ ____
ROOT
ATOM      1  C   UNL     1     102.935 126.225  81.278  0.00  0.00    +0.000 C 
ATOM      2  C   UNL     1     101.940 125.967  82.142  0.00  0.00    +0.000 C 
ENDROOT
BRANCH   1   6
ATOM      3  C   UNL     1     105.768 123.267  80.041  0.00  0.00    +0.000 A 
ATOM      4  C   UNL     1     105.683 124.470  79.343  0.00  0.00    +0.000 A 
ATOM      5  C   UNL     1     104.758 125.443  79.732  0.00  0.00    +0.000 A 
ATOM      6  C   UNL     1     103.900 125.217  80.818  0.00  0.00    +0.000 A 
ATOM      7  C   UNL     1     104.008 124.010  81.521  0.00  0.00    +0.000 A 
ATOM      8  C   UNL     1     104.933 123.038  81.131  0.00  0.00    +0.000 A 
ENDBRANCH   1   6
BRANCH   2   9
ATOM      9  C   UNL     1     100.989 126.981  82.619  0.00  0.00    +0.000 A 
ATOM     10  C   UNL     1     101.405 128.151  83.268  0.00  0.00    +0.000 A 
ATOM     11  C   UNL     1     100.471 129.105  83.681  0.00  0.00    +0.000 A 
ATOM     12  C   UNL     1      99.114 128.905  83.438  0.00  0.00    +0.000 A 
ATOM     13  C   UNL     1      98.690 127.755  82.778  0.00  0.00    +0.000 A 
ATOM     14  C   UNL     1      99.623 126.801  82.366  0.00  0.00    +0.000 A 
ENDBRANCH   2   9
TORSDOF 2
ENDMDL
