MODEL 1
REMARK VINA RESULT:      -4.8      0.000      0.000
REMARK  Name = *****
REMARK  5 active torsions:
REMARK  status: ('A' for Active; 'I' for Inactive)
REMARK    1  A    between atoms: C_1  and  C_2
REMARK    2  A    between atoms: C_5  and  C_8
REMARK    3  A    between atoms: C_8  and  C_9
REMARK    4  A    between atoms: C_8  and  N_10
REMARK    5  A    between atoms: C_11  and  C_12
REMARK                            x       y       z     vdW  Elec       q    Type
REMARK                         _______ _______ _______ _____ _____    ______ ____
ROOT
ATOM      1  C   UNL     1      88.296  70.485  87.701  0.00  0.00    +0.000 C 
ATOM      2  C   UNL     1      88.524  70.732  89.193  0.00  0.00    +0.000 C 
ENDROOT
BRANCH   1   7
ATOM      3  C   UNL     1      83.280  72.938  85.978  0.00  0.00    +0.000 C 
ATOM      4  C   UNL     1      84.576  72.330  86.423  0.00  0.00    +0.000 A 
ATOM      5  C   UNL     1      85.523  71.908  85.484  0.00  0.00    +0.000 A 
ATOM      6  C   UNL     1      86.718  71.311  85.899  0.00  0.00    +0.000 A 
ATOM      7  C   UNL     1      86.983  71.109  87.262  0.00  0.00    +0.000 A 
ATOM      8  C   UNL     1      86.024  71.525  88.197  0.00  0.00    +0.000 A 
ATOM      9  C   UNL     1      84.831  72.122  87.783  0.00  0.00    +0.000 A 
ENDBRANCH   1   7
BRANCH   1  10
ATOM     10  N   UNL     1      88.312  69.029  87.467  0.00  0.00    +0.000 NA
ATOM     11  C   UNL     1      89.340  68.587  86.829  0.00  0.00    +0.000 C 
BRANCH  11  12
ATOM     12  C   UNL     1      89.500  67.154  86.508  0.00  0.00    +0.000 A 
ATOM     13  C   UNL     1      90.578  66.709  85.738  0.00  0.00    +0.000 A 
ATOM     14  C   UNL     1      90.708  65.350  85.448  0.00  0.00    +0.000 A 
ATOM     15  C   UNL     1      89.763  64.440  85.926  0.00  0.00    +0.000 A 
ATOM     16  C   UNL     1      88.688  64.887  86.696  0.00  0.00    +0.000 A 
ATOM     17  C   UNL     1      88.553  66.245  86.989  0.00  0.00    +0.000 A 
ENDBRANCH  11  12
ENDBRANCH   1  10
TORSDOF 3
ENDMDL
