MODEL 1
REMARK VINA RESULT:      -4.5      0.000      0.000
REMARK  Name = *****
REMARK  2 active torsions:
REMARK  status: ('A' for Active; 'I' for Inactive)
REMARK    1  A    between atoms: C_3  and  C_7
REMARK    2  A    between atoms: C_8  and  C_9
REMARK                            x       y       z     vdW  Elec       q    Type
REMARK                         _______ _______ _______ _____ _____    ______ ____
ROOT
ATOM      1  C   UNL     1      98.007 118.474  80.591  0.00  0.00    +0.000 C 
ATOM      2  C   UNL     1      97.551 117.558  79.962  0.00  0.00    +0.000 C 
ENDROOT
BRANCH   1   5
ATOM      3  C   UNL     1      97.740 118.831  83.652  0.00  0.00    +0.000 C 
ATOM      4  C   UNL     1      98.958 119.158  82.780  0.00  0.00    +0.000 C 
ATOM      5  C   UNL     1      98.570 119.602  81.364  0.00  0.00    +0.000 C 
ATOM      6  C   UNL     1      97.595 120.795  81.408  0.00  0.00    +0.000 C 
ATOM      7  C   UNL     1      96.555 120.701  82.492  0.00  0.00    +0.000 C 
ATOM      8  C   UNL     1      96.616 119.810  83.491  0.00  0.00    +0.000 C 
ENDBRANCH   1   5
BRANCH   2   9
ATOM      9  C   UNL     1      97.008 116.466  79.215  0.00  0.00    +0.000 A 
ATOM     10  C   UNL     1      97.268 116.356  77.847  0.00  0.00    +0.000 A 
ATOM     11  C   UNL     1      96.736 115.289  77.118  0.00  0.00    +0.000 A 
ATOM     12  C   UNL     1      95.944 114.335  77.756  0.00  0.00    +0.000 A 
ATOM     13  C   UNL     1      95.684 114.442  79.122  0.00  0.00    +0.000 A 
ATOM     14  C   UNL     1      96.216 115.508  79.852  0.00  0.00    +0.000 A 
ENDBRANCH   2   9
TORSDOF 2
ENDMDL
