REMARK  Name = *****
REMARK  3 active torsions:
REMARK  status: ('A' for Active; 'I' for Inactive)
REMARK    1  A    between atoms: C_1  and  C_2
REMARK    2  A    between atoms: C_4  and  C_8
REMARK    3  A    between atoms: C_9  and  C_10
REMARK                            x       y       z     vdW  Elec       q    Type
REMARK                         _______ _______ _______ _____ _____    ______ ____
ROOT
ATOM      1  C   UNL     1       5.250   2.671  -0.651  0.00  0.00    +0.000 C 
ATOM      2  C   UNL     1       5.822   3.712  -0.834  0.00  0.00    +0.000 C 
ENDROOT
BRANCH   1   6
ATOM      3  C   UNL     1       1.036   0.130   0.040  0.00  0.00    +0.000 C 
ATOM      4  C   UNL     1       2.531   0.174  -0.075  0.00  0.00    +0.000 A 
ATOM      5  C   UNL     1       3.192   1.390  -0.295  0.00  0.00    +0.000 A 
ATOM      6  C   UNL     1       4.582   1.425  -0.435  0.00  0.00    +0.000 A 
ATOM      7  C   UNL     1       5.319   0.242  -0.368  0.00  0.00    +0.000 A 
ATOM      8  C   UNL     1       4.668  -0.974  -0.164  0.00  0.00    +0.000 A 
ATOM      9  C   UNL     1       3.279  -1.009  -0.023  0.00  0.00    +0.000 A 
ENDBRANCH   1   6
BRANCH   2  10
ATOM     10  C   UNL     1       6.509   4.951  -1.053  0.00  0.00    +0.000 A 
ATOM     11  C   UNL     1       5.901   6.137  -0.620  0.00  0.00    +0.000 A 
ATOM     12  C   UNL     1       6.535   7.367  -0.812  0.00  0.00    +0.000 A 
ATOM     13  C   UNL     1       7.779   7.420  -1.438  0.00  0.00    +0.000 A 
ATOM     14  C   UNL     1       8.391   6.244  -1.872  0.00  0.00    +0.000 A 
ATOM     15  C   UNL     1       7.760   5.010  -1.681  0.00  0.00    +0.000 A 
ATOM     16 CL   UNL     1       8.575   3.591  -2.241  0.00  0.00    +0.000 Cl
ENDBRANCH   2  10
TORSDOF 2
