MODEL 1
REMARK VINA RESULT:      -4.5      0.000      0.000
REMARK  Name = *****
REMARK  3 active torsions:
REMARK  status: ('A' for Active; 'I' for Inactive)
REMARK    1  A    between atoms: C_4  and  S_7
REMARK    2  A    between atoms: S_7  and  C_8
REMARK    3  A    between atoms: C_8  and  C_10
REMARK                            x       y       z     vdW  Elec       q    Type
REMARK                         _______ _______ _______ _____ _____    ______ ____
ROOT
ATOM      1  C   UNL     1     103.034 125.448  83.944  0.00  0.00    +0.000 C 
ATOM      2  O   UNL     1     102.579 124.937  84.961  0.00  0.00    +0.000 OA
ENDROOT
BRANCH   1   3
ATOM      3  C   UNL     1     103.665 124.590  82.897  0.00  0.00    +0.000 A 
ATOM      4  C   UNL     1     104.234 123.335  83.166  0.00  0.00    +0.000 A 
ATOM      5  C   UNL     1     104.805 122.586  82.133  0.00  0.00    +0.000 A 
ATOM      6  C   UNL     1     104.812 123.089  80.837  0.00  0.00    +0.000 A 
ATOM      7  C   UNL     1     104.263 124.333  80.552  0.00  0.00    +0.000 A 
ATOM      8  C   UNL     1     103.695 125.087  81.581  0.00  0.00    +0.000 A 
ATOM      9  F   UNL     1     105.358 122.367  79.851  0.00  0.00    +0.000 F 
ENDBRANCH   1   3
BRANCH   1  10
ATOM     10  S   UNL     1     103.013 127.186  83.665  0.00  0.00    +0.000 S 
BRANCH  10  14
ATOM     11  C   UNL     1      98.608 128.131  82.798  0.00  0.00    +0.000 A 
ATOM     12  C   UNL     1      99.129 126.897  82.416  0.00  0.00    +0.000 A 
ATOM     13  C   UNL     1     100.472 126.596  82.662  0.00  0.00    +0.000 A 
ATOM     14  C   UNL     1     101.309 127.534  83.276  0.00  0.00    +0.000 A 
ATOM     15  C   UNL     1     100.771 128.767  83.667  0.00  0.00    +0.000 A 
ATOM     16  C   UNL     1      99.428 129.065  83.427  0.00  0.00    +0.000 A 
ENDBRANCH  10  14
ENDBRANCH   1  10
TORSDOF 3
ENDMDL
