REMARK  Name = *****
REMARK  4 active torsions:
REMARK  status: ('A' for Active; 'I' for Inactive)
REMARK    1  A    between atoms: C_3  and  C_19
REMARK    2  A    between atoms: C_4  and  C_8
REMARK    3  A    between atoms: C_8  and  O_10
REMARK    4  A    between atoms: O_10  and  C_11
REMARK                            x       y       z     vdW  Elec       q    Type
REMARK                         _______ _______ _______ _____ _____    ______ ____
ROOT
ATOM      1  C   UNL     1      -1.029  -1.277  -0.601  0.00  0.00    +0.000 A 
ATOM      2  C   UNL     1      -1.839  -0.153  -0.418  0.00  0.00    +0.000 A 
ATOM      3  C   UNL     1      -1.279   1.095  -0.083  0.00  0.00    +0.000 A 
ATOM      4  C   UNL     1       0.116   1.185   0.053  0.00  0.00    +0.000 A 
ATOM      5  C   UNL     1       0.918   0.060  -0.139  0.00  0.00    +0.000 A 
ATOM      6  C   UNL     1       0.353  -1.169  -0.460  0.00  0.00    +0.000 A 
ATOM      7  F   UNL     1       2.253   0.145  -0.038  0.00  0.00    +0.000 F 
ENDROOT
BRANCH   3   8
ATOM      8  C   UNL     1      -2.169   2.295   0.125  0.00  0.00    +0.000 C 
ATOM      9  F   UNL     1      -3.471   1.944   0.335  0.00  0.00    +0.000 F 
ATOM     10  F   UNL     1      -1.821   3.032   1.215  0.00  0.00    +0.000 F 
ATOM     11  F   UNL     1      -2.187   3.136  -0.940  0.00  0.00    +0.000 F 
ENDBRANCH   3   8
BRANCH   4  12
ATOM     12  C   UNL     1       0.764   2.470   0.353  0.00  0.00    +0.000 C 
ATOM     13  O   UNL     1       0.545   3.483  -0.289  0.00  0.00    +0.000 OA
BRANCH  12  14
ATOM     14  O   UNL     1       1.530   2.314   1.488  0.00  0.00    +0.000 OA
BRANCH  14  15
ATOM     15  C   UNL     1       2.134   3.504   1.895  0.00  0.00    +0.000 A 
ATOM     16  C   UNL     1       1.397   4.456   2.598  0.00  0.00    +0.000 A 
ATOM     17  C   UNL     1       2.041   5.610   3.030  0.00  0.00    +0.000 A 
ATOM     18  C   UNL     1       3.394   5.815   2.785  0.00  0.00    +0.000 A 
ATOM     19  C   UNL     1       4.109   4.841   2.098  0.00  0.00    +0.000 A 
ATOM     20  C   UNL     1       3.494   3.676   1.652  0.00  0.00    +0.000 A 
ATOM     21  F   UNL     1       5.415   5.024   1.867  0.00  0.00    +0.000 F 
ATOM     22  F   UNL     1       1.348   6.538   3.704  0.00  0.00    +0.000 F 
ENDBRANCH  14  15
ENDBRANCH  12  14
ENDBRANCH   4  12
TORSDOF 4
