MODEL 1
REMARK VINA RESULT:      -4.5      0.000      0.000
REMARK  Name = *****
REMARK  2 active torsions:
REMARK  status: ('A' for Active; 'I' for Inactive)
REMARK    1  A    between atoms: C_4  and  C_7
REMARK    2  A    between atoms: N_9  and  C_10
REMARK                            x       y       z     vdW  Elec       q    Type
REMARK                         _______ _______ _______ _____ _____    ______ ____
ROOT
ATOM      1  C   UNL     1     102.880 125.245  82.300  0.00  0.00    +0.000 C 
ATOM      2  C   UNL     1     103.281 125.681  83.675  0.00  0.00    +0.000 C 
ATOM      3  N   UNL     1     102.813 126.667  82.712  0.00  0.00    +0.000 N 
ATOM      4  F   UNL     1     102.487 125.300  84.738  0.00  0.00    +0.000 F 
ENDROOT
BRANCH   1   8
ATOM      5  C   UNL     1     105.887 124.131  79.386  0.00  0.00    +0.000 A 
ATOM      6  C   UNL     1     105.355 123.173  80.243  0.00  0.00    +0.000 A 
ATOM      7  C   UNL     1     104.387 123.537  81.184  0.00  0.00    +0.000 A 
ATOM      8  C   UNL     1     103.935 124.863  81.294  0.00  0.00    +0.000 A 
ATOM      9  C   UNL     1     104.484 125.807  80.411  0.00  0.00    +0.000 A 
ATOM     10  C   UNL     1     105.451 125.450  79.468  0.00  0.00    +0.000 A 
ENDBRANCH   1   8
BRANCH   3  11
ATOM     11  C   UNL     1     101.548 127.286  82.866  0.00  0.00    +0.000 A 
ATOM     12  C   UNL     1     101.310 128.523  83.482  0.00  0.00    +0.000 A 
ATOM     13  C   UNL     1     100.013 129.037  83.589  0.00  0.00    +0.000 A 
ATOM     14  C   UNL     1      98.931 128.322  83.081  0.00  0.00    +0.000 A 
ATOM     15  C   UNL     1      99.145 127.094  82.464  0.00  0.00    +0.000 A 
ATOM     16  C   UNL     1     100.441 126.584  82.360  0.00  0.00    +0.000 A 
ENDBRANCH   3  11
TORSDOF 2
ENDMDL
