MODEL 1
REMARK VINA RESULT:      -4.9      0.000      0.000
REMARK  Name = *****
REMARK  5 active torsions:
REMARK  status: ('A' for Active; 'I' for Inactive)
REMARK    1  A    between atoms: C_1  and  C_2
REMARK    2  A    between atoms: C_7  and  C_8
REMARK    3  A    between atoms: C_9  and  C_10
REMARK    4  A    between atoms: C_15  and  O_16
REMARK    5  A    between atoms: O_16  and  C_17
REMARK                            x       y       z     vdW  Elec       q    Type
REMARK                         _______ _______ _______ _____ _____    ______ ____
ROOT
ATOM      1  C   UNL     1     102.064 126.180  82.326  0.00  0.00    +0.000 C 
ATOM      2  C   UNL     1     102.918 125.389  82.024  0.00  0.00    +0.000 C 
ENDROOT
BRANCH   1   9
ATOM      3  C   UNL     1     102.673 128.744  83.683  0.00  0.00    +0.000 C 
ATOM      4  C   UNL     1     101.279 128.322  83.311  0.00  0.00    +0.000 A 
ATOM      5  C   UNL     1     100.200 129.154  83.653  0.00  0.00    +0.000 A 
ATOM      6  C   UNL     1      98.890 128.793  83.337  0.00  0.00    +0.000 A 
ATOM      7  C   UNL     1      98.640 127.593  82.677  0.00  0.00    +0.000 A 
ATOM      8  C   UNL     1      99.699 126.750  82.343  0.00  0.00    +0.000 A 
ATOM      9  C   UNL     1     101.017 127.102  82.663  0.00  0.00    +0.000 A 
ENDBRANCH   1   9
BRANCH   2  10
ATOM     10  C   UNL     1     103.912 124.446  81.595  0.00  0.00    +0.000 A 
ATOM     11  C   UNL     1     104.437 124.659  80.305  0.00  0.00    +0.000 A 
ATOM     12  C   UNL     1     105.388 123.797  79.758  0.00  0.00    +0.000 A 
ATOM     13  C   UNL     1     105.829 122.707  80.493  0.00  0.00    +0.000 A 
ATOM     14  C   UNL     1     105.318 122.486  81.771  0.00  0.00    +0.000 A 
ATOM     15  C   UNL     1     104.360 123.344  82.342  0.00  0.00    +0.000 A 
BRANCH  15  16
ATOM     16  O   UNL     1     104.001 122.921  83.592  0.00  0.00    +0.000 OA
ATOM     17  C   UNL     1     104.405 121.642  84.042  0.00  0.00    +0.000 C 
ENDBRANCH  15  16
ENDBRANCH   2  10
TORSDOF 3
ENDMDL
