MODEL 1
REMARK VINA RESULT:      -5.0      0.000      0.000
REMARK  Name = *****
REMARK  4 active torsions:
REMARK  status: ('A' for Active; 'I' for Inactive)
REMARK    1  A    between atoms: C_1  and  C_2
REMARK    2  A    between atoms: C_2  and  C_3
REMARK    3  A    between atoms: C_2  and  C_12
REMARK    4  A    between atoms: C_4  and  C_5
REMARK                            x       y       z     vdW  Elec       q    Type
REMARK                         _______ _______ _______ _____ _____    ______ ____
ROOT
ATOM      1  C   UNL     1     101.035 126.806  82.449  0.00  0.00    +0.000 C 
ATOM      2  C   UNL     1     101.896 125.912  82.957  0.00  0.00    +0.000 C 
ATOM      3  F   UNL     1     101.733 125.518  84.242  0.00  0.00    +0.000 F 
ENDROOT
BRANCH   2   4
ATOM      4  C   UNL     1     102.996 125.274  82.211  0.00  0.00    +0.000 A 
ATOM      5  C   UNL     1     103.835 124.301  82.774  0.00  0.00    +0.000 A 
ATOM      6  C   UNL     1     104.856 123.713  82.021  0.00  0.00    +0.000 A 
ATOM      7  C   UNL     1     105.046 124.085  80.692  0.00  0.00    +0.000 A 
ATOM      8  C   UNL     1     104.212 125.038  80.113  0.00  0.00    +0.000 A 
ATOM      9  C   UNL     1     103.192 125.624  80.867  0.00  0.00    +0.000 A 
ENDBRANCH   2   4
BRANCH   1  11
ATOM     10  C   UNL     1      98.604 127.373  82.445  0.00  0.00    +0.000 C 
ATOM     11  C   UNL     1      99.913 127.436  83.241  0.00  0.00    +0.000 C 
BRANCH  11  12
ATOM     12  C   UNL     1     100.285 128.848  83.673  0.00  0.00    +0.000 A 
ATOM     13  C   UNL     1      99.336 129.876  83.544  0.00  0.00    +0.000 A 
ATOM     14  C   UNL     1      99.633 131.179  83.949  0.00  0.00    +0.000 A 
ATOM     15  C   UNL     1     100.879 131.472  84.497  0.00  0.00    +0.000 A 
ATOM     16  C   UNL     1     101.825 130.462  84.647  0.00  0.00    +0.000 A 
ATOM     17  C   UNL     1     101.531 129.158  84.242  0.00  0.00    +0.000 A 
ENDBRANCH  11  12
ENDBRANCH   1  11
TORSDOF 3
ENDMDL
