MODEL 1
REMARK VINA RESULT:      -4.8      0.000      0.000
REMARK  Name = *****
REMARK  3 active torsions:
REMARK  status: ('A' for Active; 'I' for Inactive)
REMARK    1  A    between atoms: C_3  and  C_7
REMARK    2  A    between atoms: C_8  and  C_9
REMARK    3  A    between atoms: C_12  and  C_15
REMARK                            x       y       z     vdW  Elec       q    Type
REMARK                         _______ _______ _______ _____ _____    ______ ____
ROOT
ATOM      1  C   UNL     1     103.727 124.966  81.235  0.00  0.00    +0.000 A 
ATOM      2  C   UNL     1     104.446 124.893  80.036  0.00  0.00    +0.000 A 
ATOM      3  C   UNL     1     105.504 123.989  79.894  0.00  0.00    +0.000 A 
ATOM      4  C   UNL     1     105.866 123.142  80.952  0.00  0.00    +0.000 A 
ATOM      5  C   UNL     1     105.160 123.234  82.160  0.00  0.00    +0.000 A 
ATOM      6  C   UNL     1     104.104 124.140  82.300  0.00  0.00    +0.000 A 
ENDROOT
BRANCH   4   7
ATOM      7  C   UNL     1     107.019 122.178  80.815  0.00  0.00    +0.000 C 
ATOM      8  F   UNL     1     107.716 122.329  79.655  0.00  0.00    +0.000 F 
ATOM      9  F   UNL     1     107.930 122.314  81.818  0.00  0.00    +0.000 F 
ATOM     10  F   UNL     1     106.624 120.875  80.843  0.00  0.00    +0.000 F 
ENDBRANCH   4   7
BRANCH   1  12
ATOM     11  C   UNL     1     101.807 125.903  82.492  0.00  0.00    +0.000 C 
ATOM     12  C   UNL     1     102.631 125.925  81.432  0.00  0.00    +0.000 C 
BRANCH  11  15
ATOM     13  C   UNL     1      99.840 128.991  83.454  0.00  0.00    +0.000 A 
ATOM     14  C   UNL     1     100.911 128.109  83.319  0.00  0.00    +0.000 A 
ATOM     15  C   UNL     1     100.720 126.868  82.705  0.00  0.00    +0.000 A 
ATOM     16  C   UNL     1      99.438 126.592  82.232  0.00  0.00    +0.000 A 
ATOM     17  N   UNL     1      98.377 127.428  82.349  0.00  0.00    +0.000 NA
ATOM     18  C   UNL     1      98.604 128.608  82.961  0.00  0.00    +0.000 A 
ENDBRANCH  11  15
ENDBRANCH   1  12
TORSDOF 3
ENDMDL
