REMARK  Name = *****
REMARK  3 active torsions:
REMARK  status: ('A' for Active; 'I' for Inactive)
REMARK    1  A    between atoms: C_7  and  C_8
REMARK    2  A    between atoms: C_8  and  C_9
REMARK    3  A    between atoms: C_9  and  C_10
REMARK                            x       y       z     vdW  Elec       q    Type
REMARK                         _______ _______ _______ _____ _____    ______ ____
ROOT
ATOM      1  C   UNL     1      -1.005   2.540  -0.059  0.00  0.00    +0.000 C 
ENDROOT
BRANCH   1   8
ATOM      2  C   UNL     1      -2.243  -0.094   0.583  0.00  0.00    +0.000 C 
ATOM      3  C   UNL     1      -1.045  -0.050  -0.022  0.00  0.00    +0.000 C 
ATOM      4  C   UNL     1      -0.326  -1.331  -0.385  0.00  0.00    +0.000 C 
ATOM      5  C   UNL     1       1.052  -1.375   0.271  0.00  0.00    +0.000 C 
ATOM      6  C   UNL     1       1.871  -0.133  -0.071  0.00  0.00    +0.000 C 
ATOM      7  C   UNL     1       1.121   1.158   0.267  0.00  0.00    +0.000 C 
ATOM      8  C   UNL     1      -0.274   1.218  -0.391  0.00  0.00    +0.000 C 
ENDBRANCH   1   8
BRANCH   1   9
ATOM      9  C   UNL     1      -0.286   3.789  -0.583  0.00  0.00    +0.000 C 
BRANCH   9  10
ATOM     10  C   UNL     1      -1.112   5.034  -0.370  0.00  0.00    +0.000 A 
ATOM     11  C   UNL     1      -1.037   5.737   0.840  0.00  0.00    +0.000 A 
ATOM     12  C   UNL     1      -1.813   6.878   1.045  0.00  0.00    +0.000 A 
ATOM     13  C   UNL     1      -2.675   7.325   0.044  0.00  0.00    +0.000 A 
ATOM     14  C   UNL     1      -2.763   6.629  -1.160  0.00  0.00    +0.000 A 
ATOM     15  C   UNL     1      -1.987   5.487  -1.366  0.00  0.00    +0.000 A 
ENDBRANCH   9  10
ENDBRANCH   1   9
TORSDOF 3
