MODEL 1
REMARK VINA RESULT:      -4.8      0.000      0.000
REMARK  Name = *****
REMARK  3 active torsions:
REMARK  status: ('A' for Active; 'I' for Inactive)
REMARK    1  A    between atoms: C_3  and  C_8
REMARK    2  A    between atoms: C_9  and  C_10
REMARK    3  A    between atoms: C_13  and  C_16
REMARK                            x       y       z     vdW  Elec       q    Type
REMARK                         _______ _______ _______ _____ _____    ______ ____
ROOT
ATOM      1  C   UNL     1     102.135 126.162  82.436  0.00  0.00    +0.000 C 
ATOM      2  C   UNL     1     102.959 125.327  82.175  0.00  0.00    +0.000 C 
ENDROOT
BRANCH   1   5
ATOM      3  C   UNL     1     100.549 129.281  83.731  0.00  0.00    +0.000 A 
ATOM      4  C   UNL     1     101.519 128.337  83.385  0.00  0.00    +0.000 A 
ATOM      5  C   UNL     1     101.145 127.137  82.772  0.00  0.00    +0.000 A 
ATOM      6  C   UNL     1      99.799 126.883  82.501  0.00  0.00    +0.000 A 
ATOM      7  C   UNL     1      98.844 127.830  82.850  0.00  0.00    +0.000 A 
ATOM      8  C   UNL     1      99.206 129.026  83.463  0.00  0.00    +0.000 A 
ATOM      9  F   UNL     1      97.552 127.588  82.594  0.00  0.00    +0.000 F 
ENDBRANCH   1   5
BRANCH   2  10
ATOM     10  C   UNL     1     103.929 124.315  81.892  0.00  0.00    +0.000 A 
ATOM     11  C   UNL     1     104.350 124.098  80.578  0.00  0.00    +0.000 A 
ATOM     12  C   UNL     1     105.276 123.089  80.297  0.00  0.00    +0.000 A 
ATOM     13  C   UNL     1     105.779 122.301  81.335  0.00  0.00    +0.000 A 
ATOM     14  C   UNL     1     105.367 122.518  82.653  0.00  0.00    +0.000 A 
ATOM     15  C   UNL     1     104.440 123.528  82.929  0.00  0.00    +0.000 A 
BRANCH  13  16
ATOM     16  C   UNL     1     106.748 121.223  81.048  0.00  0.00    +0.000 C 
ATOM     17  O   UNL     1     107.760 121.418  80.387  0.00  0.00    +0.000 OA
ENDBRANCH  13  16
ENDBRANCH   2  10
TORSDOF 3
ENDMDL
