REMARK  Name = *****
REMARK  4 active torsions:
REMARK  status: ('A' for Active; 'I' for Inactive)
REMARK    1  A    between atoms: C_4  and  C_7
REMARK    2  A    between atoms: C_7  and  C_8
REMARK    3  A    between atoms: C_8  and  N_9
REMARK    4  A    between atoms: N_9  and  C_10
REMARK                            x       y       z     vdW  Elec       q    Type
REMARK                         _______ _______ _______ _____ _____    ______ ____
ROOT
ATOM      1  C   UNL     1       3.331  -2.007   0.083  0.00  0.00    +0.000 C 
ENDROOT
BRANCH   1   2
ATOM      2  C   UNL     1       2.780  -0.710  -0.450  0.00  0.00    +0.000 C 
BRANCH   2   6
ATOM      3  C   UNL     1      -1.458   0.351  -0.178  0.00  0.00    +0.000 C 
ATOM      4  C   UNL     1      -1.059  -1.087   0.133  0.00  0.00    +0.000 C 
ATOM      5  C   UNL     1       0.339  -1.412  -0.392  0.00  0.00    +0.000 C 
ATOM      6  C   UNL     1       1.391  -0.422   0.136  0.00  0.00    +0.000 C 
ATOM      7  C   UNL     1       0.976   1.023  -0.183  0.00  0.00    +0.000 C 
ATOM      8  C   UNL     1      -0.422   1.342   0.342  0.00  0.00    +0.000 C 
ENDBRANCH   2   6
ENDBRANCH   1   2
BRANCH   1   9
ATOM      9  N   UNL     1       3.546  -2.997  -0.709  0.00  0.00    +0.000 NA
BRANCH   9  10
ATOM     10  C   UNL     1       4.069  -4.205  -0.055  0.00  0.00    +0.000 C 
ATOM     11  C   UNL     1       4.994  -4.916  -1.049  0.00  0.00    +0.000 C 
ATOM     12  C   UNL     1       5.478  -6.258  -0.504  0.00  0.00    +0.000 C 
ATOM     13  C   UNL     1       4.310  -7.153  -0.098  0.00  0.00    +0.000 C 
ATOM     14  C   UNL     1       3.377  -6.450   0.884  0.00  0.00    +0.000 C 
ATOM     15  C   UNL     1       2.895  -5.108   0.341  0.00  0.00    +0.000 C 
ENDBRANCH   9  10
ENDBRANCH   1   9
TORSDOF 4
