MODEL 1
REMARK VINA RESULT:      -3.9      0.000      0.000
REMARK  Name = *****
REMARK  4 active torsions:
REMARK  status: ('A' for Active; 'I' for Inactive)
REMARK    1  A    between atoms: C_3  and  C_6
REMARK    2  A    between atoms: C_6  and  C_7
REMARK    3  A    between atoms: C_8  and  C_9
REMARK    4  A    between atoms: C_9  and  C_10
REMARK                            x       y       z     vdW  Elec       q    Type
REMARK                         _______ _______ _______ _____ _____    ______ ____
ROOT
ATOM      1  C   UNL     1      96.855 116.464  82.160  0.00  0.00    +0.000 C 
ATOM      2  C   UNL     1      96.766 115.284  81.523  0.00  0.00    +0.000 C 
ENDROOT
BRANCH   1   3
ATOM      3  C   UNL     1      95.925 117.646  82.056  0.00  0.00    +0.000 C 
BRANCH   3   6
ATOM      4  C   UNL     1      98.397 119.933  81.284  0.00  0.00    +0.000 C 
ATOM      5  C   UNL     1      97.927 118.721  80.952  0.00  0.00    +0.000 C 
ATOM      6  C   UNL     1      96.419 118.703  81.054  0.00  0.00    +0.000 C 
ATOM      7  C   UNL     1      96.143 120.123  81.492  0.00  0.00    +0.000 C 
ATOM      8  C   UNL     1      97.294 120.798  81.618  0.00  0.00    +0.000 C 
ENDBRANCH   3   6
ENDBRANCH   1   3
BRANCH   2   9
ATOM      9  C   UNL     1      95.716 114.844  80.534  0.00  0.00    +0.000 C 
BRANCH   9  10
ATOM     10  C   UNL     1      96.200 114.938  79.076  0.00  0.00    +0.000 C 
ATOM     11  C   UNL     1      97.653 115.347  78.992  0.00  0.00    +0.000 C 
ATOM     12  C   UNL     1      97.772 116.484  78.290  0.00  0.00    +0.000 C 
ATOM     13  C   UNL     1      96.469 116.916  77.855  0.00  0.00    +0.000 C 
ATOM     14  C   UNL     1      95.543 116.049  78.287  0.00  0.00    +0.000 C 
ENDBRANCH   9  10
ENDBRANCH   2   9
TORSDOF 4
ENDMDL
