MODEL 1
REMARK VINA RESULT:      -4.6      0.000      0.000
REMARK  Name = *****
REMARK  5 active torsions:
REMARK  status: ('A' for Active; 'I' for Inactive)
REMARK    1  A    between atoms: C_1  and  C_2
REMARK    2  A    between atoms: C_2  and  C_3
REMARK    3  A    between atoms: C_2  and  O_9
REMARK    4  A    between atoms: O_9  and  C_10
REMARK    5  A    between atoms: C_10  and  C_12
REMARK                            x       y       z     vdW  Elec       q    Type
REMARK                         _______ _______ _______ _____ _____    ______ ____
ROOT
ATOM      1  O   UNL     1     100.046 126.438  83.189  0.00  0.00    +0.000 OA
ENDROOT
BRANCH   1   3
ATOM      2  C   UNL     1     101.854 125.818  84.684  0.00  0.00    +0.000 C 
ATOM      3  C   UNL     1     101.370 126.803  83.621  0.00  0.00    +0.000 C 
BRANCH   3   4
ATOM      4  C   UNL     1     102.289 126.781  82.413  0.00  0.00    +0.000 A 
ATOM      5  C   UNL     1     102.488 125.610  81.665  0.00  0.00    +0.000 A 
ATOM      6  C   UNL     1     103.350 125.603  80.567  0.00  0.00    +0.000 A 
ATOM      7  C   UNL     1     104.030 126.764  80.206  0.00  0.00    +0.000 A 
ATOM      8  C   UNL     1     103.847 127.933  80.942  0.00  0.00    +0.000 A 
ATOM      9  C   UNL     1     102.985 127.942  82.040  0.00  0.00    +0.000 A 
ENDBRANCH   3   4
ENDBRANCH   1   3
BRANCH   1  10
ATOM     10  C   UNL     1      99.190 127.470  82.962  0.00  0.00    +0.000 C 
ATOM     11  O   UNL     1      98.362 127.515  82.063  0.00  0.00    +0.000 OA
BRANCH  10  12
ATOM     12  C   UNL     1      99.436 128.572  83.976  0.00  0.00    +0.000 C 
ATOM     13  C   UNL     1      98.449 128.474  85.146  0.00  0.00    +0.000 C 
ATOM     14  C   UNL     1      98.638 129.619  86.137  0.00  0.00    +0.000 C 
ATOM     15  C   UNL     1      98.543 130.976  85.447  0.00  0.00    +0.000 C 
ATOM     16  C   UNL     1      99.519 131.084  84.279  0.00  0.00    +0.000 C 
ATOM     17  C   UNL     1      99.343 129.936  83.287  0.00  0.00    +0.000 C 
ENDBRANCH  10  12
ENDBRANCH   1  10
TORSDOF 4
ENDMDL
