REMARK  Name = *****
REMARK  4 active torsions:
REMARK  status: ('A' for Active; 'I' for Inactive)
REMARK    1  A    between atoms: C_3  and  C_18
REMARK    2  A    between atoms: C_6  and  C_7
REMARK    3  A    between atoms: C_7  and  O_9
REMARK    4  A    between atoms: O_9  and  C_10
REMARK                            x       y       z     vdW  Elec       q    Type
REMARK                         _______ _______ _______ _____ _____    ______ ____
ROOT
ATOM      1  C   UNL     1       1.393   2.280   0.709  0.00  0.00    +0.000 C 
ATOM      2  O   UNL     1       1.026   3.395   0.374  0.00  0.00    +0.000 OA
ENDROOT
BRANCH   1   8
ATOM      3  C   UNL     1       1.088  -0.241   0.729  0.00  0.00    +0.000 A 
ATOM      4  C   UNL     1       0.340  -1.371   0.380  0.00  0.00    +0.000 A 
ATOM      5  C   UNL     1      -0.860  -1.243  -0.338  0.00  0.00    +0.000 A 
ATOM      6  C   UNL     1      -1.305   0.040  -0.687  0.00  0.00    +0.000 A 
ATOM      7  C   UNL     1      -0.559   1.170  -0.341  0.00  0.00    +0.000 A 
ATOM      8  C   UNL     1       0.643   1.038   0.369  0.00  0.00    +0.000 A 
BRANCH   5   9
ATOM      9  C   UNL     1      -1.675  -2.466  -0.690  0.00  0.00    +0.000 C 
ATOM     10  F   UNL     1      -0.904  -3.558  -0.954  0.00  0.00    +0.000 F 
ATOM     11  F   UNL     1      -2.514  -2.834   0.316  0.00  0.00    +0.000 F 
ATOM     12  F   UNL     1      -2.459  -2.289  -1.789  0.00  0.00    +0.000 F 
ENDBRANCH   5   9
ENDBRANCH   1   8
BRANCH   1  13
ATOM     13  O   UNL     1       2.524   1.961   1.438  0.00  0.00    +0.000 OA
BRANCH  13  14
ATOM     14  C   UNL     1       3.279   3.077   1.805  0.00  0.00    +0.000 A 
ATOM     15  C   UNL     1       2.884   3.862   2.887  0.00  0.00    +0.000 A 
ATOM     16  C   UNL     1       3.683   4.938   3.257  0.00  0.00    +0.000 A 
ATOM     17  C   UNL     1       4.862   5.226   2.579  0.00  0.00    +0.000 A 
ATOM     18  C   UNL     1       5.243   4.415   1.516  0.00  0.00    +0.000 A 
ATOM     19  C   UNL     1       4.465   3.331   1.122  0.00  0.00    +0.000 A 
ATOM     20  F   UNL     1       6.384   4.676   0.865  0.00  0.00    +0.000 F 
ATOM     21  F   UNL     1       3.315   5.707   4.290  0.00  0.00    +0.000 F 
ENDBRANCH  13  14
ENDBRANCH   1  13
TORSDOF 4
