REMARK  Name = *****
REMARK  6 active torsions:
REMARK  status: ('A' for Active; 'I' for Inactive)
REMARK    1  A    between atoms: C_1  and  C_2
REMARK    2  A    between atoms: C_5  and  C_8
REMARK    3  A    between atoms: C_8  and  S_10
REMARK    4  A    between atoms: S_10  and  C_11
REMARK    5  A    between atoms: C_16  and  O_17
REMARK    6  A    between atoms: O_17  and  C_18
REMARK                            x       y       z     vdW  Elec       q    Type
REMARK                         _______ _______ _______ _____ _____    ______ ____
ROOT
ATOM      1  C   UNL     1      -3.492  -0.485   0.162  0.00  0.00    +0.000 C 
ATOM      2  O   UNL     1      -3.895  -1.461  -0.463  0.00  0.00    +0.000 OA
ENDROOT
BRANCH   1   7
ATOM      3  C   UNL     1       2.186   0.755  -0.008  0.00  0.00    +0.000 C 
ATOM      4  C   UNL     1       0.714   0.464   0.017  0.00  0.00    +0.000 A 
ATOM      5  C   UNL     1      -0.181   1.388   0.566  0.00  0.00    +0.000 A 
ATOM      6  C   UNL     1      -1.551   1.107   0.623  0.00  0.00    +0.000 A 
ATOM      7  C   UNL     1      -2.046  -0.113   0.143  0.00  0.00    +0.000 A 
ATOM      8  C   UNL     1      -1.143  -1.040  -0.401  0.00  0.00    +0.000 A 
ATOM      9  C   UNL     1       0.225  -0.758  -0.456  0.00  0.00    +0.000 A 
ENDBRANCH   1   7
BRANCH   1  10
ATOM     10  S   UNL     1      -4.591   0.456   1.167  0.00  0.00    +0.000 S 
BRANCH  10  11
ATOM     11  C   UNL     1      -5.810   0.906  -0.068  0.00  0.00    +0.000 A 
ATOM     12  C   UNL     1      -7.114   0.418   0.097  0.00  0.00    +0.000 A 
ATOM     13  C   UNL     1      -8.109   0.736  -0.826  0.00  0.00    +0.000 A 
ATOM     14  C   UNL     1      -7.809   1.549  -1.915  0.00  0.00    +0.000 A 
ATOM     15  C   UNL     1      -6.515   2.048  -2.086  0.00  0.00    +0.000 A 
ATOM     16  C   UNL     1      -5.505   1.733  -1.169  0.00  0.00    +0.000 A 
BRANCH  16  17
ATOM     17  O   UNL     1      -4.215   2.195  -1.253  0.00  0.00    +0.000 OA
ATOM     18  C   UNL     1      -3.837   2.870  -2.446  0.00  0.00    +0.000 C 
ENDBRANCH  16  17
ENDBRANCH  10  11
ENDBRANCH   1  10
TORSDOF 4
