MODEL 1
REMARK VINA RESULT:      -4.4      0.000      0.000
REMARK  Name = *****
REMARK  2 active torsions:
REMARK  status: ('A' for Active; 'I' for Inactive)
REMARK    1  A    between atoms: C_4  and  O_7
REMARK    2  A    between atoms: O_7  and  C_8
REMARK                            x       y       z     vdW  Elec       q    Type
REMARK                         _______ _______ _______ _____ _____    ______ ____
ROOT
ATOM      1  C   UNL     1      88.997  68.765  87.020  0.00  0.00    +0.000 A 
ATOM      2  N   UNL     1      90.085  68.322  86.430  0.00  0.00    +0.000 NA
ATOM      3  C   UNL     1      89.992  66.956  86.233  0.00  0.00    +0.000 A 
ATOM      4  C   UNL     1      90.967  66.141  85.623  0.00  0.00    +0.000 A 
ATOM      5  C   UNL     1      90.740  64.768  85.487  0.00  0.00    +0.000 A 
ATOM      6  C   UNL     1      89.558  64.200  85.950  0.00  0.00    +0.000 A 
ATOM      7  C   UNL     1      88.574  64.986  86.559  0.00  0.00    +0.000 A 
ATOM      8  C   UNL     1      88.813  66.365  86.689  0.00  0.00    +0.000 A 
ATOM      9  S   UNL     1      87.815  67.580  87.386  0.00  0.00    +0.000 S 
ENDROOT
BRANCH   1  10
ATOM     10  O   UNL     1      88.794  70.040  87.365  0.00  0.00    +0.000 OA
BRANCH  10  14
ATOM     11  C   UNL     1      85.215  72.031  86.626  0.00  0.00    +0.000 A 
ATOM     12  C   UNL     1      85.561  71.732  87.943  0.00  0.00    +0.000 A 
ATOM     13  C   UNL     1      86.751  71.055  88.217  0.00  0.00    +0.000 A 
ATOM     14  C   UNL     1      87.585  70.662  87.169  0.00  0.00    +0.000 A 
ATOM     15  C   UNL     1      87.249  70.981  85.853  0.00  0.00    +0.000 A 
ATOM     16  C   UNL     1      86.060  71.659  85.580  0.00  0.00    +0.000 A 
ENDBRANCH  10  14
ENDBRANCH   1  10
TORSDOF 2
ENDMDL
