REMARK  Name = *****
REMARK  3 active torsions:
REMARK  status: ('A' for Active; 'I' for Inactive)
REMARK    1  A    between atoms: C_3  and  C_16
REMARK    2  A    between atoms: C_6  and  C_7
REMARK    3  A    between atoms: N_8  and  C_9
REMARK                            x       y       z     vdW  Elec       q    Type
REMARK                         _______ _______ _______ _____ _____    ______ ____
ROOT
ATOM      1  C   UNL     1       1.289   0.022   0.439  0.00  0.00    +0.000 A 
ATOM      2  C   UNL     1       0.472  -1.109   0.523  0.00  0.00    +0.000 A 
ATOM      3  C   UNL     1      -0.835  -1.088   0.009  0.00  0.00    +0.000 A 
ATOM      4  C   UNL     1      -1.315   0.093  -0.580  0.00  0.00    +0.000 A 
ATOM      5  C   UNL     1      -0.501   1.224  -0.666  0.00  0.00    +0.000 A 
ATOM      6  C   UNL     1       0.800   1.187  -0.158  0.00  0.00    +0.000 A 
ENDROOT
BRANCH   3   7
ATOM      7  C   UNL     1      -1.721  -2.306   0.124  0.00  0.00    +0.000 C 
ATOM      8  F   UNL     1      -1.030  -3.476   0.025  0.00  0.00    +0.000 F 
ATOM      9  F   UNL     1      -2.374  -2.358   1.318  0.00  0.00    +0.000 F 
ATOM     10  F   UNL     1      -2.686  -2.362  -0.835  0.00  0.00    +0.000 F 
ENDBRANCH   3   7
BRANCH   6  11
ATOM     11  C   UNL     1       1.678   2.371  -0.237  0.00  0.00    +0.000 C 
ATOM     12  N   UNL     1       1.287   3.477  -0.788  0.00  0.00    +0.000 NA
BRANCH  12  13
ATOM     13  C   UNL     1       2.220   4.521  -0.795  0.00  0.00    +0.000 A 
ATOM     14  C   UNL     1       3.156   4.628  -1.830  0.00  0.00    +0.000 A 
ATOM     15  C   UNL     1       4.074   5.679  -1.844  0.00  0.00    +0.000 A 
ATOM     16  C   UNL     1       4.044   6.625  -0.826  0.00  0.00    +0.000 A 
ATOM     17  C   UNL     1       3.111   6.543   0.201  0.00  0.00    +0.000 A 
ATOM     18  C   UNL     1       2.194   5.490   0.212  0.00  0.00    +0.000 A 
ATOM     19  F   UNL     1       4.925   7.635  -0.838  0.00  0.00    +0.000 F 
ENDBRANCH  12  13
ENDBRANCH   6  11
TORSDOF 3
