MODEL 1
REMARK VINA RESULT:      -4.6      0.000      0.000
REMARK  Name = *****
REMARK  4 active torsions:
REMARK  status: ('A' for Active; 'I' for Inactive)
REMARK    1  A    between atoms: C_1  and  O_2
REMARK    2  A    between atoms: O_2  and  C_3
REMARK    3  A    between atoms: C_8  and  C_9
REMARK    4  A    between atoms: C_10  and  C_11
REMARK                            x       y       z     vdW  Elec       q    Type
REMARK                         _______ _______ _______ _____ _____    ______ ____
ROOT
ATOM      1  C   UNL     1     102.028 126.151  82.428  0.00  0.00    +0.000 C 
ATOM      2  C   UNL     1     102.874 125.341  82.160  0.00  0.00    +0.000 C 
ENDROOT
BRANCH   2   3
ATOM      3  C   UNL     1     103.885 124.378  81.855  0.00  0.00    +0.000 A 
ATOM      4  C   UNL     1     104.393 123.557  82.866  0.00  0.00    +0.000 A 
ATOM      5  C   UNL     1     105.382 122.615  82.571  0.00  0.00    +0.000 A 
ATOM      6  C   UNL     1     105.858 122.496  81.266  0.00  0.00    +0.000 A 
ATOM      7  C   UNL     1     105.355 123.313  80.253  0.00  0.00    +0.000 A 
ATOM      8  C   UNL     1     104.366 124.255  80.548  0.00  0.00    +0.000 A 
ATOM      9 CL   UNL     1     107.075 121.336  80.902  0.00  0.00    +0.000 Cl
ENDBRANCH   2   3
BRANCH   1  15
ATOM     10  C   UNL     1     101.342 128.313  83.424  0.00  0.00    +0.000 A 
ATOM     11  C   UNL     1     100.319 129.223  83.717  0.00  0.00    +0.000 A 
ATOM     12  C   UNL     1      98.997 128.947  83.352  0.00  0.00    +0.000 A 
ATOM     13  C   UNL     1      98.684 127.762  82.692  0.00  0.00    +0.000 A 
ATOM     14  C   UNL     1      99.695 126.849  82.393  0.00  0.00    +0.000 A 
ATOM     15  C   UNL     1     101.020 127.118  82.755  0.00  0.00    +0.000 A 
BRANCH  10  17
ATOM     16  C   UNL     1     103.050 129.781  84.221  0.00  0.00    +0.000 C 
ATOM     17  O   UNL     1     102.664 128.500  83.741  0.00  0.00    +0.000 OA
ENDBRANCH  10  17
ENDBRANCH   1  15
TORSDOF 3
ENDMDL
