MODEL 1
REMARK VINA RESULT:      -5.2      0.000      0.000
REMARK  Name = *****
REMARK  3 active torsions:
REMARK  status: ('A' for Active; 'I' for Inactive)
REMARK    1  A    between atoms: C_1  and  C_2
REMARK    2  A    between atoms: C_9  and  C_11
REMARK    3  A    between atoms: C_12  and  C_13
REMARK                            x       y       z     vdW  Elec       q    Type
REMARK                         _______ _______ _______ _____ _____    ______ ____
ROOT
ATOM      1  C   UNL     1     107.447 120.410  81.301  0.00  0.00    +0.000 C 
ATOM      2  C   UNL     1     106.590 121.602  81.139  0.00  0.00    +0.000 A 
ATOM      3  N   UNL     1     105.561 121.985  81.871  0.00  0.00    +0.000 NA
ATOM      4  C   UNL     1     105.154 123.148  81.268  0.00  0.00    +0.000 A 
ATOM      5  C   UNL     1     105.966 123.423  80.181  0.00  0.00    +0.000 A 
ATOM      6  O   UNL     1     106.895 122.429  80.090  0.00  0.00    +0.000 OA
ATOM      7  C   UNL     1     105.831 124.529  79.354  0.00  0.00    +0.000 A 
ATOM      8  C   UNL     1     104.785 125.404  79.677  0.00  0.00    +0.000 A 
ATOM      9  C   UNL     1     103.920 125.164  80.763  0.00  0.00    +0.000 A 
ATOM     10  C   UNL     1     104.111 124.032  81.578  0.00  0.00    +0.000 A 
ENDROOT
BRANCH   9  11
ATOM     11  C   UNL     1     102.843 126.103  81.119  0.00  0.00    +0.000 C 
ATOM     12  C   UNL     1     102.122 126.021  82.249  0.00  0.00    +0.000 C 
BRANCH  12  13
ATOM     13  C   UNL     1     101.057 126.969  82.610  0.00  0.00    +0.000 A 
ATOM     14  C   UNL     1      99.703 126.704  82.366  0.00  0.00    +0.000 A 
ATOM     15  C   UNL     1      98.718 127.617  82.754  0.00  0.00    +0.000 A 
ATOM     16  C   UNL     1      99.076 128.799  83.398  0.00  0.00    +0.000 A 
ATOM     17  C   UNL     1     100.418 129.067  83.661  0.00  0.00    +0.000 A 
ATOM     18  C   UNL     1     101.403 128.154  83.273  0.00  0.00    +0.000 A 
ENDBRANCH  12  13
ENDBRANCH   9  11
TORSDOF 2
ENDMDL
