MODEL 1
REMARK VINA RESULT:      -4.8      0.000      0.000
REMARK  Name = *****
REMARK  2 active torsions:
REMARK  status: ('A' for Active; 'I' for Inactive)
REMARK    1  A    between atoms: C_8  and  C_9
REMARK    2  A    between atoms: C_10  and  C_11
REMARK                            x       y       z     vdW  Elec       q    Type
REMARK                         _______ _______ _______ _____ _____    ______ ____
ROOT
ATOM      1  C   UNL     1      98.697 127.722  85.044  0.00  0.00    +0.000 C 
ATOM      2  C   UNL     1      97.791 127.352  83.842  0.00  0.00    +0.000 C 
ATOM      3  C   UNL     1      98.665 127.739  82.626  0.00  0.00    +0.000 C 
ATOM      4  C   UNL     1      99.334 129.013  83.167  0.00  0.00    +0.000 C 
ATOM      5  C   UNL     1      99.967 128.274  84.356  0.00  0.00    +0.000 C 
ATOM      6  C   UNL     1     100.682 127.088  83.713  0.00  0.00    +0.000 C 
ATOM      7  C   UNL     1      99.807 126.727  82.552  0.00  0.00    +0.000 C 
ATOM      8  C   UNL     1     101.257 127.087  82.313  0.00  0.00    +0.000 C 
ENDROOT
BRANCH   8   9
ATOM      9  C   UNL     1     102.188 126.010  81.948  0.00  0.00    +0.000 C 
ATOM     10  C   UNL     1     103.192 126.130  81.064  0.00  0.00    +0.000 C 
BRANCH  10  11
ATOM     11  C   UNL     1     104.125 125.055  80.700  0.00  0.00    +0.000 A 
ATOM     12  C   UNL     1     105.054 125.185  79.658  0.00  0.00    +0.000 A 
ATOM     13  C   UNL     1     105.944 124.148  79.365  0.00  0.00    +0.000 A 
ATOM     14  C   UNL     1     105.924 122.974  80.117  0.00  0.00    +0.000 A 
ATOM     15  C   UNL     1     105.017 122.839  81.165  0.00  0.00    +0.000 A 
ATOM     16  C   UNL     1     104.127 123.876  81.458  0.00  0.00    +0.000 A 
ENDBRANCH  10  11
ENDBRANCH   8   9
TORSDOF 2
ENDMDL
