MODEL 1
REMARK VINA RESULT:      -4.8      0.000      0.000
REMARK  Name = *****
REMARK  7 active torsions:
REMARK  status: ('A' for Active; 'I' for Inactive)
REMARK    1  A    between atoms: C_1  and  C_2
REMARK    2  A    between atoms: C_4  and  C_8
REMARK    3  A    between atoms: C_8  and  C_10
REMARK    4  A    between atoms: C_10  and  C_11
REMARK    5  A    between atoms: C_11  and  C_12
REMARK    6  A    between atoms: C_13  and  C_19
REMARK    7  A    between atoms: C_16  and  C_18
REMARK                            x       y       z     vdW  Elec       q    Type
REMARK                         _______ _______ _______ _____ _____    ______ ____
ROOT
ATOM      1  C   UNL     1      89.889  68.369  86.204  0.00  0.00    +0.000 C 
ENDROOT
BRANCH   1   2
ATOM      2  C   UNL     1      88.699  67.462  85.956  0.00  0.00    +0.000 C 
ATOM      3  O   UNL     1      88.224  67.295  84.835  0.00  0.00    +0.000 OA
BRANCH   2   7
ATOM      4  C   UNL     1      88.571  63.623  89.254  0.00  0.00    +0.000 C 
ATOM      5  C   UNL     1      87.997  64.897  88.706  0.00  0.00    +0.000 A 
ATOM      6  C   UNL     1      88.604  65.540  87.615  0.00  0.00    +0.000 A 
ATOM      7  C   UNL     1      88.090  66.747  87.122  0.00  0.00    +0.000 A 
ATOM      8  C   UNL     1      86.967  67.315  87.738  0.00  0.00    +0.000 A 
ATOM      9  C   UNL     1      86.368  66.689  88.831  0.00  0.00    +0.000 A 
ATOM     10  C   UNL     1      86.885  65.488  89.316  0.00  0.00    +0.000 A 
ENDBRANCH   2   7
ENDBRANCH   1   2
BRANCH   1  11
ATOM     11  C   UNL     1      89.579  69.822  85.840  0.00  0.00    +0.000 C 
BRANCH  11  12
ATOM     12  C   UNL     1      88.522  70.405  86.753  0.00  0.00    +0.000 A 
ATOM     13  C   UNL     1      87.262  70.823  86.282  0.00  0.00    +0.000 A 
ATOM     14  C   UNL     1      86.332  71.347  87.194  0.00  0.00    +0.000 A 
ATOM     15  C   UNL     1      86.632  71.440  88.554  0.00  0.00    +0.000 A 
ATOM     16  C   UNL     1      87.868  71.004  89.035  0.00  0.00    +0.000 A 
ATOM     17  C   UNL     1      88.808  70.501  88.129  0.00  0.00    +0.000 A 
ATOM     18  C   UNL     1      88.209  71.136  90.489  0.00  0.00    +0.000 C 
ATOM     19  C   UNL     1      86.895  70.763  84.824  0.00  0.00    +0.000 C 
ENDBRANCH  11  12
ENDBRANCH   1  11
TORSDOF 4
ENDMDL
