MODEL 1
REMARK VINA RESULT:      -4.5      0.000      0.000
REMARK  Name = *****
REMARK  4 active torsions:
REMARK  status: ('A' for Active; 'I' for Inactive)
REMARK    1  A    between atoms: C_1  and  C_2
REMARK    2  A    between atoms: C_5  and  C_8
REMARK    3  A    between atoms: C_8  and  S_9
REMARK    4  A    between atoms: S_9  and  C_11
REMARK                            x       y       z     vdW  Elec       q    Type
REMARK                         _______ _______ _______ _____ _____    ______ ____
ROOT
ATOM      1  C   UNL     1     103.527 127.672  81.801  0.00  0.00    +0.000 C 
ENDROOT
BRANCH   1   6
ATOM      2  C   UNL     1     105.131 122.240  80.440  0.00  0.00    +0.000 C 
ATOM      3  C   UNL     1     104.694 123.632  80.782  0.00  0.00    +0.000 A 
ATOM      4  C   UNL     1     104.745 124.648  79.821  0.00  0.00    +0.000 A 
ATOM      5  C   UNL     1     104.366 125.953  80.147  0.00  0.00    +0.000 A 
ATOM      6  C   UNL     1     103.943 126.269  81.445  0.00  0.00    +0.000 A 
ATOM      7  C   UNL     1     103.902 125.251  82.407  0.00  0.00    +0.000 A 
ATOM      8  C   UNL     1     104.281 123.947  82.081  0.00  0.00    +0.000 A 
ENDBRANCH   1   6
BRANCH   1   9
ATOM      9  S   UNL     1     103.019 127.810  83.551  0.00  0.00    +0.000 S 
ATOM     10  O   UNL     1     103.407 129.180  84.031  0.00  0.00    +0.000 OA
BRANCH   9  11
ATOM     11  C   UNL     1     101.237 127.888  83.249  0.00  0.00    +0.000 A 
ATOM     12  C   UNL     1     100.590 126.798  82.654  0.00  0.00    +0.000 A 
ATOM     13  C   UNL     1      99.215 126.845  82.413  0.00  0.00    +0.000 A 
ATOM     14  C   UNL     1      98.482 127.976  82.770  0.00  0.00    +0.000 A 
ATOM     15  C   UNL     1      99.120 129.059  83.373  0.00  0.00    +0.000 A 
ATOM     16  C   UNL     1     100.494 129.014  83.614  0.00  0.00    +0.000 A 
ENDBRANCH   9  11
ENDBRANCH   1   9
TORSDOF 3
ENDMDL
