MODEL 1
REMARK VINA RESULT:      -4.4      0.000      0.000
REMARK  Name = *****
REMARK  3 active torsions:
REMARK  status: ('A' for Active; 'I' for Inactive)
REMARK    1  A    between atoms: C_6  and  C_7
REMARK    2  A    between atoms: C_7  and  S_8
REMARK    3  A    between atoms: S_8  and  C_9
REMARK                            x       y       z     vdW  Elec       q    Type
REMARK                         _______ _______ _______ _____ _____    ______ ____
ROOT
ATOM      1  C   UNL     1     102.732 127.731  82.882  0.00  0.00    +0.000 C 
ENDROOT
BRANCH   1   7
ATOM      2  C   UNL     1     100.505 126.643  82.369  0.00  0.00    +0.000 A 
ATOM      3  C   UNL     1      99.110 126.625  82.417  0.00  0.00    +0.000 A 
ATOM      4  C   UNL     1      98.432 127.677  83.021  0.00  0.00    +0.000 A 
ATOM      5  C   UNL     1      99.122 128.745  83.583  0.00  0.00    +0.000 A 
ATOM      6  C   UNL     1     100.517 128.765  83.536  0.00  0.00    +0.000 A 
ATOM      7  C   UNL     1     101.222 127.716  82.921  0.00  0.00    +0.000 A 
ATOM      8  F   UNL     1      97.094 127.660  83.067  0.00  0.00    +0.000 F 
ENDBRANCH   1   7
BRANCH   1   9
ATOM      9  S   UNL     1     103.351 127.315  81.219  0.00  0.00    +0.000 S 
BRANCH   9  10
ATOM     10  C   UNL     1     103.864 125.608  81.371  0.00  0.00    +0.000 A 
ATOM     11  C   UNL     1     104.277 124.793  80.311  0.00  0.00    +0.000 A 
ATOM     12  C   UNL     1     104.659 123.465  80.537  0.00  0.00    +0.000 A 
ATOM     13  C   UNL     1     104.630 122.943  81.828  0.00  0.00    +0.000 A 
ATOM     14  C   UNL     1     104.221 123.736  82.894  0.00  0.00    +0.000 A 
ATOM     15  C   UNL     1     103.841 125.062  82.663  0.00  0.00    +0.000 A 
ATOM     16 BR   UNL     1     105.146 121.151  82.130  0.00  0.00    +0.000 Br
ENDBRANCH   9  10
ENDBRANCH   1   9
TORSDOF 3
ENDMDL
