REMARK  Name = *****
REMARK  2 active torsions:
REMARK  status: ('A' for Active; 'I' for Inactive)
REMARK    1  A    between atoms: C_6  and  C_7
REMARK    2  A    between atoms: C_8  and  C_9
REMARK                            x       y       z     vdW  Elec       q    Type
REMARK                         _______ _______ _______ _____ _____    ______ ____
ROOT
ATOM      1  C   UNL     1       5.614   1.069  -0.006  0.00  0.00    +0.000 A 
ATOM      2  C   UNL     1       6.387   0.053  -0.583  0.00  0.00    +0.000 A 
ATOM      3  C   UNL     1       7.781   0.095  -0.546  0.00  0.00    +0.000 A 
ATOM      4  C   UNL     1       8.439   1.160   0.059  0.00  0.00    +0.000 A 
ATOM      5  C   UNL     1       7.689   2.186   0.621  0.00  0.00    +0.000 A 
ATOM      6  C   UNL     1       6.296   2.142   0.582  0.00  0.00    +0.000 A 
ATOM      7  F   UNL     1       5.603   3.154   1.130  0.00  0.00    +0.000 F 
ATOM      8  F   UNL     1       8.294   3.232   1.204  0.00  0.00    +0.000 F 
ATOM      9 CL   UNL     1      10.159   1.211   0.103  0.00  0.00    +0.000 Cl
ATOM     10  F   UNL     1       8.478  -0.904  -1.109  0.00  0.00    +0.000 F 
ATOM     11  F   UNL     1       5.797  -0.983  -1.201  0.00  0.00    +0.000 F 
ENDROOT
BRANCH   1  13
ATOM     12  C   UNL     1       3.358   0.004   0.027  0.00  0.00    +0.000 C 
ATOM     13  C   UNL     1       4.140   1.093  -0.038  0.00  0.00    +0.000 C 
BRANCH  12  19
ATOM     14  C   UNL     1       1.157   1.042   0.655  0.00  0.00    +0.000 A 
ATOM     15  C   UNL     1      -0.239   1.017   0.620  0.00  0.00    +0.000 A 
ATOM     16  N   UNL     1      -0.928   0.021  -0.046  0.00  0.00    +0.000 N 
ATOM     17  C   UNL     1      -0.199  -0.968  -0.680  0.00  0.00    +0.000 A 
ATOM     18  C   UNL     1       1.197  -0.970  -0.662  0.00  0.00    +0.000 A 
ATOM     19  C   UNL     1       1.889   0.049  -0.002  0.00  0.00    +0.000 A 
ATOM     20  O   UNL     1      -2.194   0.010  -0.069  0.00  0.00    +0.000 OA
ENDBRANCH  12  19
ENDBRANCH   1  13
TORSDOF 2
