MODEL 1
REMARK VINA RESULT:      -4.7      0.000      0.000
REMARK  Name = *****
REMARK  4 active torsions:
REMARK  status: ('A' for Active; 'I' for Inactive)
REMARK    1  A    between atoms: C_1  and  C_2
REMARK    2  A    between atoms: C_5  and  C_8
REMARK    3  A    between atoms: C_9  and  C_10
REMARK    4  A    between atoms: C_10  and  C_12
REMARK                            x       y       z     vdW  Elec       q    Type
REMARK                         _______ _______ _______ _____ _____    ______ ____
ROOT
ATOM      1  C   UNL     1      89.521  69.699  86.892  0.00  0.00    +0.000 C 
ATOM      2  C   UNL     1      89.699  68.437  86.474  0.00  0.00    +0.000 C 
ENDROOT
BRANCH   1   7
ATOM      3  C   UNL     1      84.440  72.374  87.486  0.00  0.00    +0.000 C 
ATOM      4  C   UNL     1      85.773  71.706  87.333  0.00  0.00    +0.000 A 
ATOM      5  C   UNL     1      86.323  71.501  86.063  0.00  0.00    +0.000 A 
ATOM      6  C   UNL     1      87.553  70.855  85.918  0.00  0.00    +0.000 A 
ATOM      7  C   UNL     1      88.244  70.398  87.043  0.00  0.00    +0.000 A 
ATOM      8  C   UNL     1      87.694  70.590  88.313  0.00  0.00    +0.000 A 
ATOM      9  C   UNL     1      86.463  71.236  88.457  0.00  0.00    +0.000 A 
ENDBRANCH   1   7
BRANCH   2  10
ATOM     10  C   UNL     1      88.611  67.474  86.134  0.00  0.00    +0.000 C 
ATOM     11  O   UNL     1      88.115  67.406  85.016  0.00  0.00    +0.000 OA
BRANCH  10  12
ATOM     12  C   UNL     1      88.063  66.642  87.240  0.00  0.00    +0.000 A 
ATOM     13  C   UNL     1      88.718  65.443  87.555  0.00  0.00    +0.000 A 
ATOM     14  C   UNL     1      88.243  64.629  88.586  0.00  0.00    +0.000 A 
ATOM     15  C   UNL     1      87.118  65.014  89.314  0.00  0.00    +0.000 A 
ATOM     16  C   UNL     1      86.472  66.214  89.020  0.00  0.00    +0.000 A 
ATOM     17  C   UNL     1      86.943  67.031  87.990  0.00  0.00    +0.000 A 
ENDBRANCH  10  12
ENDBRANCH   2  10
TORSDOF 3
ENDMDL
