REMARK  Name = *****
REMARK  2 active torsions:
REMARK  status: ('A' for Active; 'I' for Inactive)
REMARK    1  A    between atoms: C_4  and  C_7
REMARK    2  A    between atoms: C_8  and  C_9
REMARK                            x       y       z     vdW  Elec       q    Type
REMARK                         _______ _______ _______ _____ _____    ______ ____
ROOT
ATOM      1  C   UNL     1      -0.732  -1.230   1.857  0.00  0.00    +0.000 C 
ATOM      2  C   UNL     1      -0.740  -1.287   3.058  0.00  0.00    +0.000 C 
ENDROOT
BRANCH   2   3
ATOM      3  C   UNL     1      -0.744  -1.346   4.491  0.00  0.00    +0.000 C 
ATOM      4  C   UNL     1      -1.436  -0.229   5.242  0.00  0.00    +0.000 C 
ATOM      5  C   UNL     1      -2.028  -1.601   5.227  0.00  0.00    +0.000 C 
ATOM      6  C   UNL     1      -3.346  -1.970   4.650  0.00  0.00    +0.000 C 
ATOM      7  C   UNL     1      -3.220  -3.238   5.509  0.00  0.00    +0.000 C 
ATOM      8  C   UNL     1      -2.246  -2.466   6.414  0.00  0.00    +0.000 C 
ATOM      9 CL   UNL     1       0.770  -1.937   5.184  0.00  0.00    +0.000 Cl
ENDBRANCH   2   3
BRANCH   1  13
ATOM     10  C   UNL     1       0.749   1.311  -0.427  0.00  0.00    +0.000 C 
ATOM     11  C   UNL     1       1.500   0.093   0.100  0.00  0.00    +0.000 C 
ATOM     12  C   UNL     1       0.726  -1.202  -0.152  0.00  0.00    +0.000 C 
ATOM     13  C   UNL     1      -0.712  -1.154   0.383  0.00  0.00    +0.000 C 
ATOM     14  C   UNL     1      -1.448   0.099  -0.113  0.00  0.00    +0.000 C 
ATOM     15  C   UNL     1      -0.666   1.390   0.139  0.00  0.00    +0.000 C 
ENDBRANCH   1  13
TORSDOF 2
