MODEL 1
REMARK VINA RESULT:      -4.7      0.000      0.000
REMARK  Name = *****
REMARK  4 active torsions:
REMARK  status: ('A' for Active; 'I' for Inactive)
REMARK    1  A    between atoms: C_1  and  O_2
REMARK    2  A    between atoms: O_2  and  C_3
REMARK    3  A    between atoms: C_6  and  C_9
REMARK    4  A    between atoms: C_10  and  C_11
REMARK                            x       y       z     vdW  Elec       q    Type
REMARK                         _______ _______ _______ _____ _____    ______ ____
ROOT
ATOM      1  C   UNL     1     105.943 123.219  80.373  0.00  0.00    +0.000 A 
ATOM      2  C   UNL     1     105.745 124.302  79.518  0.00  0.00    +0.000 A 
ATOM      3  C   UNL     1     104.727 125.229  79.776  0.00  0.00    +0.000 A 
ATOM      4  C   UNL     1     103.886 125.081  80.886  0.00  0.00    +0.000 A 
ATOM      5  C   UNL     1     104.101 124.003  81.749  0.00  0.00    +0.000 A 
ATOM      6  C   UNL     1     105.117 123.078  81.490  0.00  0.00    +0.000 A 
ENDROOT
BRANCH   1   8
ATOM      7  C   UNL     1     107.055 121.350  81.330  0.00  0.00    +0.000 C 
ATOM      8  O   UNL     1     106.894 122.247  80.238  0.00  0.00    +0.000 OA
ENDBRANCH   1   8
BRANCH   4   9
ATOM      9  C   UNL     1     102.829 126.052  81.205  0.00  0.00    +0.000 C 
ATOM     10  C   UNL     1     102.065 125.990  82.307  0.00  0.00    +0.000 C 
BRANCH  10  11
ATOM     11  C   UNL     1     101.019 126.970  82.635  0.00  0.00    +0.000 A 
ATOM     12  C   UNL     1      99.666 126.742  82.355  0.00  0.00    +0.000 A 
ATOM     13  C   UNL     1      98.697 127.684  82.712  0.00  0.00    +0.000 A 
ATOM     14  C   UNL     1      99.071 128.858  83.362  0.00  0.00    +0.000 A 
ATOM     15  C   UNL     1     100.412 129.088  83.661  0.00  0.00    +0.000 A 
ATOM     16  C   UNL     1     101.380 128.147  83.305  0.00  0.00    +0.000 A 
ENDBRANCH  10  11
ENDBRANCH   4   9
TORSDOF 3
ENDMDL
