MODEL 1
REMARK VINA RESULT:      -4.6      0.000      0.000
REMARK  Name = *****
REMARK  6 active torsions:
REMARK  status: ('A' for Active; 'I' for Inactive)
REMARK    1  A    between atoms: C_1  and  C_2
REMARK    2  A    between atoms: C_4  and  C_8
REMARK    3  A    between atoms: C_8  and  S_10
REMARK    4  A    between atoms: S_10  and  C_11
REMARK    5  A    between atoms: C_14  and  O_17
REMARK    6  A    between atoms: O_17  and  C_18
REMARK                            x       y       z     vdW  Elec       q    Type
REMARK                         _______ _______ _______ _____ _____    ______ ____
ROOT
ATOM      1  C   UNL     1     103.429 126.993  81.364  0.00  0.00    +0.000 C 
ATOM      2  O   UNL     1     103.316 127.517  80.261  0.00  0.00    +0.000 OA
ENDROOT
BRANCH   1   6
ATOM      3  C   UNL     1     104.390 122.755  83.997  0.00  0.00    +0.000 C 
ATOM      4  C   UNL     1     104.357 123.515  82.702  0.00  0.00    +0.000 A 
ATOM      5  C   UNL     1     103.909 124.847  82.674  0.00  0.00    +0.000 A 
ATOM      6  C   UNL     1     103.902 125.578  81.475  0.00  0.00    +0.000 A 
ATOM      7  C   UNL     1     104.358 124.955  80.302  0.00  0.00    +0.000 A 
ATOM      8  C   UNL     1     104.819 123.638  80.328  0.00  0.00    +0.000 A 
ATOM      9  C   UNL     1     104.824 122.923  81.524  0.00  0.00    +0.000 A 
ENDBRANCH   1   6
BRANCH   1  10
ATOM     10  S   UNL     1     103.050 127.863  82.852  0.00  0.00    +0.000 S 
BRANCH  10  11
ATOM     11  C   UNL     1     101.276 127.740  82.929  0.00  0.00    +0.000 A 
ATOM     12  C   UNL     1     100.503 128.773  83.467  0.00  0.00    +0.000 A 
ATOM     13  C   UNL     1      99.106 128.680  83.492  0.00  0.00    +0.000 A 
ATOM     14  C   UNL     1      98.469 127.555  82.968  0.00  0.00    +0.000 A 
ATOM     15  C   UNL     1      99.242 126.529  82.419  0.00  0.00    +0.000 A 
ATOM     16  C   UNL     1     100.636 126.620  82.395  0.00  0.00    +0.000 A 
BRANCH  14  17
ATOM     17  O   UNL     1      97.120 127.339  82.927  0.00  0.00    +0.000 OA
ATOM     18  C   UNL     1      96.612 126.295  83.749  0.00  0.00    +0.000 C 
ENDBRANCH  14  17
ENDBRANCH  10  11
ENDBRANCH   1  10
TORSDOF 4
ENDMDL
