REMARK  Name = *****
REMARK  3 active torsions:
REMARK  status: ('A' for Active; 'I' for Inactive)
REMARK    1  A    between atoms: C_3  and  C_8
REMARK    2  A    between atoms: C_8  and  O_10
REMARK    3  A    between atoms: O_10  and  C_11
REMARK                            x       y       z     vdW  Elec       q    Type
REMARK                         _______ _______ _______ _____ _____    ______ ____
ROOT
ATOM      1  C   UNL     1      -1.724   2.295   0.850  0.00  0.00    +0.000 C 
ATOM      2  O   UNL     1      -2.930   2.481   0.782  0.00  0.00    +0.000 OA
ENDROOT
BRANCH   1   5
ATOM      3  C   UNL     1      -1.271  -1.024  -0.892  0.00  0.00    +0.000 A 
ATOM      4  C   UNL     1      -1.851   0.109  -0.315  0.00  0.00    +0.000 A 
ATOM      5  C   UNL     1      -1.048   1.112   0.252  0.00  0.00    +0.000 A 
ATOM      6  C   UNL     1       0.344   0.972   0.230  0.00  0.00    +0.000 A 
ATOM      7  C   UNL     1       0.908  -0.161  -0.349  0.00  0.00    +0.000 A 
ATOM      8  C   UNL     1       0.116  -1.158  -0.907  0.00  0.00    +0.000 A 
ATOM      9  F   UNL     1       2.240  -0.293  -0.368  0.00  0.00    +0.000 F 
ENDBRANCH   1   5
BRANCH   1  10
ATOM     10  O   UNL     1      -0.795   3.094   1.488  0.00  0.00    +0.000 OA
BRANCH  10  11
ATOM     11  C   UNL     1      -1.365   4.268   1.996  0.00  0.00    +0.000 A 
ATOM     12  C   UNL     1      -1.387   5.438   1.226  0.00  0.00    +0.000 A 
ATOM     13  C   UNL     1      -1.936   6.597   1.786  0.00  0.00    +0.000 A 
ATOM     14  C   UNL     1      -2.437   6.577   3.095  0.00  0.00    +0.000 A 
ATOM     15  C   UNL     1      -2.389   5.406   3.854  0.00  0.00    +0.000 A 
ATOM     16  C   UNL     1      -1.844   4.247   3.308  0.00  0.00    +0.000 A 
ATOM     17 CL   UNL     1      -2.019   8.095   0.925  0.00  0.00    +0.000 Cl
ATOM     18 CL   UNL     1      -0.725   5.422  -0.374  0.00  0.00    +0.000 Cl
ENDBRANCH  10  11
ENDBRANCH   1  10
TORSDOF 3
