MODEL 1
REMARK VINA RESULT:      -4.1      0.000      0.000
REMARK  Name = *****
REMARK  4 active torsions:
REMARK  status: ('A' for Active; 'I' for Inactive)
REMARK    1  A    between atoms: N_2  and  C_3
REMARK    2  A    between atoms: C_4  and  C_5
REMARK    3  A    between atoms: C_5  and  C_6
REMARK    4  A    between atoms: C_6  and  C_7
REMARK                            x       y       z     vdW  Elec       q    Type
REMARK                         _______ _______ _______ _____ _____    ______ ____
ROOT
ATOM      1  C   UNL     1     103.120 126.732  81.311  0.00  0.00    +0.000 C 
ENDROOT
BRANCH   1   3
ATOM      2  C   UNL     1     104.297 124.711  80.410  0.00  0.00    +0.000 C 
ATOM      3  C   UNL     1     103.537 125.293  81.348  0.00  0.00    +0.000 C 
ATOM      4  F   UNL     1     103.127 124.549  82.402  0.00  0.00    +0.000 F 
ATOM      5  F   UNL     1     104.722 125.432  79.348  0.00  0.00    +0.000 F 
BRANCH   2   7
ATOM      6  C   UNL     1     104.952 122.202  80.608  0.00  0.00    +0.000 C 
ATOM      7  N   UNL     1     104.665 123.334  80.512  0.00  0.00    +0.000 NA
ENDBRANCH   2   7
ENDBRANCH   1   3
BRANCH   1   8
ATOM      8  C   UNL     1     102.781 127.244  82.713  0.00  0.00    +0.000 C 
BRANCH   8   9
ATOM      9  C   UNL     1     101.307 127.531  82.855  0.00  0.00    +0.000 A 
ATOM     10  C   UNL     1     100.356 126.624  82.366  0.00  0.00    +0.000 A 
ATOM     11  C   UNL     1      98.993 126.902  82.480  0.00  0.00    +0.000 A 
ATOM     12  C   UNL     1      98.569 128.088  83.077  0.00  0.00    +0.000 A 
ATOM     13  C   UNL     1      99.506 128.997  83.561  0.00  0.00    +0.000 A 
ATOM     14  C   UNL     1     100.870 128.722  83.449  0.00  0.00    +0.000 A 
ENDBRANCH   8   9
ENDBRANCH   1   8
TORSDOF 4
ENDMDL
