MODEL 1
REMARK VINA RESULT:      -4.6      0.000      0.000
REMARK  Name = *****
REMARK  2 active torsions:
REMARK  status: ('A' for Active; 'I' for Inactive)
REMARK    1  A    between atoms: C_6  and  N_7
REMARK    2  A    between atoms: C_8  and  C_9
REMARK                            x       y       z     vdW  Elec       q    Type
REMARK                         _______ _______ _______ _____ _____    ______ ____
ROOT
ATOM      1  N   UNL     1     102.992 125.334  81.258  0.00  0.00    +0.000 NA
ATOM      2  C   UNL     1     103.102 126.533  81.744  0.00  0.00    +0.000 C 
ENDROOT
BRANCH   2   3
ATOM      3  C   UNL     1     101.971 127.193  82.431  0.00  0.00    +0.000 A 
ATOM      4  C   UNL     1     102.146 128.370  83.173  0.00  0.00    +0.000 A 
ATOM      5  C   UNL     1     101.048 128.962  83.809  0.00  0.00    +0.000 A 
ATOM      6  C   UNL     1      99.781 128.386  83.709  0.00  0.00    +0.000 A 
ATOM      7  C   UNL     1      99.609 127.217  82.970  0.00  0.00    +0.000 A 
ATOM      8  C   UNL     1     100.694 126.619  82.332  0.00  0.00    +0.000 A 
ATOM      9 CL   UNL     1      98.047 126.509  82.848  0.00  0.00    +0.000 Cl
ATOM     10 CL   UNL     1     103.676 129.153  83.350  0.00  0.00    +0.000 Cl
ENDBRANCH   2   3
BRANCH   1  16
ATOM     11  C   UNL     1     104.506 123.484  80.820  0.00  0.00    +0.000 A 
ATOM     12  C   UNL     1     105.655 122.978  80.208  0.00  0.00    +0.000 A 
ATOM     13  C   UNL     1     106.433 123.817  79.418  0.00  0.00    +0.000 A 
ATOM     14  C   UNL     1     106.086 125.151  79.232  0.00  0.00    +0.000 A 
ATOM     15  C   UNL     1     104.937 125.652  79.845  0.00  0.00    +0.000 A 
ATOM     16  C   UNL     1     104.134 124.819  80.631  0.00  0.00    +0.000 A 
ATOM     17  F   UNL     1     107.536 123.334  78.831  0.00  0.00    +0.000 F 
ENDBRANCH   1  16
TORSDOF 2
ENDMDL
