MODEL 1
REMARK VINA RESULT:      -4.7      0.000      0.000
REMARK  Name = *****
REMARK  4 active torsions:
REMARK  status: ('A' for Active; 'I' for Inactive)
REMARK    1  A    between atoms: C_1  and  C_2
REMARK    2  A    between atoms: C_5  and  C_8
REMARK    3  A    between atoms: N_9  and  C_10
REMARK    4  A    between atoms: C_15  and  C_16
REMARK                            x       y       z     vdW  Elec       q    Type
REMARK                         _______ _______ _______ _____ _____    ______ ____
ROOT
ATOM      1  C   UNL     1     102.515 127.268  82.402  0.00  0.00    +0.000 C 
ATOM      2  N   UNL     1     101.543 127.231  83.258  0.00  0.00    +0.000 NA
ENDROOT
BRANCH   1   7
ATOM      3  C   UNL     1     105.117 122.488  80.464  0.00  0.00    +0.000 C 
ATOM      4  C   UNL     1     104.467 123.739  80.978  0.00  0.00    +0.000 A 
ATOM      5  C   UNL     1     104.064 123.826  82.316  0.00  0.00    +0.000 A 
ATOM      6  C   UNL     1     103.428 124.975  82.791  0.00  0.00    +0.000 A 
ATOM      7  C   UNL     1     103.184 126.042  81.924  0.00  0.00    +0.000 A 
ATOM      8  C   UNL     1     103.568 125.962  80.584  0.00  0.00    +0.000 A 
ATOM      9  C   UNL     1     104.204 124.810  80.113  0.00  0.00    +0.000 A 
ENDBRANCH   1   7
BRANCH   2  10
ATOM     10  C   UNL     1     101.005 128.476  83.625  0.00  0.00    +0.000 A 
ATOM     11  C   UNL     1     101.825 129.423  84.251  0.00  0.00    +0.000 A 
ATOM     12  C   UNL     1     101.320 130.669  84.623  0.00  0.00    +0.000 A 
ATOM     13  C   UNL     1      99.988 130.982  84.361  0.00  0.00    +0.000 A 
ATOM     14  C   UNL     1      99.166 130.054  83.720  0.00  0.00    +0.000 A 
ATOM     15  C   UNL     1      99.668 128.799  83.339  0.00  0.00    +0.000 A 
ATOM     16  C   UNL     1      98.774 127.814  82.640  0.00  0.00    +0.000 C 
ENDBRANCH   2  10
TORSDOF 2
ENDMDL
