MODEL 1
REMARK VINA RESULT:      -4.6      0.000      0.000
REMARK  Name = *****
REMARK  3 active torsions:
REMARK  status: ('A' for Active; 'I' for Inactive)
REMARK    1  A    between atoms: C_4  and  C_7
REMARK    2  A    between atoms: C_8  and  C_9
REMARK    3  A    between atoms: C_9  and  C_10
REMARK                            x       y       z     vdW  Elec       q    Type
REMARK                         _______ _______ _______ _____ _____    ______ ____
ROOT
ATOM      1  C   UNL     1     101.824 125.938  82.205  0.00  0.00    +0.000 C 
ATOM      2  C   UNL     1     102.975 125.654  82.835  0.00  0.00    +0.000 C 
ENDROOT
BRANCH   1   6
ATOM      3  C   UNL     1      99.031 128.954  83.384  0.00  0.00    +0.000 A 
ATOM      4  C   UNL     1     100.386 129.127  83.661  0.00  0.00    +0.000 A 
ATOM      5  C   UNL     1     101.307 128.146  83.287  0.00  0.00    +0.000 A 
ATOM      6  C   UNL     1     100.882 126.976  82.643  0.00  0.00    +0.000 A 
ATOM      7  C   UNL     1      99.519 126.822  82.356  0.00  0.00    +0.000 A 
ATOM      8  C   UNL     1      98.597 127.803  82.730  0.00  0.00    +0.000 A 
ENDBRANCH   1   6
BRANCH   2   9
ATOM      9  C   UNL     1     103.942 124.592  82.376  0.00  0.00    +0.000 C 
BRANCH   9  10
ATOM     10  C   UNL     1     104.023 124.379  80.851  0.00  0.00    +0.000 C 
ATOM     11  C   UNL     1     104.931 123.249  80.427  0.00  0.00    +0.000 C 
ATOM     12  C   UNL     1     105.869 123.710  79.583  0.00  0.00    +0.000 C 
ATOM     13  C   UNL     1     105.678 125.124  79.380  0.00  0.00    +0.000 C 
ATOM     14  C   UNL     1     104.623 125.541  80.094  0.00  0.00    +0.000 C 
ENDBRANCH   9  10
ENDBRANCH   2   9
TORSDOF 3
ENDMDL
