MODEL 1
REMARK VINA RESULT:      -4.9      0.000      0.000
REMARK  Name = *****
REMARK  3 active torsions:
REMARK  status: ('A' for Active; 'I' for Inactive)
REMARK    1  A    between atoms: C_1  and  C_2
REMARK    2  A    between atoms: C_9  and  C_11
REMARK    3  A    between atoms: C_11  and  C_12
REMARK                            x       y       z     vdW  Elec       q    Type
REMARK                         _______ _______ _______ _____ _____    ______ ____
ROOT
ATOM      1  C   UNL     1      88.530  62.881  85.310  0.00  0.00    +0.000 C 
ATOM      2  C   UNL     1      89.067  64.255  85.588  0.00  0.00    +0.000 A 
ATOM      3  C   UNL     1      88.247  65.230  86.189  0.00  0.00    +0.000 A 
ATOM      4  C   UNL     1      88.787  66.497  86.443  0.00  0.00    +0.000 A 
ATOM      5  C   UNL     1      90.106  66.746  86.101  0.00  0.00    +0.000 A 
ATOM      6  C   UNL     1      90.958  65.821  85.512  0.00  0.00    +0.000 A 
ATOM      7  C   UNL     1      90.403  64.558  85.262  0.00  0.00    +0.000 A 
ATOM      8  O   UNL     1      90.394  68.033  86.449  0.00  0.00    +0.000 OA
ATOM      9  C   UNL     1      89.218  68.498  86.980  0.00  0.00    +0.000 A 
ATOM     10  N   UNL     1      88.232  67.619  87.007  0.00  0.00    +0.000 NA
ENDROOT
BRANCH   9  11
ATOM     11  C   UNL     1      89.215  69.906  87.467  0.00  0.00    +0.000 C 
BRANCH  11  12
ATOM     12  C   UNL     1      87.884  70.604  87.290  0.00  0.00    +0.000 A 
ATOM     13  C   UNL     1      87.425  70.950  86.008  0.00  0.00    +0.000 A 
ATOM     14  C   UNL     1      86.206  71.611  85.849  0.00  0.00    +0.000 A 
ATOM     15  C   UNL     1      85.444  71.927  86.967  0.00  0.00    +0.000 A 
ATOM     16  C   UNL     1      85.879  71.596  88.244  0.00  0.00    +0.000 A 
ATOM     17  C   UNL     1      87.099  70.938  88.407  0.00  0.00    +0.000 A 
ATOM     18  F   UNL     1      84.275  72.561  86.811  0.00  0.00    +0.000 F 
ENDBRANCH  11  12
ENDBRANCH   9  11
TORSDOF 2
ENDMDL
