MODEL 1
REMARK VINA RESULT:      -4.2      0.000      0.000
REMARK  Name = *****
REMARK  3 active torsions:
REMARK  status: ('A' for Active; 'I' for Inactive)
REMARK    1  A    between atoms: C_4  and  C_6
REMARK    2  A    between atoms: C_6  and  C_7
REMARK    3  A    between atoms: C_7  and  C_8
REMARK                            x       y       z     vdW  Elec       q    Type
REMARK                         _______ _______ _______ _____ _____    ______ ____
ROOT
ATOM      1  C   UNL     1     102.834 127.912  82.939  0.00  0.00    +0.000 C 
ENDROOT
BRANCH   1   2
ATOM      2  C   UNL     1     101.326 127.826  82.942  0.00  0.00    +0.000 A 
ATOM      3  C   UNL     1     100.558 128.844  83.527  0.00  0.00    +0.000 A 
ATOM      4  C   UNL     1      99.166 128.753  83.547  0.00  0.00    +0.000 A 
ATOM      5  C   UNL     1      98.543 127.644  82.986  0.00  0.00    +0.000 A 
ATOM      6  C   UNL     1      99.286 126.623  82.408  0.00  0.00    +0.000 A 
ATOM      7  C   UNL     1     100.679 126.711  82.388  0.00  0.00    +0.000 A 
ATOM      8  F   UNL     1      97.207 127.557  83.007  0.00  0.00    +0.000 F 
ENDBRANCH   1   2
BRANCH   1   9
ATOM      9  C   UNL     1     103.401 127.764  81.523  0.00  0.00    +0.000 C 
BRANCH   9  13
ATOM     10  C   UNL     1     104.185 124.172  82.211  0.00  0.00    +0.000 C 
ATOM     11  C   UNL     1     104.214 124.172  80.690  0.00  0.00    +0.000 C 
ATOM     12  C   UNL     1     103.582 125.503  80.318  0.00  0.00    +0.000 C 
ATOM     13  C   UNL     1     104.190 126.466  81.338  0.00  0.00    +0.000 C 
ATOM     14  C   UNL     1     104.275 125.640  82.630  0.00  0.00    +0.000 C 
ENDBRANCH   9  13
ENDBRANCH   1   9
TORSDOF 3
ENDMDL
