MODEL 1
REMARK VINA RESULT:      -4.1      0.000      0.000
REMARK  Name = *****
REMARK  5 active torsions:
REMARK  status: ('A' for Active; 'I' for Inactive)
REMARK    1  A    between atoms: C_1  and  O_2
REMARK    2  A    between atoms: O_2  and  P_3
REMARK    3  A    between atoms: P_3  and  C_5
REMARK    4  A    between atoms: P_3  and  O_11
REMARK    5  A    between atoms: O_11  and  C_12
REMARK                            x       y       z     vdW  Elec       q    Type
REMARK                         _______ _______ _______ _____ _____    ______ ____
ROOT
ATOM      1  P   UNL     1      88.590  69.903  85.775  0.00  0.00    +0.000 P 
ATOM      2  S   UNL     1      90.054  70.869  84.902  0.00  0.00    +0.000 S 
ENDROOT
BRANCH   1   3
ATOM      3  C   UNL     1      87.255  70.747  86.626  0.00  0.00    +0.000 A 
ATOM      4  C   UNL     1      86.235  71.370  85.889  0.00  0.00    +0.000 A 
ATOM      5  C   UNL     1      85.191  72.034  86.534  0.00  0.00    +0.000 A 
ATOM      6  C   UNL     1      85.156  72.086  87.925  0.00  0.00    +0.000 A 
ATOM      7  C   UNL     1      86.163  71.478  88.672  0.00  0.00    +0.000 A 
ATOM      8  C   UNL     1      87.207  70.813  88.027  0.00  0.00    +0.000 A 
ENDBRANCH   1   3
BRANCH   1  10
ATOM      9  C   UNL     1      88.108  68.993  83.356  0.00  0.00    +0.000 C 
ATOM     10  O   UNL     1      87.795  68.929  84.735  0.00  0.00    +0.000 OA
ENDBRANCH   1  10
BRANCH   1  11
ATOM     11  O   UNL     1      89.090  68.770  86.820  0.00  0.00    +0.000 OA
BRANCH  11  12
ATOM     12  C   UNL     1      89.308  67.441  86.574  0.00  0.00    +0.000 A 
ATOM     13  C   UNL     1      90.381  66.959  85.823  0.00  0.00    +0.000 A 
ATOM     14  C   UNL     1      90.534  65.583  85.621  0.00  0.00    +0.000 A 
ATOM     15  C   UNL     1      89.620  64.683  86.164  0.00  0.00    +0.000 A 
ATOM     16  C   UNL     1      88.546  65.157  86.916  0.00  0.00    +0.000 A 
ATOM     17  C   UNL     1      88.392  66.530  87.119  0.00  0.00    +0.000 A 
ATOM     18 CL   UNL     1      87.051  67.066  88.070  0.00  0.00    +0.000 Cl
ENDBRANCH  11  12
ENDBRANCH   1  11
TORSDOF 4
ENDMDL
