REMARK  Name = *****
REMARK  4 active torsions:
REMARK  status: ('A' for Active; 'I' for Inactive)
REMARK    1  A    between atoms: C_1  and  C_2
REMARK    2  A    between atoms: C_2  and  C_4
REMARK    3  A    between atoms: C_4  and  C_13
REMARK    4  A    between atoms: C_5  and  C_6
REMARK                            x       y       z     vdW  Elec       q    Type
REMARK                         _______ _______ _______ _____ _____    ______ ____
ROOT
ATOM      1  C   UNL     1       3.198  -1.457  -0.157  0.00  0.00    +0.000 C 
ATOM      2  C   UNL     1       2.431  -2.492   0.239  0.00  0.00    +0.000 C 
ENDROOT
BRANCH   2   3
ATOM      3  C   UNL     1       0.974  -2.598   0.092  0.00  0.00    +0.000 A 
ATOM      4  C   UNL     1       0.362  -2.566  -1.167  0.00  0.00    +0.000 A 
ATOM      5  C   UNL     1      -1.026  -2.682  -1.281  0.00  0.00    +0.000 A 
ATOM      6  C   UNL     1      -1.803  -2.841  -0.136  0.00  0.00    +0.000 A 
ATOM      7  C   UNL     1      -1.204  -2.889   1.121  0.00  0.00    +0.000 A 
ATOM      8  C   UNL     1       0.184  -2.772   1.235  0.00  0.00    +0.000 A 
ATOM      9 CL   UNL     1      -3.512  -2.985  -0.274  0.00  0.00    +0.000 Cl
ENDBRANCH   2   3
BRANCH   1  10
ATOM     10  C   UNL     1       4.662  -1.482   0.032  0.00  0.00    +0.000 A 
ATOM     11  C   UNL     1       5.519  -1.211  -1.043  0.00  0.00    +0.000 A 
ATOM     12  C   UNL     1       6.905  -1.219  -0.868  0.00  0.00    +0.000 A 
ATOM     13  C   UNL     1       7.450  -1.493   0.384  0.00  0.00    +0.000 A 
ATOM     14  C   UNL     1       6.610  -1.757   1.464  0.00  0.00    +0.000 A 
ATOM     15  C   UNL     1       5.224  -1.751   1.290  0.00  0.00    +0.000 A 
ENDBRANCH   1  10
BRANCH   1  17
ATOM     16  C   UNL     1       1.905   0.744   0.069  0.00  0.00    +0.000 C 
ATOM     17  C   UNL     1       2.564  -0.277  -0.821  0.00  0.00    +0.000 C 
ATOM     18  O   UNL     1       2.603  -0.148  -2.044  0.00  0.00    +0.000 OA
ENDBRANCH   1  17
TORSDOF 3
