MODEL 1
REMARK VINA RESULT:      -4.7      0.000      0.000
REMARK  Name = *****
REMARK  6 active torsions:
REMARK  status: ('A' for Active; 'I' for Inactive)
REMARK    1  A    between atoms: C_1  and  C_2
REMARK    2  A    between atoms: C_3  and  C_7
REMARK    3  A    between atoms: N_8  and  C_9
REMARK    4  A    between atoms: C_10  and  C_17
REMARK    5  A    between atoms: C_12  and  C_16
REMARK    6  A    between atoms: C_14  and  C_15
REMARK                            x       y       z     vdW  Elec       q    Type
REMARK                         _______ _______ _______ _____ _____    ______ ____
ROOT
ATOM      1  C   UNL     1     103.430 126.011  82.264  0.00  0.00    +0.000 A 
ATOM      2  C   UNL     1     103.745 126.011  80.891  0.00  0.00    +0.000 A 
ATOM      3  C   UNL     1     104.253 124.845  80.296  0.00  0.00    +0.000 A 
ATOM      4  C   UNL     1     104.465 123.687  81.051  0.00  0.00    +0.000 A 
ATOM      5  C   UNL     1     104.196 123.710  82.424  0.00  0.00    +0.000 A 
ATOM      6  C   UNL     1     103.686 124.864  83.039  0.00  0.00    +0.000 A 
ATOM      7  C   UNL     1     103.402 124.855  84.516  0.00  0.00    +0.000 C 
ATOM      8  C   UNL     1     105.045 122.460  80.411  0.00  0.00    +0.000 C 
ATOM      9  C   UNL     1     103.524 127.237  80.049  0.00  0.00    +0.000 C 
ENDROOT
BRANCH   1  11
ATOM     10  C   UNL     1     101.605 127.252  82.871  0.00  0.00    +0.000 C 
ATOM     11  N   UNL     1     102.899 127.166  82.868  0.00  0.00    +0.000 NA
BRANCH  10  14
ATOM     12  C   UNL     1      98.500 127.992  82.714  0.00  0.00    +0.000 C 
ATOM     13  C   UNL     1      99.582 128.744  83.419  0.00  0.00    +0.000 A 
ATOM     14  C   UNL     1     100.923 128.383  83.460  0.00  0.00    +0.000 A 
ATOM     15  S   UNL     1     101.863 129.496  84.363  0.00  0.00    +0.000 S 
ATOM     16  C   UNL     1     100.504 130.465  84.713  0.00  0.00    +0.000 A 
ATOM     17  C   UNL     1      99.356 129.957  84.154  0.00  0.00    +0.000 A 
ENDBRANCH  10  14
ENDBRANCH   1  11
TORSDOF 2
ENDMDL
