MODEL 1
REMARK VINA RESULT:      -4.4      0.000      0.000
REMARK  Name = *****
REMARK  5 active torsions:
REMARK  status: ('A' for Active; 'I' for Inactive)
REMARK    1  A    between atoms: C_1  and  O_2
REMARK    2  A    between atoms: O_2  and  C_3
REMARK    3  A    between atoms: C_6  and  C_9
REMARK    4  A    between atoms: C_10  and  C_11
REMARK    5  A    between atoms: C_14  and  N_17
REMARK                            x       y       z     vdW  Elec       q    Type
REMARK                         _______ _______ _______ _____ _____    ______ ____
ROOT
ATOM      1  C   UNL     1     103.238 126.435  81.833  0.00  0.00    +0.000 C 
ATOM      2  C   UNL     1     103.256 125.449  80.921  0.00  0.00    +0.000 C 
ENDROOT
BRANCH   1   6
ATOM      3  C   UNL     1      99.704 128.191  83.526  0.00  0.00    +0.000 A 
ATOM      4  C   UNL     1      99.606 127.010  82.794  0.00  0.00    +0.000 A 
ATOM      5  C   UNL     1     100.751 126.437  82.224  0.00  0.00    +0.000 A 
ATOM      6  C   UNL     1     102.006 127.043  82.364  0.00  0.00    +0.000 A 
ATOM      7  C   UNL     1     102.097 128.225  83.107  0.00  0.00    +0.000 A 
ATOM      8  C   UNL     1     100.954 128.794  83.677  0.00  0.00    +0.000 A 
BRANCH   3  10
ATOM      9  C   UNL     1      99.001 130.014  84.881  0.00  0.00    +0.000 C 
ATOM     10  O   UNL     1      98.673 128.845  84.141  0.00  0.00    +0.000 OA
ENDBRANCH   3  10
ENDBRANCH   1   6
BRANCH   2  11
ATOM     11  C   UNL     1     104.471 124.794  80.415  0.00  0.00    +0.000 A 
ATOM     12  C   UNL     1     105.458 125.493  79.703  0.00  0.00    +0.000 A 
ATOM     13  C   UNL     1     106.634 124.856  79.295  0.00  0.00    +0.000 A 
ATOM     14  C   UNL     1     106.823 123.510  79.616  0.00  0.00    +0.000 A 
ATOM     15  C   UNL     1     105.860 122.794  80.332  0.00  0.00    +0.000 A 
ATOM     16  C   UNL     1     104.690 123.443  80.730  0.00  0.00    +0.000 A 
BRANCH  14  17
ATOM     17  N   UNL     1     108.001 122.876  79.230  0.00  0.00    +0.000 NA
ATOM     18  N   UNL     1     108.920 122.378  78.929  0.00  0.00    +0.000 NA
ENDBRANCH  14  17
ENDBRANCH   2  11
TORSDOF 4
ENDMDL
