MODEL 1
REMARK VINA RESULT:      -4.4      0.000      0.000
REMARK  Name = *****
REMARK  3 active torsions:
REMARK  status: ('A' for Active; 'I' for Inactive)
REMARK    1  A    between atoms: C_4  and  C_16
REMARK    2  A    between atoms: C_6  and  C_8
REMARK    3  A    between atoms: C_9  and  C_10
REMARK                            x       y       z     vdW  Elec       q    Type
REMARK                         _______ _______ _______ _____ _____    ______ ____
ROOT
ATOM      1  C   UNL     1     105.174 124.706  83.901  0.00  0.00    +0.000 C 
ATOM      2  C   UNL     1     105.241 124.702  82.562  0.00  0.00    +0.000 C 
ATOM      3  C   UNL     1     106.392 125.274  81.779  0.00  0.00    +0.000 C 
ATOM      4  C   UNL     1     105.888 126.313  80.765  0.00  0.00    +0.000 C 
ATOM      5  O   UNL     1     104.841 125.776  79.923  0.00  0.00    +0.000 OA
ATOM      6  C   UNL     1     103.730 125.155  80.594  0.00  0.00    +0.000 C 
ATOM      7  C   UNL     1     104.169 124.137  81.668  0.00  0.00    +0.000 C 
ENDROOT
BRANCH   6   8
ATOM      8  C   UNL     1     102.726 126.176  81.073  0.00  0.00    +0.000 C 
ATOM      9  C   UNL     1     101.919 125.989  82.131  0.00  0.00    +0.000 C 
BRANCH   9  10
ATOM     10  C   UNL     1     100.926 126.962  82.601  0.00  0.00    +0.000 A 
ATOM     11  C   UNL     1     101.372 128.114  83.264  0.00  0.00    +0.000 A 
ATOM     12  C   UNL     1     100.463 129.079  83.707  0.00  0.00    +0.000 A 
ATOM     13  C   UNL     1      99.099 128.907  83.483  0.00  0.00    +0.000 A 
ATOM     14  C   UNL     1      98.643 127.774  82.810  0.00  0.00    +0.000 A 
ATOM     15  C   UNL     1      99.553 126.810  82.367  0.00  0.00    +0.000 A 
ENDBRANCH   9  10
ENDBRANCH   6   8
BRANCH   4  16
ATOM     16  C   UNL     1     105.497 127.660  81.395  0.00  0.00    +0.000 C 
ATOM     17 CL   UNL     1     104.863 128.807  80.183  0.00  0.00    +0.000 Cl
ENDBRANCH   4  16
TORSDOF 3
ENDMDL
