REMARK  Name = *****
REMARK  3 active torsions:
REMARK  status: ('A' for Active; 'I' for Inactive)
REMARK    1  A    between atoms: C_2  and  C_3
REMARK    2  A    between atoms: C_4  and  C_8
REMARK    3  A    between atoms: C_9  and  C_10
REMARK                            x       y       z     vdW  Elec       q    Type
REMARK                         _______ _______ _______ _____ _____    ______ ____
ROOT
ATOM      1  C   UNL     1       3.633   0.199  -0.091  0.00  0.00    +0.000 A 
ATOM      2  C   UNL     1       4.425   1.330  -0.082  0.00  0.00    +0.000 A 
ATOM      3  C   UNL     1       5.817   1.013  -0.096  0.00  0.00    +0.000 A 
ATOM      4  C   UNL     1       6.040  -0.346  -0.115  0.00  0.00    +0.000 A 
ATOM      5  S   UNL     1       4.578  -1.232  -0.117  0.00  0.00    +0.000 S 
ENDROOT
BRANCH   1   7
ATOM      6  C   UNL     1       1.004   0.141  -0.073  0.00  0.00    +0.000 C 
ATOM      7  C   UNL     1       2.205   0.167  -0.081  0.00  0.00    +0.000 C 
ENDBRANCH   1   7
BRANCH   2   8
ATOM      8  C   UNL     1       3.918   2.669  -0.060  0.00  0.00    +0.000 C 
ATOM      9  C   UNL     1       3.491   3.792  -0.041  0.00  0.00    +0.000 C 
BRANCH   9  10
ATOM     10  C   UNL     1       2.959   5.157  -0.017  0.00  0.00    +0.000 C 
ATOM     11  C   UNL     1       3.873   6.158  -0.723  0.00  0.00    +0.000 C 
ATOM     12  C   UNL     1       3.584   7.510  -0.068  0.00  0.00    +0.000 C 
ATOM     13  C   UNL     1       2.721   7.218   1.158  0.00  0.00    +0.000 C 
ATOM     14  C   UNL     1       2.861   5.722   1.395  0.00  0.00    +0.000 C 
ENDBRANCH   9  10
ENDBRANCH   2   8
TORSDOF 3
