MODEL 1
REMARK VINA RESULT:      -4.5      0.000      0.000
REMARK  Name = *****
REMARK  4 active torsions:
REMARK  status: ('A' for Active; 'I' for Inactive)
REMARK    1  A    between atoms: C_5  and  C_7
REMARK    2  A    between atoms: C_7  and  O_9
REMARK    3  A    between atoms: O_9  and  C_10
REMARK    4  A    between atoms: C_10  and  C_11
REMARK                            x       y       z     vdW  Elec       q    Type
REMARK                         _______ _______ _______ _____ _____    ______ ____
ROOT
ATOM      1  C   UNL     1     104.747 124.336  80.243  0.00  0.00    +0.000 C 
ATOM      2  O   UNL     1     105.786 124.640  79.678  0.00  0.00    +0.000 OA
ENDROOT
BRANCH   1   7
ATOM      3  C   UNL     1     104.530 120.796  81.507  0.00  0.00    +0.000 A 
ATOM      4  C   UNL     1     104.461 120.978  82.888  0.00  0.00    +0.000 A 
ATOM      5  C   UNL     1     104.479 122.266  83.420  0.00  0.00    +0.000 A 
ATOM      6  C   UNL     1     104.572 123.372  82.574  0.00  0.00    +0.000 A 
ATOM      7  C   UNL     1     104.653 123.203  81.190  0.00  0.00    +0.000 A 
ATOM      8  C   UNL     1     104.622 121.903  80.659  0.00  0.00    +0.000 A 
ATOM      9  F   UNL     1     104.559 124.589  83.136  0.00  0.00    +0.000 F 
ENDBRANCH   1   7
BRANCH   1  10
ATOM     10  O   UNL     1     103.569 124.993  80.151  0.00  0.00    +0.000 OA
BRANCH  10  11
ATOM     11  C   UNL     1     103.636 126.418  80.280  0.00  0.00    +0.000 C 
BRANCH  11  12
ATOM     12  C   UNL     1     102.865 126.849  81.502  0.00  0.00    +0.000 A 
ATOM     13  C   UNL     1     103.199 128.035  82.171  0.00  0.00    +0.000 A 
ATOM     14  C   UNL     1     102.499 128.423  83.315  0.00  0.00    +0.000 A 
ATOM     15  C   UNL     1     101.468 127.622  83.801  0.00  0.00    +0.000 A 
ATOM     16  C   UNL     1     101.134 126.434  83.155  0.00  0.00    +0.000 A 
ATOM     17  C   UNL     1     101.834 126.046  82.010  0.00  0.00    +0.000 A 
ATOM     18 CL   UNL     1     100.609 128.100  85.213  0.00  0.00    +0.000 Cl
ENDBRANCH  11  12
ENDBRANCH  10  11
ENDBRANCH   1  10
TORSDOF 4
ENDMDL
