REMARK  Name = *****
REMARK  3 active torsions:
REMARK  status: ('A' for Active; 'I' for Inactive)
REMARK    1  A    between atoms: C_1  and  C_2
REMARK    2  A    between atoms: C_3  and  N_9
REMARK    3  A    between atoms: C_10  and  C_11
REMARK                            x       y       z     vdW  Elec       q    Type
REMARK                         _______ _______ _______ _____ _____    ______ ____
ROOT
ATOM      1  C   UNL     1      -2.583   1.760  -0.902  0.00  0.00    +0.000 C 
ATOM      2  C   UNL     1      -1.653   0.679  -0.427  0.00  0.00    +0.000 A 
ATOM      3  C   UNL     1      -2.122  -0.628  -0.200  0.00  0.00    +0.000 A 
ATOM      4  C   UNL     1      -1.227  -1.622   0.217  0.00  0.00    +0.000 A 
ATOM      5  C   UNL     1       0.117  -1.321   0.445  0.00  0.00    +0.000 A 
ATOM      6  C   UNL     1       0.573  -0.021   0.245  0.00  0.00    +0.000 A 
ATOM      7  C   UNL     1      -0.301   0.976  -0.188  0.00  0.00    +0.000 A 
ATOM      8 CL   UNL     1       2.227   0.356   0.530  0.00  0.00    +0.000 Cl
ENDROOT
BRANCH   3   9
ATOM      9  N   UNL     1      -3.463  -0.970  -0.425  0.00  0.00    +0.000 NA
ATOM     10  C   UNL     1      -4.252  -0.860   0.599  0.00  0.00    +0.000 C 
BRANCH  10  11
ATOM     11  C   UNL     1      -5.653  -1.181   0.483  0.00  0.00    +0.000 A 
ATOM     12  C   UNL     1      -6.352  -1.632  -0.619  0.00  0.00    +0.000 A 
ATOM     13  C   UNL     1      -7.733  -1.837  -0.336  0.00  0.00    +0.000 A 
ATOM     14  C   UNL     1      -8.040  -1.534   0.972  0.00  0.00    +0.000 A 
ATOM     15  S   UNL     1      -6.667  -1.008   1.848  0.00  0.00    +0.000 S 
ENDBRANCH  10  11
ENDBRANCH   3   9
TORSDOF 2
