MODEL 1
REMARK VINA RESULT:      -4.3      0.000      0.000
REMARK  Name = *****
REMARK  3 active torsions:
REMARK  status: ('A' for Active; 'I' for Inactive)
REMARK    1  A    between atoms: C_4  and  O_7
REMARK    2  A    between atoms: O_7  and  C_8
REMARK    3  A    between atoms: C_8  and  C_10
REMARK                            x       y       z     vdW  Elec       q    Type
REMARK                         _______ _______ _______ _____ _____    ______ ____
ROOT
ATOM      1  C   UNL     1     101.861 125.940  82.818  0.00  0.00    +0.000 C 
ATOM      2  O   UNL     1     102.315 125.317  83.764  0.00  0.00    +0.000 OA
ENDROOT
BRANCH   1   3
ATOM      3  C   UNL     1     100.919 127.065  82.993  0.00  0.00    +0.000 A 
ATOM      4  C   UNL     1     101.300 128.271  83.585  0.00  0.00    +0.000 A 
ATOM      5  C   UNL     1     100.369 129.299  83.734  0.00  0.00    +0.000 A 
ATOM      6  C   UNL     1      99.053 129.127  83.304  0.00  0.00    +0.000 A 
ATOM      7  C   UNL     1      98.662 127.918  82.727  0.00  0.00    +0.000 A 
ATOM      8  C   UNL     1      99.591 126.888  82.576  0.00  0.00    +0.000 A 
ATOM      9 CL   UNL     1     100.825 130.793  84.462  0.00  0.00    +0.000 Cl
ATOM     10  F   UNL     1     102.551 128.444  84.041  0.00  0.00    +0.000 F 
ENDBRANCH   1   3
BRANCH   1  11
ATOM     11  O   UNL     1     102.043 125.693  81.472  0.00  0.00    +0.000 OA
BRANCH  11  15
ATOM     12  C   UNL     1     105.877 126.240  79.908  0.00  0.00    +0.000 A 
ATOM     13  C   UNL     1     105.317 124.960  79.903  0.00  0.00    +0.000 A 
ATOM     14  C   UNL     1     104.043 124.752  80.430  0.00  0.00    +0.000 A 
ATOM     15  C   UNL     1     103.348 125.829  80.977  0.00  0.00    +0.000 A 
ATOM     16  C   UNL     1     103.889 127.114  80.967  0.00  0.00    +0.000 A 
ATOM     17  C   UNL     1     105.162 127.317  80.437  0.00  0.00    +0.000 A 
ENDBRANCH  11  15
ENDBRANCH   1  11
TORSDOF 3
ENDMDL
