MODEL 1
REMARK VINA RESULT:      -4.5      0.000      0.000
REMARK  Name = *****
REMARK  3 active torsions:
REMARK  status: ('A' for Active; 'I' for Inactive)
REMARK    1  A    between atoms: N_2  and  C_3
REMARK    2  A    between atoms: C_6  and  C_9
REMARK    3  A    between atoms: C_10  and  C_11
REMARK                            x       y       z     vdW  Elec       q    Type
REMARK                         _______ _______ _______ _____ _____    ______ ____
ROOT
ATOM      1  C   UNL     1     102.886 125.884  81.905  0.00  0.00    +0.000 C 
ATOM      2  C   UNL     1     101.909 125.963  82.824  0.00  0.00    +0.000 C 
ENDROOT
BRANCH   2   3
ATOM      3  C   UNL     1     101.061 127.149  83.014  0.00  0.00    +0.000 A 
ATOM      4  C   UNL     1      99.707 127.167  82.646  0.00  0.00    +0.000 A 
ATOM      5  C   UNL     1      98.928 128.303  82.872  0.00  0.00    +0.000 A 
ATOM      6  C   UNL     1      99.496 129.417  83.475  0.00  0.00    +0.000 A 
ATOM      7  C   UNL     1     100.830 129.416  83.862  0.00  0.00    +0.000 A 
ATOM      8  C   UNL     1     101.612 128.279  83.637  0.00  0.00    +0.000 A 
ATOM      9  F   UNL     1      98.746 130.505  83.693  0.00  0.00    +0.000 F 
ENDBRANCH   2   3
BRANCH   1  13
ATOM     10  C   UNL     1     105.428 122.494  81.481  0.00  0.00    +0.000 A 
ATOM     11  C   UNL     1     105.141 123.260  80.355  0.00  0.00    +0.000 A 
ATOM     12  C   UNL     1     104.303 124.370  80.483  0.00  0.00    +0.000 A 
ATOM     13  C   UNL     1     103.746 124.705  81.727  0.00  0.00    +0.000 A 
ATOM     14  C   UNL     1     104.065 123.925  82.850  0.00  0.00    +0.000 A 
ATOM     15  C   UNL     1     104.902 122.813  82.730  0.00  0.00    +0.000 A 
BRANCH  10  17
ATOM     16  C   UNL     1     106.967 120.461  81.255  0.00  0.00    +0.000 C 
ATOM     17  N   UNL     1     106.262 121.391  81.359  0.00  0.00    +0.000 NA
ENDBRANCH  10  17
ENDBRANCH   1  13
TORSDOF 3
ENDMDL
