MODEL 1
REMARK VINA RESULT:      -4.3      0.000      0.000
REMARK  Name = *****
REMARK  7 active torsions:
REMARK  status: ('A' for Active; 'I' for Inactive)
REMARK    1  A    between atoms: C_1  and  N_2
REMARK    2  A    between atoms: N_2  and  C_3
REMARK    3  A    between atoms: N_2  and  C_4
REMARK    4  A    between atoms: C_9  and  C_10
REMARK    5  A    between atoms: C_10  and  P_11
REMARK    6  A    between atoms: P_11  and  C_12
REMARK    7  A    between atoms: P_11  and  C_13
REMARK                            x       y       z     vdW  Elec       q    Type
REMARK                         _______ _______ _______ _____ _____    ______ ____
ROOT
ATOM      1  C   UNL     1      89.646  69.548  84.831  0.00  0.00    +0.000 A 
ATOM      2  C   UNL     1      89.845  68.402  84.037  0.00  0.00    +0.000 A 
ATOM      3  C   UNL     1      89.970  67.134  84.608  0.00  0.00    +0.000 A 
ATOM      4  C   UNL     1      89.911  66.989  85.987  0.00  0.00    +0.000 A 
ATOM      5  C   UNL     1      89.718  68.110  86.793  0.00  0.00    +0.000 A 
ATOM      6  C   UNL     1      89.563  69.398  86.235  0.00  0.00    +0.000 A 
ENDROOT
BRANCH   1   8
ATOM      7  C   UNL     1      88.558  70.953  83.208  0.00  0.00    +0.000 C 
ATOM      8  N   UNL     1      89.576  70.838  84.254  0.00  0.00    +0.000 N 
ATOM      9  C   UNL     1      90.902  71.317  83.859  0.00  0.00    +0.000 C 
ENDBRANCH   1   8
BRANCH   6  10
ATOM     10  C   UNL     1      89.372  70.587  87.150  0.00  0.00    +0.000 C 
BRANCH  10  11
ATOM     11  P   UNL     1      88.004  70.134  88.289  0.00  0.00    +0.000 P 
ATOM     12  C   UNL     1      88.504  71.113  89.758  0.00  0.00    +0.000 C 
BRANCH  11  13
ATOM     13  C   UNL     1      86.584  71.085  87.668  0.00  0.00    +0.000 A 
ATOM     14  C   UNL     1      85.583  71.610  88.496  0.00  0.00    +0.000 A 
ATOM     15  C   UNL     1      84.497  72.306  87.956  0.00  0.00    +0.000 A 
ATOM     16  C   UNL     1      84.400  72.490  86.579  0.00  0.00    +0.000 A 
ATOM     17  C   UNL     1      85.389  71.981  85.742  0.00  0.00    +0.000 A 
ATOM     18  C   UNL     1      86.473  71.283  86.284  0.00  0.00    +0.000 A 
ENDBRANCH  11  13
ENDBRANCH  10  11
ENDBRANCH   6  10
TORSDOF 4
ENDMDL
