MODEL 1
REMARK VINA RESULT:      -4.3      0.000      0.000
REMARK  Name = *****
REMARK  4 active torsions:
REMARK  status: ('A' for Active; 'I' for Inactive)
REMARK    1  A    between atoms: C_1  and  C_2
REMARK    2  A    between atoms: C_4  and  C_8
REMARK    3  A    between atoms: C_8  and  C_9
REMARK    4  A    between atoms: C_9  and  C_10
REMARK                            x       y       z     vdW  Elec       q    Type
REMARK                         _______ _______ _______ _____ _____    ______ ____
ROOT
ATOM      1  C   UNL     1     103.642 128.765  82.920  0.00  0.00    +0.000 C 
ENDROOT
BRANCH   1   5
ATOM      2  C   UNL     1     104.191 124.058  82.170  0.00  0.00    +0.000 C 
ATOM      3  C   UNL     1     104.183 125.498  81.745  0.00  0.00    +0.000 C 
ATOM      4  C   UNL     1     104.647 126.479  82.541  0.00  0.00    +0.000 C 
ATOM      5  C   UNL     1     104.695 127.939  82.151  0.00  0.00    +0.000 C 
ATOM      6  C   UNL     1     104.531 128.114  80.629  0.00  0.00    +0.000 C 
ATOM      7  C   UNL     1     103.401 127.254  80.074  0.00  0.00    +0.000 C 
ATOM      8  C   UNL     1     103.637 125.771  80.365  0.00  0.00    +0.000 C 
ENDBRANCH   1   5
BRANCH   1   9
ATOM      9  C   UNL     1     102.774 127.915  83.857  0.00  0.00    +0.000 C 
BRANCH   9  10
ATOM     10  C   UNL     1     101.331 127.899  83.414  0.00  0.00    +0.000 A 
ATOM     11  C   UNL     1     100.799 126.780  82.760  0.00  0.00    +0.000 A 
ATOM     12  C   UNL     1      99.460 126.761  82.368  0.00  0.00    +0.000 A 
ATOM     13  C   UNL     1      98.639 127.856  82.631  0.00  0.00    +0.000 A 
ATOM     14  C   UNL     1      99.157 128.971  83.287  0.00  0.00    +0.000 A 
ATOM     15  C   UNL     1     100.496 128.992  83.680  0.00  0.00    +0.000 A 
ENDBRANCH   9  10
ENDBRANCH   1   9
TORSDOF 3
ENDMDL
