MODEL 1
REMARK VINA RESULT:      -3.8      0.000      0.000
REMARK  Name = *****
REMARK  4 active torsions:
REMARK  status: ('A' for Active; 'I' for Inactive)
REMARK    1  A    between atoms: C_1  and  O_2
REMARK    2  A    between atoms: O_2  and  C_3
REMARK    3  A    between atoms: C_3  and  C_13
REMARK    4  A    between atoms: N_4  and  C_5
REMARK                            x       y       z     vdW  Elec       q    Type
REMARK                         _______ _______ _______ _____ _____    ______ ____
ROOT
ATOM      1  C   UNL     1      89.350  65.310  86.296  0.00  0.00    +0.000 C 
ATOM      2  N   UNL     1      88.392  65.492  87.154  0.00  0.00    +0.000 NA
ENDROOT
BRANCH   2   3
ATOM      3  C   UNL     1      87.553  64.393  87.453  0.00  0.00    +0.000 A 
ATOM      4  C   UNL     1      87.799  63.572  88.570  0.00  0.00    +0.000 A 
ATOM      5  C   UNL     1      86.956  62.498  88.877  0.00  0.00    +0.000 A 
ATOM      6  C   UNL     1      85.846  62.230  88.079  0.00  0.00    +0.000 A 
ATOM      7  C   UNL     1      85.577  63.037  86.975  0.00  0.00    +0.000 A 
ATOM      8  C   UNL     1      86.420  64.112  86.668  0.00  0.00    +0.000 A 
ATOM      9 CL   UNL     1      86.020  65.080  85.289  0.00  0.00    +0.000 Cl
ATOM     10 CL   UNL     1      89.156  63.854  89.608  0.00  0.00    +0.000 Cl
ENDBRANCH   2   3
BRANCH   1  11
ATOM     11  C   UNL     1      90.303  66.465  85.924  0.00  0.00    +0.000 C 
ATOM     12  C   UNL     1      89.868  67.836  86.463  0.00  0.00    +0.000 C 
ATOM     13  C   UNL     1      88.738  68.452  85.641  0.00  0.00    +0.000 C 
ATOM     14  C   UNL     1      89.066  68.403  84.155  0.00  0.00    +0.000 C 
ATOM     15  C   UNL     1      89.494  67.002  83.747  0.00  0.00    +0.000 C 
ATOM     16  O   UNL     1      90.604  66.565  84.530  0.00  0.00    +0.000 OA
ENDBRANCH   1  11
BRANCH   1  18
ATOM     17  C   UNL     1      90.818  63.489  85.600  0.00  0.00    +0.000 C 
ATOM     18  O   UNL     1      89.526  64.102  85.710  0.00  0.00    +0.000 OA
ENDBRANCH   1  18
TORSDOF 3
ENDMDL
