MODEL 1
REMARK VINA RESULT:      -4.4      0.000      0.000
REMARK  Name = *****
REMARK  2 active torsions:
REMARK  status: ('A' for Active; 'I' for Inactive)
REMARK    1  A    between atoms: C_4  and  C_7
REMARK    2  A    between atoms: N_8  and  C_9
REMARK                            x       y       z     vdW  Elec       q    Type
REMARK                         _______ _______ _______ _____ _____    ______ ____
ROOT
ATOM      1  C   UNL     1     101.717 125.946  82.605  0.00  0.00    +0.000 C 
ATOM      2  N   UNL     1     102.993 125.969  82.833  0.00  0.00    +0.000 NA
ENDROOT
BRANCH   2   3
ATOM      3  C   UNL     1     103.703 124.791  82.506  0.00  0.00    +0.000 A 
ATOM      4  C   UNL     1     104.044 123.846  83.492  0.00  0.00    +0.000 A 
ATOM      5  C   UNL     1     104.724 122.667  83.162  0.00  0.00    +0.000 A 
ATOM      6  C   UNL     1     105.067 122.405  81.837  0.00  0.00    +0.000 A 
ATOM      7  C   UNL     1     104.732 123.321  80.843  0.00  0.00    +0.000 A 
ATOM      8  C   UNL     1     104.053 124.501  81.173  0.00  0.00    +0.000 A 
ATOM      9 CL   UNL     1     103.670 125.594  79.886  0.00  0.00    +0.000 Cl
ATOM     10 CL   UNL     1     103.651 124.104  85.159  0.00  0.00    +0.000 Cl
ENDBRANCH   2   3
BRANCH   1  14
ATOM     11  C   UNL     1      99.249 129.313  83.469  0.00  0.00    +0.000 A 
ATOM     12  C   UNL     1      98.696 128.196  82.840  0.00  0.00    +0.000 A 
ATOM     13  C   UNL     1      99.496 127.090  82.554  0.00  0.00    +0.000 A 
ATOM     14  C   UNL     1     100.850 127.104  82.898  0.00  0.00    +0.000 A 
ATOM     15  C   UNL     1     101.406 128.222  83.527  0.00  0.00    +0.000 A 
ATOM     16  C   UNL     1     100.601 129.326  83.813  0.00  0.00    +0.000 A 
ENDBRANCH   1  14
TORSDOF 2
ENDMDL
