MODEL 1
REMARK VINA RESULT:      -3.8      0.000      0.000
REMARK  Name = *****
REMARK  3 active torsions:
REMARK  status: ('A' for Active; 'I' for Inactive)
REMARK    1  A    between atoms: C_7  and  O_8
REMARK    2  A    between atoms: O_8  and  S_9
REMARK    3  A    between atoms: S_9  and  C_10
REMARK                            x       y       z     vdW  Elec       q    Type
REMARK                         _______ _______ _______ _____ _____    ______ ____
ROOT
ATOM      1  O   UNL     1      94.892 116.631  80.436  0.00  0.00    +0.000 OA
ENDROOT
BRANCH   1   8
ATOM      2  C   UNL     1      97.951 116.557  78.659  0.00  0.00    +0.000 C 
ATOM      3  C   UNL     1      97.454 115.492  79.645  0.00  0.00    +0.000 C 
ATOM      4  C   UNL     1      96.131 115.022  79.010  0.00  0.00    +0.000 C 
ATOM      5  C   UNL     1      96.465 115.089  77.520  0.00  0.00    +0.000 C 
ATOM      6  C   UNL     1      96.854 116.567  77.582  0.00  0.00    +0.000 C 
ATOM      7  C   UNL     1      95.590 117.215  78.178  0.00  0.00    +0.000 C 
ATOM      8  C   UNL     1      95.048 116.119  79.119  0.00  0.00    +0.000 C 
ENDBRANCH   1   8
BRANCH   1   9
ATOM      9  S   UNL     1      94.933 118.296  80.548  0.00  0.00    +0.000 S 
BRANCH   9  10
ATOM     10  C   UNL     1      96.453 118.469  81.463  0.00  0.00    +0.000 A 
ATOM     11  C   UNL     1      96.685 117.719  82.621  0.00  0.00    +0.000 A 
ATOM     12  C   UNL     1      97.882 117.860  83.325  0.00  0.00    +0.000 A 
ATOM     13  C   UNL     1      98.857 118.748  82.872  0.00  0.00    +0.000 A 
ATOM     14  C   UNL     1      98.636 119.493  81.714  0.00  0.00    +0.000 A 
ATOM     15  C   UNL     1      97.439 119.352  81.010  0.00  0.00    +0.000 A 
ENDBRANCH   9  10
ENDBRANCH   1   9
TORSDOF 3
ENDMDL
