MODEL 1
REMARK VINA RESULT:      -4.5      0.000      0.000
REMARK  Name = *****
REMARK  4 active torsions:
REMARK  status: ('A' for Active; 'I' for Inactive)
REMARK    1  A    between atoms: C_2  and  C_3
REMARK    2  A    between atoms: C_6  and  C_9
REMARK    3  A    between atoms: C_9  and  S_10
REMARK    4  A    between atoms: S_10  and  C_11
REMARK                            x       y       z     vdW  Elec       q    Type
REMARK                         _______ _______ _______ _____ _____    ______ ____
ROOT
ATOM      1  C   UNL     1     104.698 123.309  81.147  0.00  0.00    +0.000 A 
ATOM      2  C   UNL     1     104.665 124.169  80.043  0.00  0.00    +0.000 A 
ATOM      3  C   UNL     1     104.264 125.501  80.186  0.00  0.00    +0.000 A 
ATOM      4  C   UNL     1     103.883 126.001  81.437  0.00  0.00    +0.000 A 
ATOM      5  C   UNL     1     103.892 125.135  82.539  0.00  0.00    +0.000 A 
ATOM      6  C   UNL     1     104.293 123.802  82.393  0.00  0.00    +0.000 A 
ENDROOT
BRANCH   1   8
ATOM      7  C   UNL     1     104.574 120.866  81.607  0.00  0.00    +0.000 C 
ATOM      8  C   UNL     1     105.094 121.909  80.944  0.00  0.00    +0.000 C 
ENDBRANCH   1   8
BRANCH   4   9
ATOM      9  C   UNL     1     103.441 127.433  81.591  0.00  0.00    +0.000 C 
BRANCH   9  10
ATOM     10  S   UNL     1     102.960 127.804  83.309  0.00  0.00    +0.000 S 
BRANCH  10  11
ATOM     11  C   UNL     1     101.189 127.822  83.112  0.00  0.00    +0.000 A 
ATOM     12  C   UNL     1     100.521 126.754  82.507  0.00  0.00    +0.000 A 
ATOM     13  C   UNL     1      99.132 126.782  82.365  0.00  0.00    +0.000 A 
ATOM     14  C   UNL     1      98.405 127.875  82.834  0.00  0.00    +0.000 A 
ATOM     15  C   UNL     1      99.065 128.937  83.451  0.00  0.00    +0.000 A 
ATOM     16  C   UNL     1     100.454 128.909  83.592  0.00  0.00    +0.000 A 
ENDBRANCH  10  11
ENDBRANCH   9  10
ENDBRANCH   4   9
TORSDOF 4
ENDMDL
