MODEL 1
REMARK VINA RESULT:      -4.9      0.000      0.000
REMARK  Name = *****
REMARK  3 active torsions:
REMARK  status: ('A' for Active; 'I' for Inactive)
REMARK    1  A    between atoms: C_1  and  C_2
REMARK    2  A    between atoms: C_5  and  C_8
REMARK    3  A    between atoms: C_9  and  C_10
REMARK                            x       y       z     vdW  Elec       q    Type
REMARK                         _______ _______ _______ _____ _____    ______ ____
ROOT
ATOM      1  C   UNL     1     102.594 125.940  82.111  0.00  0.00    +0.000 C 
ATOM      2  C   UNL     1     103.302 126.027  80.972  0.00  0.00    +0.000 C 
ATOM      3  F   UNL     1     103.188 127.136  80.203  0.00  0.00    +0.000 F 
ENDROOT
BRANCH   1   8
ATOM      4  C   UNL     1      98.948 129.928  84.196  0.00  0.00    +0.000 C 
ATOM      5  C   UNL     1      99.882 128.906  83.621  0.00  0.00    +0.000 A 
ATOM      6  C   UNL     1      99.384 127.767  82.979  0.00  0.00    +0.000 A 
ATOM      7  C   UNL     1     100.258 126.800  82.470  0.00  0.00    +0.000 A 
ATOM      8  C   UNL     1     101.643 126.953  82.593  0.00  0.00    +0.000 A 
ATOM      9  C   UNL     1     102.137 128.078  83.264  0.00  0.00    +0.000 A 
ATOM     10  C   UNL     1     101.265 129.047  83.773  0.00  0.00    +0.000 A 
ENDBRANCH   1   8
BRANCH   2  11
ATOM     11  C   UNL     1     104.268 125.015  80.511  0.00  0.00    +0.000 A 
ATOM     12  C   UNL     1     105.212 125.265  79.503  0.00  0.00    +0.000 A 
ATOM     13  C   UNL     1     106.120 124.276  79.112  0.00  0.00    +0.000 A 
ATOM     14  C   UNL     1     106.102 123.027  79.729  0.00  0.00    +0.000 A 
ATOM     15  C   UNL     1     105.182 122.767  80.741  0.00  0.00    +0.000 A 
ATOM     16  C   UNL     1     104.275 123.757  81.132  0.00  0.00    +0.000 A 
ENDBRANCH   2  11
TORSDOF 2
ENDMDL
