MODEL 1
REMARK VINA RESULT:      -5.2      0.000      0.000
REMARK  Name = *****
REMARK  2 active torsions:
REMARK  status: ('A' for Active; 'I' for Inactive)
REMARK    1  A    between atoms: C_4  and  C_7
REMARK    2  A    between atoms: C_8  and  C_9
REMARK                            x       y       z     vdW  Elec       q    Type
REMARK                         _______ _______ _______ _____ _____    ______ ____
ROOT
ATOM      1  C   UNL     1     101.308 127.102  82.685  0.00  0.00    +0.000 A 
ATOM      2  C   UNL     1     101.791 128.241  83.346  0.00  0.00    +0.000 A 
ATOM      3  C   UNL     1     100.903 129.216  83.801  0.00  0.00    +0.000 A 
ATOM      4  C   UNL     1      99.536 129.086  83.598  0.00  0.00    +0.000 A 
ATOM      5  C   UNL     1      99.047 127.976  82.930  0.00  0.00    +0.000 A 
ATOM      6  C   UNL     1      99.923 126.995  82.473  0.00  0.00    +0.000 A 
ATOM      7  F   UNL     1      99.424 125.933  81.821  0.00  0.00    +0.000 F 
ATOM      8  F   UNL     1      97.729 127.846  82.719  0.00  0.00    +0.000 F 
ATOM      9  F   UNL     1      98.697 130.033  84.039  0.00  0.00    +0.000 F 
ATOM     10  F   UNL     1     101.388 130.292  84.435  0.00  0.00    +0.000 F 
ENDROOT
BRANCH   1  12
ATOM     11  C   UNL     1     103.174 126.254  81.256  0.00  0.00    +0.000 C 
ATOM     12  C   UNL     1     102.200 126.053  82.159  0.00  0.00    +0.000 C 
BRANCH  11  16
ATOM     13  C   UNL     1     105.781 123.129  79.932  0.00  0.00    +0.000 A 
ATOM     14  C   UNL     1     105.782 124.351  79.264  0.00  0.00    +0.000 A 
ATOM     15  C   UNL     1     104.931 125.378  79.681  0.00  0.00    +0.000 A 
ATOM     16  C   UNL     1     104.062 125.189  80.763  0.00  0.00    +0.000 A 
ATOM     17  C   UNL     1     104.083 123.960  81.437  0.00  0.00    +0.000 A 
ATOM     18  C   UNL     1     104.933 122.933  81.020  0.00  0.00    +0.000 A 
ENDBRANCH  11  16
ENDBRANCH   1  12
TORSDOF 2
ENDMDL
