REMARK  Name = *****
REMARK  4 active torsions:
REMARK  status: ('A' for Active; 'I' for Inactive)
REMARK    1  A    between atoms: C_4  and  C_7
REMARK    2  A    between atoms: C_7  and  S_8
REMARK    3  A    between atoms: S_8  and  C_9
REMARK    4  A    between atoms: C_9  and  C_11
REMARK                            x       y       z     vdW  Elec       q    Type
REMARK                         _______ _______ _______ _____ _____    ______ ____
ROOT
ATOM      1  C   UNL     1      -5.364  -0.883  -0.467  0.00  0.00    +0.000 C 
ATOM      2  O   UNL     1      -5.700   0.285  -0.327  0.00  0.00    +0.000 OA
ENDROOT
BRANCH   1   3
ATOM      3  C   UNL     1      -6.359  -1.949  -0.722  0.00  0.00    +0.000 A 
ATOM      4  C   UNL     1      -6.265  -3.215  -0.126  0.00  0.00    +0.000 A 
ATOM      5  C   UNL     1      -7.242  -4.183  -0.378  0.00  0.00    +0.000 A 
ATOM      6  C   UNL     1      -8.317  -3.892  -1.219  0.00  0.00    +0.000 A 
ATOM      7  C   UNL     1      -8.416  -2.633  -1.809  0.00  0.00    +0.000 A 
ATOM      8  C   UNL     1      -7.441  -1.668  -1.557  0.00  0.00    +0.000 A 
ATOM      9  F   UNL     1      -7.558  -0.479  -2.165  0.00  0.00    +0.000 F 
ENDBRANCH   1   3
BRANCH   1  10
ATOM     10  S   UNL     1      -3.678  -1.378  -0.378  0.00  0.00    +0.000 S 
BRANCH  10  11
ATOM     11  C   UNL     1      -2.915   0.256  -0.167  0.00  0.00    +0.000 C 
BRANCH  11  15
ATOM     12  C   UNL     1       1.373  -0.082   0.173  0.00  0.00    +0.000 A 
ATOM     13  C   UNL     1       0.783   0.071  -1.081  0.00  0.00    +0.000 A 
ATOM     14  C   UNL     1      -0.604   0.182  -1.192  0.00  0.00    +0.000 A 
ATOM     15  C   UNL     1      -1.415   0.148  -0.047  0.00  0.00    +0.000 A 
ATOM     16  C   UNL     1      -0.809  -0.014   1.208  0.00  0.00    +0.000 A 
ATOM     17  C   UNL     1       0.578  -0.125   1.316  0.00  0.00    +0.000 A 
ENDBRANCH  11  15
ENDBRANCH  10  11
ENDBRANCH   1  10
TORSDOF 4
