MODEL 1
REMARK VINA RESULT:      -5.1      0.000      0.000
REMARK  Name = *****
REMARK  5 active torsions:
REMARK  status: ('A' for Active; 'I' for Inactive)
REMARK    1  A    between atoms: C_1  and  C_2
REMARK    2  A    between atoms: C_4  and  C_8
REMARK    3  A    between atoms: C_8  and  C_9
REMARK    4  A    between atoms: C_9  and  C_10
REMARK    5  A    between atoms: C_10  and  C_12
REMARK                            x       y       z     vdW  Elec       q    Type
REMARK                         _______ _______ _______ _____ _____    ______ ____
ROOT
ATOM      1  C   UNL     1     101.688 126.876  82.029  0.00  0.00    +0.000 C 
ATOM      2  F   UNL     1     102.275 128.067  82.369  0.00  0.00    +0.000 F 
ENDROOT
BRANCH   1   6
ATOM      3  C   UNL     1     104.468 123.131  83.975  0.00  0.00    +0.000 C 
ATOM      4  C   UNL     1     104.064 123.976  82.803  0.00  0.00    +0.000 A 
ATOM      5  C   UNL     1     103.110 124.992  82.949  0.00  0.00    +0.000 A 
ATOM      6  C   UNL     1     102.713 125.775  81.855  0.00  0.00    +0.000 A 
ATOM      7  C   UNL     1     103.284 125.522  80.598  0.00  0.00    +0.000 A 
ATOM      8  C   UNL     1     104.220 124.500  80.441  0.00  0.00    +0.000 A 
ATOM      9  C   UNL     1     104.603 123.727  81.537  0.00  0.00    +0.000 A 
ENDBRANCH   1   6
BRANCH   1  10
ATOM     10  C   UNL     1     100.688 126.537  83.124  0.00  0.00    +0.000 C 
BRANCH  10  11
ATOM     11  C   UNL     1      99.432 127.346  82.907  0.00  0.00    +0.000 C 
ATOM     12  O   UNL     1      98.628 127.018  82.035  0.00  0.00    +0.000 OA
BRANCH  11  13
ATOM     13  C   UNL     1      99.150 128.542  83.758  0.00  0.00    +0.000 A 
ATOM     14  C   UNL     1      99.558 129.835  83.407  0.00  0.00    +0.000 A 
ATOM     15  C   UNL     1      99.271 130.914  84.248  0.00  0.00    +0.000 A 
ATOM     16  C   UNL     1      98.573 130.712  85.436  0.00  0.00    +0.000 A 
ATOM     17  C   UNL     1      98.152 129.431  85.787  0.00  0.00    +0.000 A 
ATOM     18  C   UNL     1      98.437 128.350  84.951  0.00  0.00    +0.000 A 
ENDBRANCH  11  13
ENDBRANCH  10  11
ENDBRANCH   1  10
TORSDOF 4
ENDMDL
