REMARK  Name = *****
REMARK  4 active torsions:
REMARK  status: ('A' for Active; 'I' for Inactive)
REMARK    1  A    between atoms: C_4  and  C_7
REMARK    2  A    between atoms: C_7  and  C_8
REMARK    3  A    between atoms: C_8  and  O_9
REMARK    4  A    between atoms: O_9  and  C_10
REMARK                            x       y       z     vdW  Elec       q    Type
REMARK                         _______ _______ _______ _____ _____    ______ ____
ROOT
ATOM      1  C   UNL     1      -5.809  -1.757  -0.541  0.00  0.00    +0.000 A 
ATOM      2  C   UNL     1      -5.459  -3.110  -0.487  0.00  0.00    +0.000 A 
ATOM      3  C   UNL     1      -6.438  -4.100  -0.547  0.00  0.00    +0.000 A 
ATOM      4  C   UNL     1      -7.777  -3.759  -0.663  0.00  0.00    +0.000 A 
ATOM      5  C   UNL     1      -8.143  -2.424  -0.720  0.00  0.00    +0.000 A 
ATOM      6  C   UNL     1      -7.167  -1.433  -0.661  0.00  0.00    +0.000 A 
ATOM      7  F   UNL     1      -7.543  -0.146  -0.718  0.00  0.00    +0.000 F 
ATOM      8  F   UNL     1      -9.435  -2.086  -0.832  0.00  0.00    +0.000 F 
ATOM      9  F   UNL     1      -8.713  -4.716  -0.719  0.00  0.00    +0.000 F 
ATOM     10  F   UNL     1      -6.082  -5.392  -0.493  0.00  0.00    +0.000 F 
ATOM     11  F   UNL     1      -4.180  -3.496  -0.379  0.00  0.00    +0.000 F 
ENDROOT
BRANCH   1  12
ATOM     12  O   UNL     1      -4.960  -0.685  -0.494  0.00  0.00    +0.000 OA
BRANCH  12  13
ATOM     13  C   UNL     1      -3.566  -0.940  -0.305  0.00  0.00    +0.000 C 
BRANCH  13  14
ATOM     14  C   UNL     1      -2.847   0.407  -0.229  0.00  0.00    +0.000 C 
BRANCH  14  18
ATOM     15  C   UNL     1       1.382  -0.109   0.417  0.00  0.00    +0.000 A 
ATOM     16  C   UNL     1       0.877  -0.052  -0.881  0.00  0.00    +0.000 A 
ATOM     17  C   UNL     1      -0.492   0.123  -1.092  0.00  0.00    +0.000 A 
ATOM     18  C   UNL     1      -1.367   0.246  -0.004  0.00  0.00    +0.000 A 
ATOM     19  C   UNL     1      -0.850   0.183   1.297  0.00  0.00    +0.000 A 
ATOM     20  C   UNL     1       0.519   0.008   1.505  0.00  0.00    +0.000 A 
ENDBRANCH  14  18
ENDBRANCH  13  14
ENDBRANCH  12  13
ENDBRANCH   1  12
TORSDOF 4
