MODEL 1
REMARK VINA RESULT:      -4.3      0.000      0.000
REMARK  Name = *****
REMARK  3 active torsions:
REMARK  status: ('A' for Active; 'I' for Inactive)
REMARK    1  A    between atoms: C_4  and  C_7
REMARK    2  A    between atoms: C_7  and  O_8
REMARK    3  A    between atoms: O_8  and  C_9
REMARK                            x       y       z     vdW  Elec       q    Type
REMARK                         _______ _______ _______ _____ _____    ______ ____
ROOT
ATOM      1  O   UNL     1     101.348 125.907  82.277  0.00  0.00    +0.000 OA
ENDROOT
BRANCH   1   2
ATOM      2  C   UNL     1     100.642 127.007  82.679  0.00  0.00    +0.000 A 
ATOM      3  C   UNL     1      99.269 127.208  82.512  0.00  0.00    +0.000 A 
ATOM      4  C   UNL     1      98.673 128.387  82.971  0.00  0.00    +0.000 A 
ATOM      5  C   UNL     1      99.451 129.357  83.592  0.00  0.00    +0.000 A 
ATOM      6  C   UNL     1     100.817 129.172  83.763  0.00  0.00    +0.000 A 
ATOM      7  C   UNL     1     101.411 127.996  83.303  0.00  0.00    +0.000 A 
ATOM      8  F   UNL     1      98.876 130.484  84.031  0.00  0.00    +0.000 F 
ENDBRANCH   1   2
BRANCH   1   9
ATOM      9  C   UNL     1     102.559 125.618  82.979  0.00  0.00    +0.000 C 
BRANCH   9  13
ATOM     10  C   UNL     1     105.258 123.513  80.340  0.00  0.00    +0.000 A 
ATOM     11  C   UNL     1     105.048 123.040  81.633  0.00  0.00    +0.000 A 
ATOM     12  C   UNL     1     104.187 123.720  82.496  0.00  0.00    +0.000 A 
ATOM     13  C   UNL     1     103.535 124.890  82.080  0.00  0.00    +0.000 A 
ATOM     14  C   UNL     1     103.745 125.347  80.769  0.00  0.00    +0.000 A 
ATOM     15  C   UNL     1     104.606 124.664  79.907  0.00  0.00    +0.000 A 
ENDBRANCH   9  13
ENDBRANCH   1   9
TORSDOF 3
ENDMDL
