MODEL 1
REMARK VINA RESULT:      -4.5      0.000      0.000
REMARK  Name = *****
REMARK  5 active torsions:
REMARK  status: ('A' for Active; 'I' for Inactive)
REMARK    1  A    between atoms: C_1  and  O_2
REMARK    2  A    between atoms: O_2  and  C_3
REMARK    3  A    between atoms: C_3  and  C_4
REMARK    4  A    between atoms: C_3  and  C_10
REMARK    5  A    between atoms: C_10  and  C_11
REMARK                            x       y       z     vdW  Elec       q    Type
REMARK                         _______ _______ _______ _____ _____    ______ ____
ROOT
ATOM      1  C   UNL     1      87.780  70.916  85.894  0.00  0.00    +0.000 C 
ENDROOT
BRANCH   1   2
ATOM      2  C   UNL     1      86.455  71.450  86.433  0.00  0.00    +0.000 A 
ATOM      3  C   UNL     1      85.437  71.960  85.613  0.00  0.00    +0.000 A 
ATOM      4  C   UNL     1      84.253  72.453  86.167  0.00  0.00    +0.000 A 
ATOM      5  C   UNL     1      84.071  72.451  87.548  0.00  0.00    +0.000 A 
ATOM      6  C   UNL     1      85.072  71.957  88.379  0.00  0.00    +0.000 A 
ATOM      7  C   UNL     1      86.255  71.463  87.827  0.00  0.00    +0.000 A 
ENDBRANCH   1   2
BRANCH   1   9
ATOM      8  C   UNL     1      88.205  70.338  83.573  0.00  0.00    +0.000 C 
ATOM      9  O   UNL     1      87.539  70.017  84.788  0.00  0.00    +0.000 OA
ENDBRANCH   1   9
BRANCH   1  10
ATOM     10  C   UNL     1      88.790  70.343  86.935  0.00  0.00    +0.000 C 
ATOM     11  F   UNL     1      90.032  70.867  86.679  0.00  0.00    +0.000 F 
BRANCH  10  12
ATOM     12  C   UNL     1      88.839  68.824  86.924  0.00  0.00    +0.000 A 
ATOM     13  C   UNL     1      89.927  68.160  86.335  0.00  0.00    +0.000 A 
ATOM     14  C   UNL     1      89.983  66.765  86.315  0.00  0.00    +0.000 A 
ATOM     15  C   UNL     1      88.952  66.018  86.881  0.00  0.00    +0.000 A 
ATOM     16  C   UNL     1      87.866  66.665  87.467  0.00  0.00    +0.000 A 
ATOM     17  C   UNL     1      87.809  68.060  87.490  0.00  0.00    +0.000 A 
ENDBRANCH  10  12
ENDBRANCH   1  10
TORSDOF 4
ENDMDL
