REMARK  Name = *****
REMARK  4 active torsions:
REMARK  status: ('A' for Active; 'I' for Inactive)
REMARK    1  A    between atoms: C_4  and  C_7
REMARK    2  A    between atoms: C_7  and  O_9
REMARK    3  A    between atoms: O_9  and  C_10
REMARK    4  A    between atoms: C_10  and  C_11
REMARK                            x       y       z     vdW  Elec       q    Type
REMARK                         _______ _______ _______ _____ _____    ______ ____
ROOT
ATOM      1  C   UNL     1      -5.109  -0.349  -0.394  0.00  0.00    +0.000 C 
ENDROOT
BRANCH   1   2
ATOM      2  C   UNL     1      -5.509  -0.933  -1.721  0.00  0.00    +0.000 A 
ATOM      3  C   UNL     1      -5.476  -0.155  -2.889  0.00  0.00    +0.000 A 
ATOM      4  C   UNL     1      -5.822  -0.722  -4.115  0.00  0.00    +0.000 A 
ATOM      5  C   UNL     1      -6.196  -2.058  -4.198  0.00  0.00    +0.000 A 
ATOM      6  C   UNL     1      -6.224  -2.836  -3.051  0.00  0.00    +0.000 A 
ATOM      7  C   UNL     1      -5.880  -2.279  -1.823  0.00  0.00    +0.000 A 
ATOM      8  F   UNL     1      -5.907  -3.044  -0.722  0.00  0.00    +0.000 F 
ATOM      9  F   UNL     1      -6.581  -4.127  -3.123  0.00  0.00    +0.000 F 
ATOM     10  F   UNL     1      -6.526  -2.591  -5.382  0.00  0.00    +0.000 F 
ATOM     11  F   UNL     1      -5.787   0.036  -5.219  0.00  0.00    +0.000 F 
ENDBRANCH   1   2
BRANCH   1  12
ATOM     12  O   UNL     1      -3.702  -0.533  -0.198  0.00  0.00    +0.000 OA
BRANCH  12  13
ATOM     13  C   UNL     1      -2.917   0.524  -0.516  0.00  0.00    +0.000 C 
ATOM     14  O   UNL     1      -3.304   1.593  -0.963  0.00  0.00    +0.000 OA
BRANCH  13  18
ATOM     15  C   UNL     1       1.237  -0.290   0.167  0.00  0.00    +0.000 A 
ATOM     16  C   UNL     1       0.293  -1.269   0.473  0.00  0.00    +0.000 A 
ATOM     17  C   UNL     1      -1.066  -1.023   0.259  0.00  0.00    +0.000 A 
ATOM     18  C   UNL     1      -1.484   0.208  -0.265  0.00  0.00    +0.000 A 
ATOM     19  C   UNL     1      -0.528   1.186  -0.570  0.00  0.00    +0.000 A 
ATOM     20  C   UNL     1       0.829   0.937  -0.355  0.00  0.00    +0.000 A 
ENDBRANCH  13  18
ENDBRANCH  12  13
ENDBRANCH   1  12
TORSDOF 4
