REMARK  Name = *****
REMARK  4 active torsions:
REMARK  status: ('A' for Active; 'I' for Inactive)
REMARK    1  A    between atoms: C_1  and  S_2
REMARK    2  A    between atoms: S_2  and  N_3
REMARK    3  A    between atoms: S_2  and  C_16
REMARK    4  A    between atoms: N_3  and  C_4
REMARK                            x       y       z     vdW  Elec       q    Type
REMARK                         _______ _______ _______ _____ _____    ______ ____
ROOT
ATOM      1  C   UNL     1       2.675   1.824   1.976  0.00  0.00    +0.000 A 
ATOM      2  C   UNL     1       1.803   2.751   1.395  0.00  0.00    +0.000 A 
ATOM      3  C   UNL     1       1.466   3.932   2.056  0.00  0.00    +0.000 A 
ATOM      4  C   UNL     1       1.986   4.211   3.308  0.00  0.00    +0.000 A 
ATOM      5  C   UNL     1       2.843   3.306   3.909  0.00  0.00    +0.000 A 
ATOM      6  C   UNL     1       3.183   2.126   3.254  0.00  0.00    +0.000 A 
ATOM      7  F   UNL     1       4.021   1.277   3.874  0.00  0.00    +0.000 F 
ATOM      8  F   UNL     1       3.346   3.568   5.123  0.00  0.00    +0.000 F 
ATOM      9  F   UNL     1       1.655   5.347   3.937  0.00  0.00    +0.000 F 
ATOM     10  F   UNL     1       0.624   4.798   1.475  0.00  0.00    +0.000 F 
ATOM     11  F   UNL     1       1.240   2.530   0.200  0.00  0.00    +0.000 F 
ENDROOT
BRANCH   1  12
ATOM     12  N   UNL     1       3.101   0.582   1.394  0.00  0.00    +0.000 NA
BRANCH  12  14
ATOM     13  C   UNL     1       1.269  -0.398  -0.322  0.00  0.00    +0.000 C 
ATOM     14  S   UNL     1       2.967   0.014  -0.031  0.00  0.00    +0.000 S 
ATOM     15  O   UNL     1       3.714  -1.147  -0.483  0.00  0.00    +0.000 OA
BRANCH  14  16
ATOM     16  C   UNL     1       3.445   1.295  -1.175  0.00  0.00    +0.000 A 
ATOM     17  C   UNL     1       4.717   1.859  -1.016  0.00  0.00    +0.000 A 
ATOM     18  C   UNL     1       5.141   2.867  -1.879  0.00  0.00    +0.000 A 
ATOM     19  C   UNL     1       4.300   3.306  -2.902  0.00  0.00    +0.000 A 
ATOM     20  C   UNL     1       3.037   2.733  -3.067  0.00  0.00    +0.000 A 
ATOM     21  C   UNL     1       2.605   1.721  -2.207  0.00  0.00    +0.000 A 
ENDBRANCH  14  16
ENDBRANCH  12  14
ENDBRANCH   1  12
TORSDOF 3
