REMARK  Name = *****
REMARK  4 active torsions:
REMARK  status: ('A' for Active; 'I' for Inactive)
REMARK    1  A    between atoms: C_4  and  C_6
REMARK    2  A    between atoms: C_6  and  N_8
REMARK    3  A    between atoms: N_8  and  C_9
REMARK    4  A    between atoms: C_9  and  C_10
REMARK                            x       y       z     vdW  Elec       q    Type
REMARK                         _______ _______ _______ _____ _____    ______ ____
ROOT
ATOM      1  N   UNL     1      -1.652   3.293   0.144  0.00  0.00    +0.000 N 
ATOM      2  H   UNL     1      -0.681   3.452   0.159  0.00  0.00    +0.000 HD
ENDROOT
BRANCH   1   3
ATOM      3  C   UNL     1      -2.070   1.983   0.012  0.00  0.00    +0.000 C 
ATOM      4  S   UNL     1      -3.679   1.505  -0.026  0.00  0.00    +0.000 S 
BRANCH   3   8
ATOM      5  C   UNL     1       0.505  -0.749   0.548  0.00  0.00    +0.000 C 
ATOM      6  C   UNL     1       1.153   0.078  -0.560  0.00  0.00    +0.000 C 
ATOM      7  C   UNL     1       0.234   1.248  -0.678  0.00  0.00    +0.000 C 
ATOM      8  C   UNL     1      -0.927   1.030  -0.043  0.00  0.00    +0.000 C 
ATOM      9  C   UNL     1      -0.965  -0.330   0.582  0.00  0.00    +0.000 C 
ENDBRANCH   3   8
ENDBRANCH   1   3
BRANCH   1  10
ATOM     10  C   UNL     1      -2.512   4.460   0.264  0.00  0.00    +0.000 C 
BRANCH  10  11
ATOM     11  C   UNL     1      -1.691   5.722   0.250  0.00  0.00    +0.000 A 
ATOM     12  C   UNL     1      -1.309   6.305  -0.966  0.00  0.00    +0.000 A 
ATOM     13  C   UNL     1      -0.520   7.456  -0.982  0.00  0.00    +0.000 A 
ATOM     14  C   UNL     1      -0.100   8.030   0.216  0.00  0.00    +0.000 A 
ATOM     15  C   UNL     1      -0.464   7.453   1.431  0.00  0.00    +0.000 A 
ATOM     16  C   UNL     1      -1.253   6.301   1.449  0.00  0.00    +0.000 A 
ENDBRANCH  10  11
ENDBRANCH   1  10
TORSDOF 4
