MODEL 1
REMARK VINA RESULT:      -4.1      0.000      0.000
REMARK  Name = *****
REMARK  5 active torsions:
REMARK  status: ('A' for Active; 'I' for Inactive)
REMARK    1  A    between atoms: C_4  and  C_7
REMARK    2  A    between atoms: C_7  and  S_8
REMARK    3  A    between atoms: S_8  and  C_9
REMARK    4  A    between atoms: C_14  and  C_15
REMARK    5  A    between atoms: C_15  and  C_16
REMARK                            x       y       z     vdW  Elec       q    Type
REMARK                         _______ _______ _______ _____ _____    ______ ____
ROOT
ATOM      1  C   UNL     1     101.210 128.793  84.532  0.00  0.00    +0.000 A 
ATOM      2  C   UNL     1     101.240 130.048  85.162  0.00  0.00    +0.000 A 
ATOM      3  C   UNL     1     100.346 131.057  84.803  0.00  0.00    +0.000 A 
ATOM      4  C   UNL     1      99.404 130.824  83.809  0.00  0.00    +0.000 A 
ATOM      5  C   UNL     1      99.354 129.581  83.181  0.00  0.00    +0.000 A 
ATOM      6  C   UNL     1     100.243 128.545  83.538  0.00  0.00    +0.000 A 
ENDROOT
BRANCH   1   7
ATOM      7  S   UNL     1     102.383 127.582  85.138  0.00  0.00    +0.000 S 
BRANCH   7   8
ATOM      8  C   UNL     1     103.821 127.931  84.068  0.00  0.00    +0.000 C 
BRANCH   8  12
ATOM      9  C   UNL     1     103.482 125.948  80.248  0.00  0.00    +0.000 A 
ATOM     10  C   UNL     1     103.510 125.197  81.420  0.00  0.00    +0.000 A 
ATOM     11  C   UNL     1     103.624 125.834  82.658  0.00  0.00    +0.000 A 
ATOM     12  C   UNL     1     103.716 127.233  82.733  0.00  0.00    +0.000 A 
ATOM     13  C   UNL     1     103.690 127.977  81.545  0.00  0.00    +0.000 A 
ATOM     14  C   UNL     1     103.570 127.337  80.310  0.00  0.00    +0.000 A 
ENDBRANCH   8  12
ENDBRANCH   7   8
ENDBRANCH   1   7
BRANCH   6  15
ATOM     15  C   UNL     1     100.106 127.223  82.814  0.00  0.00    +0.000 C 
BRANCH  15  16
ATOM     16  C   UNL     1      98.701 126.807  82.678  0.00  0.00    +0.000 C 
ATOM     17  N   UNL     1      97.597 126.467  82.568  0.00  0.00    +0.000 NA
ENDBRANCH  15  16
ENDBRANCH   6  15
TORSDOF 5
ENDMDL
