MODEL 1
REMARK VINA RESULT:      -4.3      0.000      0.000
REMARK  Name = *****
REMARK  4 active torsions:
REMARK  status: ('A' for Active; 'I' for Inactive)
REMARK    1  A    between atoms: C_1  and  P_2
REMARK    2  A    between atoms: P_2  and  C_3
REMARK    3  A    between atoms: P_2  and  O_9
REMARK    4  A    between atoms: O_9  and  C_10
REMARK                            x       y       z     vdW  Elec       q    Type
REMARK                         _______ _______ _______ _____ _____    ______ ____
ROOT
ATOM      1  C   UNL     1      89.726  70.819  85.473  0.00  0.00    +0.000 C 
ATOM      2  P   UNL     1      88.937  70.108  86.975  0.00  0.00    +0.000 P 
ENDROOT
BRANCH   2   3
ATOM      3  C   UNL     1      87.318  70.951  86.905  0.00  0.00    +0.000 A 
ATOM      4  C   UNL     1      86.731  71.364  85.700  0.00  0.00    +0.000 A 
ATOM      5  C   UNL     1      85.491  72.009  85.693  0.00  0.00    +0.000 A 
ATOM      6  C   UNL     1      84.823  72.251  86.891  0.00  0.00    +0.000 A 
ATOM      7  C   UNL     1      85.394  71.848  88.096  0.00  0.00    +0.000 A 
ATOM      8  C   UNL     1      86.633  71.203  88.103  0.00  0.00    +0.000 A 
ENDBRANCH   2   3
BRANCH   2   9
ATOM      9  O   UNL     1      88.549  68.661  86.369  0.00  0.00    +0.000 OA
BRANCH   9  10
ATOM     10  C   UNL     1      88.202  67.527  87.062  0.00  0.00    +0.000 A 
ATOM     11  C   UNL     1      87.116  67.448  87.941  0.00  0.00    +0.000 A 
ATOM     12  C   UNL     1      86.831  66.253  88.609  0.00  0.00    +0.000 A 
ATOM     13  C   UNL     1      87.628  65.129  88.407  0.00  0.00    +0.000 A 
ATOM     14  C   UNL     1      88.713  65.195  87.534  0.00  0.00    +0.000 A 
ATOM     15  C   UNL     1      88.998  66.389  86.865  0.00  0.00    +0.000 A 
ATOM     16 BR   UNL     1      90.487  66.411  85.683  0.00  0.00    +0.000 Br
ENDBRANCH   9  10
ENDBRANCH   2   9
TORSDOF 3
ENDMDL
