REMARK  Name = *****
REMARK  4 active torsions:
REMARK  status: ('A' for Active; 'I' for Inactive)
REMARK    1  A    between atoms: C_1  and  C_2
REMARK    2  A    between atoms: C_5  and  C_8
REMARK    3  A    between atoms: C_8  and  O_10
REMARK    4  A    between atoms: O_10  and  C_11
REMARK                            x       y       z     vdW  Elec       q    Type
REMARK                         _______ _______ _______ _____ _____    ______ ____
ROOT
ATOM      1  C   UNL     1      -3.008  -0.413   0.796  0.00  0.00    +0.000 C 
ATOM      2  O   UNL     1      -3.665  -1.368   0.408  0.00  0.00    +0.000 OA
ENDROOT
BRANCH   1   7
ATOM      3  C   UNL     1       2.494   0.361  -0.880  0.00  0.00    +0.000 C 
ATOM      4  C   UNL     1       1.062   0.186  -0.464  0.00  0.00    +0.000 A 
ATOM      5  C   UNL     1       0.421   1.172   0.296  0.00  0.00    +0.000 A 
ATOM      6  C   UNL     1      -0.903   0.999   0.713  0.00  0.00    +0.000 A 
ATOM      7  C   UNL     1      -1.598  -0.172   0.383  0.00  0.00    +0.000 A 
ATOM      8  C   UNL     1      -0.953  -1.163  -0.369  0.00  0.00    +0.000 A 
ATOM      9  C   UNL     1       0.370  -0.987  -0.783  0.00  0.00    +0.000 A 
ENDBRANCH   1   7
BRANCH   1  10
ATOM     10  O   UNL     1      -3.409   0.570   1.680  0.00  0.00    +0.000 OA
BRANCH  10  11
ATOM     11  C   UNL     1      -4.751   0.443   2.046  0.00  0.00    +0.000 A 
ATOM     12  C   UNL     1      -5.063  -0.320   3.173  0.00  0.00    +0.000 A 
ATOM     13  C   UNL     1      -6.393  -0.427   3.579  0.00  0.00    +0.000 A 
ATOM     14  C   UNL     1      -7.398   0.236   2.870  0.00  0.00    +0.000 A 
ATOM     15  C   UNL     1      -7.076   1.014   1.754  0.00  0.00    +0.000 A 
ATOM     16  C   UNL     1      -5.747   1.125   1.343  0.00  0.00    +0.000 A 
ATOM     17 CL   UNL     1      -5.371   2.116  -0.017  0.00  0.00    +0.000 Cl
ENDBRANCH  10  11
ENDBRANCH   1  10
TORSDOF 3
