MODEL 1
REMARK VINA RESULT:      -4.7      0.000      0.000
REMARK  Name = *****
REMARK  3 active torsions:
REMARK  status: ('A' for Active; 'I' for Inactive)
REMARK    1  A    between atoms: C_3  and  N_9
REMARK    2  A    between atoms: N_9  and  C_10
REMARK    3  A    between atoms: C_10  and  C_11
REMARK                            x       y       z     vdW  Elec       q    Type
REMARK                         _______ _______ _______ _____ _____    ______ ____
ROOT
ATOM      1  C   UNL     1     100.801 129.211  84.044  0.00  0.00    +0.000 C 
ATOM      2  C   UNL     1     101.469 128.039  83.371  0.00  0.00    +0.000 C 
ATOM      3  C   UNL     1     100.781 127.125  82.671  0.00  0.00    +0.000 C 
ATOM      4  C   UNL     1      99.339 127.195  82.572  0.00  0.00    +0.000 C 
ATOM      5  C   UNL     1      98.656 128.260  83.017  0.00  0.00    +0.000 C 
ATOM      6  C   UNL     1      99.326 129.438  83.658  0.00  0.00    +0.000 C 
ATOM      7  F   UNL     1      98.637 129.810  84.773  0.00  0.00    +0.000 F 
ATOM      8  F   UNL     1      99.256 130.505  82.812  0.00  0.00    +0.000 F 
ENDROOT
BRANCH   3   9
ATOM      9  N   UNL     1     101.369 126.035  82.099  0.00  0.00    +0.000 NA
BRANCH   9  10
ATOM     10  C   UNL     1     102.534 125.730  82.580  0.00  0.00    +0.000 C 
BRANCH  10  11
ATOM     11  C   UNL     1     103.545 125.010  81.781  0.00  0.00    +0.000 A 
ATOM     12  C   UNL     1     104.163 123.859  82.277  0.00  0.00    +0.000 A 
ATOM     13  C   UNL     1     105.115 123.195  81.503  0.00  0.00    +0.000 A 
ATOM     14  C   UNL     1     105.448 123.682  80.238  0.00  0.00    +0.000 A 
ATOM     15  C   UNL     1     104.830 124.832  79.743  0.00  0.00    +0.000 A 
ATOM     16  C   UNL     1     103.877 125.499  80.515  0.00  0.00    +0.000 A 
ENDBRANCH  10  11
ENDBRANCH   9  10
ENDBRANCH   3   9
TORSDOF 3
ENDMDL
