REMARK  Name = *****
REMARK  3 active torsions:
REMARK  status: ('A' for Active; 'I' for Inactive)
REMARK    1  A    between atoms: C_1  and  O_2
REMARK    2  A    between atoms: O_2  and  C_3
REMARK    3  A    between atoms: C_8  and  C_9
REMARK                            x       y       z     vdW  Elec       q    Type
REMARK                         _______ _______ _______ _____ _____    ______ ____
ROOT
ATOM      1  C   UNL     1       4.982   1.495   1.811  0.00  0.00    +0.000 A 
ATOM      2  C   UNL     1       4.569   1.208   3.121  0.00  0.00    +0.000 A 
ATOM      3  C   UNL     1       3.287   0.717   3.372  0.00  0.00    +0.000 A 
ATOM      4  C   UNL     1       2.403   0.509   2.319  0.00  0.00    +0.000 A 
ATOM      5  C   UNL     1       2.801   0.792   1.012  0.00  0.00    +0.000 A 
ATOM      6  C   UNL     1       4.089   1.286   0.735  0.00  0.00    +0.000 A 
ENDROOT
BRANCH   6   7
ATOM      7  C   UNL     1       4.497   1.584  -0.654  0.00  0.00    +0.000 C 
ATOM      8  C   UNL     1       3.787   1.312  -1.712  0.00  0.00    +0.000 C 
ATOM      9  C   UNL     1       3.084   1.034  -2.775  0.00  0.00    +0.000 C 
ATOM     10  C   UNL     1       2.624  -0.366  -3.100  0.00  0.00    +0.000 C 
ATOM     11  C   UNL     1       2.977  -0.743  -4.538  0.00  0.00    +0.000 C 
ATOM     12  C   UNL     1       2.475   0.299  -5.538  0.00  0.00    +0.000 C 
ATOM     13  C   UNL     1       2.984   1.698  -5.189  0.00  0.00    +0.000 C 
ATOM     14  C   UNL     1       2.633   2.089  -3.754  0.00  0.00    +0.000 C 
ENDBRANCH   6   7
BRANCH   1  16
ATOM     15  C   UNL     1       7.166   2.141   2.547  0.00  0.00    +0.000 C 
ATOM     16  O   UNL     1       6.228   1.980   1.492  0.00  0.00    +0.000 OA
ENDBRANCH   1  16
TORSDOF 2
