MODEL 1
REMARK VINA RESULT:      -4.6      0.000      0.000
REMARK  Name = *****
REMARK  3 active torsions:
REMARK  status: ('A' for Active; 'I' for Inactive)
REMARK    1  A    between atoms: C_4  and  C_7
REMARK    2  A    between atoms: C_7  and  C_8
REMARK    3  A    between atoms: C_8  and  C_9
REMARK                            x       y       z     vdW  Elec       q    Type
REMARK                         _______ _______ _______ _____ _____    ______ ____
ROOT
ATOM      1  C   UNL     1      89.479  70.668  86.469  0.00  0.00    +0.000 C 
ENDROOT
BRANCH   1   2
ATOM      2  C   UNL     1      89.740  69.375  85.727  0.00  0.00    +0.000 A 
ATOM      3  C   UNL     1      89.897  69.249  84.395  0.00  0.00    +0.000 A 
ATOM      4  O   UNL     1      90.155  67.998  83.786  0.00  0.00    +0.000 OA
ATOM      5  C   UNL     1      90.261  66.862  84.527  0.00  0.00    +0.000 A 
ATOM      6  O   UNL     1      90.485  65.764  84.030  0.00  0.00    +0.000 OA
ATOM      7  C   UNL     1      90.096  66.992  85.983  0.00  0.00    +0.000 A 
ATOM      8  C   UNL     1      89.851  68.181  86.539  0.00  0.00    +0.000 A 
ATOM      9 CL   UNL     1      89.771  70.604  83.323  0.00  0.00    +0.000 Cl
ENDBRANCH   1   2
BRANCH   1  10
ATOM     10  C   UNL     1      88.596  70.448  87.705  0.00  0.00    +0.000 C 
BRANCH  10  14
ATOM     11  C   UNL     1      84.739  72.413  86.993  0.00  0.00    +0.000 C 
ATOM     12  C   UNL     1      85.347  71.609  85.850  0.00  0.00    +0.000 C 
ATOM     13  C   UNL     1      86.833  71.332  86.076  0.00  0.00    +0.000 C 
ATOM     14  C   UNL     1      87.093  70.651  87.430  0.00  0.00    +0.000 C 
ATOM     15  C   UNL     1      86.465  71.471  88.571  0.00  0.00    +0.000 C 
ATOM     16  C   UNL     1      84.981  71.737  88.337  0.00  0.00    +0.000 C 
ENDBRANCH  10  14
ENDBRANCH   1  10
TORSDOF 3
ENDMDL
