MODEL 1
REMARK VINA RESULT:      -4.7      0.000      0.000
REMARK  Name = *****
REMARK  5 active torsions:
REMARK  status: ('A' for Active; 'I' for Inactive)
REMARK    1  A    between atoms: C_1  and  C_2
REMARK    2  A    between atoms: C_5  and  C_8
REMARK    3  A    between atoms: C_8  and  S_9
REMARK    4  A    between atoms: S_9  and  C_11
REMARK    5  A    between atoms: C_14  and  C_17
REMARK                            x       y       z     vdW  Elec       q    Type
REMARK                         _______ _______ _______ _____ _____    ______ ____
ROOT
ATOM      1  S   UNL     1      88.674  70.312  86.509  0.00  0.00    +0.000 S 
ATOM      2  O   UNL     1      90.058  70.804  86.825  0.00  0.00    +0.000 OA
ENDROOT
BRANCH   1   3
ATOM      3  C   UNL     1      88.728  68.521  86.751  0.00  0.00    +0.000 A 
ATOM      4  C   UNL     1      87.678  67.881  87.417  0.00  0.00    +0.000 A 
ATOM      5  C   UNL     1      87.708  66.498  87.615  0.00  0.00    +0.000 A 
ATOM      6  C   UNL     1      88.790  65.739  87.154  0.00  0.00    +0.000 A 
ATOM      7  C   UNL     1      89.826  66.379  86.464  0.00  0.00    +0.000 A 
ATOM      8  C   UNL     1      89.797  67.762  86.267  0.00  0.00    +0.000 A 
ATOM      9  C   UNL     1      88.803  64.249  87.332  0.00  0.00    +0.000 C 
ENDBRANCH   1   3
BRANCH   1  10
ATOM     10  C   UNL     1      87.607  70.690  87.943  0.00  0.00    +0.000 C 
BRANCH  10  15
ATOM     11  C   UNL     1      82.676  73.339  86.327  0.00  0.00    +0.000 C 
ATOM     12  C   UNL     1      83.933  72.634  86.742  0.00  0.00    +0.000 A 
ATOM     13  C   UNL     1      84.217  72.430  88.097  0.00  0.00    +0.000 A 
ATOM     14  C   UNL     1      85.402  71.800  88.487  0.00  0.00    +0.000 A 
ATOM     15  C   UNL     1      86.331  71.376  87.529  0.00  0.00    +0.000 A 
ATOM     16  C   UNL     1      86.048  71.589  86.173  0.00  0.00    +0.000 A 
ATOM     17  C   UNL     1      84.863  72.218  85.784  0.00  0.00    +0.000 A 
ENDBRANCH  10  15
ENDBRANCH   1  10
TORSDOF 3
ENDMDL
