MODEL 1
REMARK VINA RESULT:      -4.4      0.000      0.000
REMARK  Name = *****
REMARK  3 active torsions:
REMARK  status: ('A' for Active; 'I' for Inactive)
REMARK    1  A    between atoms: C_2  and  C_3
REMARK    2  A    between atoms: C_2  and  S_9
REMARK    3  A    between atoms: S_9  and  C_12
REMARK                            x       y       z     vdW  Elec       q    Type
REMARK                         _______ _______ _______ _____ _____    ______ ____
ROOT
ATOM      1  S   UNL     1      88.509  70.286  87.959  0.00  0.00    +0.000 S 
ATOM      2  O   UNL     1      88.504  70.377  89.408  0.00  0.00    +0.000 OA
ATOM      3  O   UNL     1      89.607  70.854  87.198  0.00  0.00    +0.000 OA
ENDROOT
BRANCH   1   4
ATOM      4  C   UNL     1      87.010  71.077  87.404  0.00  0.00    +0.000 A 
ATOM      5  C   UNL     1      86.800  71.251  86.032  0.00  0.00    +0.000 A 
ATOM      6  C   UNL     1      85.630  71.869  85.591  0.00  0.00    +0.000 A 
ATOM      7  C   UNL     1      84.677  72.301  86.516  0.00  0.00    +0.000 A 
ATOM      8  C   UNL     1      84.886  72.110  87.883  0.00  0.00    +0.000 A 
ATOM      9  C   UNL     1      86.052  71.492  88.334  0.00  0.00    +0.000 A 
ENDBRANCH   1   4
BRANCH   1  11
ATOM     10  C   UNL     1      87.273  67.914  88.015  0.00  0.00    +0.000 C 
ATOM     11  C   UNL     1      88.261  68.622  87.436  0.00  0.00    +0.000 C 
BRANCH  11  12
ATOM     12  C   UNL     1      89.198  68.084  86.373  0.00  0.00    +0.000 C 
ATOM     13  C   UNL     1      88.573  68.132  84.967  0.00  0.00    +0.000 C 
ATOM     14  C   UNL     1      89.536  67.594  83.909  0.00  0.00    +0.000 C 
ATOM     15  C   UNL     1      90.017  66.187  84.252  0.00  0.00    +0.000 C 
ATOM     16  C   UNL     1      90.634  66.126  85.646  0.00  0.00    +0.000 C 
ATOM     17  C   UNL     1      89.678  66.661  86.711  0.00  0.00    +0.000 C 
ENDBRANCH  11  12
ENDBRANCH   1  11
TORSDOF 3
ENDMDL
