MODEL 1
REMARK VINA RESULT:      -4.2      0.000      0.000
REMARK  Name = *****
REMARK  3 active torsions:
REMARK  status: ('A' for Active; 'I' for Inactive)
REMARK    1  A    between atoms: C_4  and  N_7
REMARK    2  A    between atoms: N_7  and  C_8
REMARK    3  A    between atoms: C_8  and  C_9
REMARK                            x       y       z     vdW  Elec       q    Type
REMARK                         _______ _______ _______ _____ _____    ______ ____
ROOT
ATOM      1  C   UNL     1     102.069 125.865  82.100  0.00  0.00    +0.000 C 
ENDROOT
BRANCH   1   2
ATOM      2  C   UNL     1     101.198 126.943  82.607  0.00  0.00    +0.000 A 
ATOM      3  C   UNL     1      99.808 126.869  82.456  0.00  0.00    +0.000 A 
ATOM      4  C   UNL     1      99.001 127.898  82.944  0.00  0.00    +0.000 A 
ATOM      5  C   UNL     1      99.591 128.989  83.575  0.00  0.00    +0.000 A 
ATOM      6  C   UNL     1     100.971 129.072  83.729  0.00  0.00    +0.000 A 
ATOM      7  C   UNL     1     101.783 128.043  83.243  0.00  0.00    +0.000 A 
ATOM      8  F   UNL     1      98.817 129.978  84.043  0.00  0.00    +0.000 F 
ENDBRANCH   1   2
BRANCH   1   9
ATOM      9  N   UNL     1     102.881 125.229  82.873  0.00  0.00    +0.000 NA
BRANCH   9  13
ATOM     10  C   UNL     1     105.267 122.669  80.425  0.00  0.00    +0.000 C 
ATOM     11  C   UNL     1     105.052 124.104  79.953  0.00  0.00    +0.000 C 
ATOM     12  C   UNL     1     103.895 124.772  80.692  0.00  0.00    +0.000 C 
ATOM     13  C   UNL     1     104.088 124.712  82.211  0.00  0.00    +0.000 C 
ATOM     14  C   UNL     1     104.294 123.266  82.677  0.00  0.00    +0.000 C 
ATOM     15  C   UNL     1     105.450 122.597  81.939  0.00  0.00    +0.000 C 
ENDBRANCH   9  13
ENDBRANCH   1   9
TORSDOF 3
ENDMDL
