MODEL 1
REMARK VINA RESULT:      -4.3      0.000      0.000
REMARK  Name = *****
REMARK  4 active torsions:
REMARK  status: ('A' for Active; 'I' for Inactive)
REMARK    1  A    between atoms: C_4  and  C_7
REMARK    2  A    between atoms: C_7  and  C_8
REMARK    3  A    between atoms: C_8  and  C_9
REMARK    4  A    between atoms: C_9  and  C_11
REMARK                            x       y       z     vdW  Elec       q    Type
REMARK                         _______ _______ _______ _____ _____    ______ ____
ROOT
ATOM      1  C   UNL     1      88.677  67.581  85.847  0.00  0.00    +0.000 C 
ATOM      2  O   UNL     1      88.104  67.500  84.763  0.00  0.00    +0.000 OA
ENDROOT
BRANCH   1   3
ATOM      3  C   UNL     1      88.196  66.737  86.983  0.00  0.00    +0.000 A 
ATOM      4  C   UNL     1      88.792  65.514  87.311  0.00  0.00    +0.000 A 
ATOM      5  C   UNL     1      88.297  64.773  88.383  0.00  0.00    +0.000 A 
ATOM      6  C   UNL     1      87.220  65.234  89.131  0.00  0.00    +0.000 A 
ATOM      7  C   UNL     1      86.617  66.446  88.817  0.00  0.00    +0.000 A 
ATOM      8  C   UNL     1      87.105  67.197  87.743  0.00  0.00    +0.000 A 
ATOM      9  F   UNL     1      86.754  64.514  90.159  0.00  0.00    +0.000 F 
ATOM     10  F   UNL     1      88.875  63.604  88.688  0.00  0.00    +0.000 F 
ENDBRANCH   1   3
BRANCH   1  11
ATOM     11  C   UNL     1      89.856  68.507  86.075  0.00  0.00    +0.000 C 
BRANCH  11  12
ATOM     12  C   UNL     1      89.479  69.971  85.847  0.00  0.00    +0.000 C 
BRANCH  12  16
ATOM     13  C   UNL     1      86.719  71.315  88.875  0.00  0.00    +0.000 A 
ATOM     14  C   UNL     1      87.985  70.859  89.238  0.00  0.00    +0.000 A 
ATOM     15  C   UNL     1      88.882  70.430  88.258  0.00  0.00    +0.000 A 
ATOM     16  C   UNL     1      88.521  70.458  86.904  0.00  0.00    +0.000 A 
ATOM     17  C   UNL     1      87.244  70.914  86.550  0.00  0.00    +0.000 A 
ATOM     18  C   UNL     1      86.348  71.342  87.532  0.00  0.00    +0.000 A 
ENDBRANCH  12  16
ENDBRANCH  11  12
ENDBRANCH   1  11
TORSDOF 4
ENDMDL
