MODEL 1
REMARK VINA RESULT:      -4.2      0.000      0.000
REMARK  Name = *****
REMARK  7 active torsions:
REMARK  status: ('A' for Active; 'I' for Inactive)
REMARK    1  A    between atoms: C_1  and  C_2
REMARK    2  A    between atoms: C_4  and  C_19
REMARK    3  A    between atoms: C_5  and  P_9
REMARK    4  A    between atoms: C_6  and  C_8
REMARK    5  A    between atoms: P_9  and  C_10
REMARK    6  A    between atoms: C_10  and  C_11
REMARK    7  A    between atoms: C_10  and  C_13
REMARK                            x       y       z     vdW  Elec       q    Type
REMARK                         _______ _______ _______ _____ _____    ______ ____
ROOT
ATOM      1  P   UNL     1      87.344  68.932  84.907  0.00  0.00    +0.000 P 
ENDROOT
BRANCH   1   6
ATOM      2  C   UNL     1      88.420  64.371  88.800  0.00  0.00    +0.000 C 
ATOM      3  C   UNL     1      88.170  65.520  87.869  0.00  0.00    +0.000 A 
ATOM      4  C   UNL     1      89.144  65.906  86.944  0.00  0.00    +0.000 A 
ATOM      5  C   UNL     1      88.923  66.958  86.038  0.00  0.00    +0.000 A 
ATOM      6  C   UNL     1      87.672  67.615  86.058  0.00  0.00    +0.000 A 
ATOM      7  C   UNL     1      86.674  67.244  86.989  0.00  0.00    +0.000 A 
ATOM      8  C   UNL     1      86.942  66.187  87.878  0.00  0.00    +0.000 A 
ATOM      9  C   UNL     1      85.326  67.915  87.097  0.00  0.00    +0.000 C 
ATOM     10  C   UNL     1      90.050  67.315  85.099  0.00  0.00    +0.000 C 
ENDBRANCH   1   6
BRANCH   1  11
ATOM     11  C   UNL     1      88.154  70.249  85.665  0.00  0.00    +0.000 C 
BRANCH  11  12
ATOM     12  C   UNL     1      87.839  70.621  87.068  0.00  0.00    +0.000 A 
ATOM     13  C   UNL     1      86.613  71.231  87.363  0.00  0.00    +0.000 A 
ATOM     14  C   UNL     1      86.292  71.565  88.681  0.00  0.00    +0.000 A 
ATOM     15  C   UNL     1      87.190  71.289  89.711  0.00  0.00    +0.000 A 
ATOM     16  C   UNL     1      88.410  70.679  89.426  0.00  0.00    +0.000 A 
ATOM     17  C   UNL     1      88.735  70.344  88.110  0.00  0.00    +0.000 A 
ENDBRANCH  11  12
BRANCH  11  18
ATOM     18  C   UNL     1      89.179  71.085  84.946  0.00  0.00    +0.000 C 
ATOM     19  O   UNL     1      90.369  70.833  85.045  0.00  0.00    +0.000 OA
ENDBRANCH  11  18
ENDBRANCH   1  11
TORSDOF 4
ENDMDL
