MODEL 1
REMARK VINA RESULT:      -4.1      0.000      0.000
REMARK  Name = *****
REMARK  2 active torsions:
REMARK  status: ('A' for Active; 'I' for Inactive)
REMARK    1  A    between atoms: C_4  and  C_7
REMARK    2  A    between atoms: C_8  and  C_9
REMARK                            x       y       z     vdW  Elec       q    Type
REMARK                         _______ _______ _______ _____ _____    ______ ____
ROOT
ATOM      1  C   UNL     1     101.667 125.978  83.938  0.00  0.00    +0.000 C 
ATOM      2  C   UNL     1     102.874 125.830  83.362  0.00  0.00    +0.000 C 
ATOM      3 BR   UNL     1     103.989 124.395  83.830  0.00  0.00    +0.000 Br
ENDROOT
BRANCH   1   7
ATOM      4  C   UNL     1      98.918 129.122  83.088  0.00  0.00    +0.000 A 
ATOM      5  C   UNL     1      98.737 127.864  82.515  0.00  0.00    +0.000 A 
ATOM      6  C   UNL     1      99.634 126.832  82.794  0.00  0.00    +0.000 A 
ATOM      7  C   UNL     1     100.720 127.057  83.648  0.00  0.00    +0.000 A 
ATOM      8  C   UNL     1     100.898 128.321  84.221  0.00  0.00    +0.000 A 
ATOM      9  C   UNL     1      99.998 129.351  83.940  0.00  0.00    +0.000 A 
ENDBRANCH   1   7
BRANCH   2  10
ATOM     10  C   UNL     1     103.403 126.755  82.347  0.00  0.00    +0.000 A 
ATOM     11  C   UNL     1     104.200 127.842  82.728  0.00  0.00    +0.000 A 
ATOM     12  C   UNL     1     104.695 128.724  81.765  0.00  0.00    +0.000 A 
ATOM     13  C   UNL     1     104.397 128.526  80.418  0.00  0.00    +0.000 A 
ATOM     14  C   UNL     1     103.604 127.447  80.030  0.00  0.00    +0.000 A 
ATOM     15  C   UNL     1     103.108 126.563  80.991  0.00  0.00    +0.000 A 
ENDBRANCH   2  10
TORSDOF 2
ENDMDL
