REMARK  Name = *****
REMARK  5 active torsions:
REMARK  status: ('A' for Active; 'I' for Inactive)
REMARK    1  A    between atoms: C_1  and  C_2
REMARK    2  A    between atoms: C_3  and  O_16
REMARK    3  A    between atoms: C_5  and  C_8
REMARK    4  A    between atoms: C_9  and  C_10
REMARK    5  A    between atoms: O_16  and  C_17
REMARK                            x       y       z     vdW  Elec       q    Type
REMARK                         _______ _______ _______ _____ _____    ______ ____
ROOT
ATOM      1  C   UNL     1       1.070  -0.091   0.222  0.00  0.00    +0.000 C 
ATOM      2  C   UNL     1       2.550  -0.093  -0.049  0.00  0.00    +0.000 A 
ATOM      3  C   UNL     1       3.269   1.115  -0.127  0.00  0.00    +0.000 A 
ATOM      4  C   UNL     1       4.645   1.084  -0.376  0.00  0.00    +0.000 A 
ATOM      5  C   UNL     1       5.305  -0.137  -0.547  0.00  0.00    +0.000 A 
ATOM      6  C   UNL     1       4.595  -1.333  -0.469  0.00  0.00    +0.000 A 
ATOM      7  C   UNL     1       3.223  -1.312  -0.220  0.00  0.00    +0.000 A 
ENDROOT
BRANCH   5   8
ATOM      8  C   UNL     1       6.713  -0.158  -0.802  0.00  0.00    +0.000 C 
ATOM      9  C   UNL     1       7.895  -0.176  -1.015  0.00  0.00    +0.000 C 
BRANCH   9  10
ATOM     10  C   UNL     1       9.303  -0.199  -1.269  0.00  0.00    +0.000 A 
ATOM     11  C   UNL     1      10.010   0.999  -1.402  0.00  0.00    +0.000 A 
ATOM     12  C   UNL     1      11.384   0.976  -1.650  0.00  0.00    +0.000 A 
ATOM     13  C   UNL     1      12.051  -0.244  -1.766  0.00  0.00    +0.000 A 
ATOM     14  C   UNL     1      11.347  -1.440  -1.633  0.00  0.00    +0.000 A 
ATOM     15  C   UNL     1       9.973  -1.419  -1.385  0.00  0.00    +0.000 A 
ENDBRANCH   9  10
ENDBRANCH   5   8
BRANCH   3  16
ATOM     16  O   UNL     1       2.531   2.256   0.057  0.00  0.00    +0.000 OA
ATOM     17  C   UNL     1       3.217   3.498  -0.024  0.00  0.00    +0.000 C 
ENDBRANCH   3  16
TORSDOF 3
