REMARK  Name = *****
REMARK  4 active torsions:
REMARK  status: ('A' for Active; 'I' for Inactive)
REMARK    1  A    between atoms: C_1  and  C_2
REMARK    2  A    between atoms: C_3  and  S_7
REMARK    3  A    between atoms: S_7  and  S_8
REMARK    4  A    between atoms: S_8  and  C_9
REMARK                            x       y       z     vdW  Elec       q    Type
REMARK                         _______ _______ _______ _____ _____    ______ ____
ROOT
ATOM      1  S   UNL     1       0.599  -2.950   0.742  0.00  0.00    +0.000 S 
ENDROOT
BRANCH   1   4
ATOM      2  C   UNL     1       1.725   0.329   1.240  0.00  0.00    +0.000 C 
ATOM      3  C   UNL     1       0.555  -0.153   0.479  0.00  0.00    +0.000 A 
ATOM      4  C   UNL     1       0.021  -1.395   0.206  0.00  0.00    +0.000 A 
ATOM      5  C   UNL     1      -1.138  -1.178  -0.574  0.00  0.00    +0.000 A 
ATOM      6  C   UNL     1      -1.232   0.184  -0.742  0.00  0.00    +0.000 A 
ATOM      7  O   UNL     1      -0.210   0.815  -0.107  0.00  0.00    +0.000 OA
ENDBRANCH   1   4
BRANCH   1   8
ATOM      8  S   UNL     1       2.401  -3.142  -0.233  0.00  0.00    +0.000 S 
BRANCH   8   9
ATOM      9  C   UNL     1       2.826  -4.925  -0.095  0.00  0.00    +0.000 C 
ATOM     10  C   UNL     1       1.802  -5.841  -0.773  0.00  0.00    +0.000 C 
ATOM     11  C   UNL     1       2.226  -7.307  -0.664  0.00  0.00    +0.000 C 
ATOM     12  C   UNL     1       2.478  -7.716   0.785  0.00  0.00    +0.000 C 
ATOM     13  C   UNL     1       3.489  -6.796   1.464  0.00  0.00    +0.000 C 
ATOM     14  C   UNL     1       3.070  -5.330   1.364  0.00  0.00    +0.000 C 
ENDBRANCH   8   9
ENDBRANCH   1   8
TORSDOF 3
