REMARK  Name = *****
REMARK  4 active torsions:
REMARK  status: ('A' for Active; 'I' for Inactive)
REMARK    1  A    between atoms: C_1  and  C_2
REMARK    2  A    between atoms: C_2  and  C_12
REMARK    3  A    between atoms: N_3  and  O_4
REMARK    4  A    between atoms: O_4  and  C_5
REMARK                            x       y       z     vdW  Elec       q    Type
REMARK                         _______ _______ _______ _____ _____    ______ ____
ROOT
ATOM      1  C   UNL     1       1.077   0.262   0.379  0.00  0.00    +0.000 C 
ATOM      2  C   UNL     1       2.550   0.077   0.072  0.00  0.00    +0.000 C 
ATOM      3  N   UNL     1       3.187   0.790  -0.812  0.00  0.00    +0.000 NA
ENDROOT
BRANCH   2   4
ATOM      4  C   UNL     1       3.303  -0.980   0.811  0.00  0.00    +0.000 A 
ATOM      5  C   UNL     1       2.667  -2.129   1.296  0.00  0.00    +0.000 A 
ATOM      6  C   UNL     1       3.402  -3.101   1.979  0.00  0.00    +0.000 A 
ATOM      7  C   UNL     1       4.773  -2.934   2.174  0.00  0.00    +0.000 A 
ATOM      8  C   UNL     1       5.414  -1.799   1.682  0.00  0.00    +0.000 A 
ATOM      9  C   UNL     1       4.683  -0.826   0.999  0.00  0.00    +0.000 A 
ENDBRANCH   2   4
BRANCH   3  10
ATOM     10  O   UNL     1       2.341   1.717  -1.434  0.00  0.00    +0.000 OA
BRANCH  10  11
ATOM     11  C   UNL     1       3.031   2.488  -2.343  0.00  0.00    +0.000 A 
ATOM     12  C   UNL     1       4.309   2.194  -2.824  0.00  0.00    +0.000 A 
ATOM     13  C   UNL     1       4.907   3.045  -3.753  0.00  0.00    +0.000 A 
ATOM     14  C   UNL     1       4.240   4.181  -4.211  0.00  0.00    +0.000 A 
ATOM     15  C   UNL     1       2.960   4.470  -3.738  0.00  0.00    +0.000 A 
ATOM     16  C   UNL     1       2.357   3.622  -2.807  0.00  0.00    +0.000 A 
ATOM     17 CL   UNL     1       6.484   2.689  -4.345  0.00  0.00    +0.000 Cl
ENDBRANCH  10  11
ENDBRANCH   3  10
TORSDOF 3
