MODEL 1
REMARK VINA RESULT:      -4.6      0.000      0.000
REMARK  Name = *****
REMARK  1 active torsions:
REMARK  status: ('A' for Active; 'I' for Inactive)
REMARK    1  A    between atoms: C_6  and  C_11
REMARK                            x       y       z     vdW  Elec       q    Type
REMARK                         _______ _______ _______ _____ _____    ______ ____
ROOT
ATOM      1  C   UNL     1      99.351 129.690  83.960  0.00  0.00    +0.000 A 
ATOM      2  C   UNL     1     100.651 129.877  84.225  0.00  0.00    +0.000 A 
ATOM      3  C   UNL     1     101.785 129.043  83.896  0.00  0.00    +0.000 A 
ATOM      4  C   UNL     1     101.782 127.883  83.230  0.00  0.00    +0.000 A 
ATOM      5  C   UNL     1     102.976 127.111  82.936  0.00  0.00    +0.000 A 
ATOM      6  C   UNL     1     102.595 126.015  82.247  0.00  0.00    +0.000 A 
ATOM      7  C   UNL     1     101.138 126.073  82.096  0.00  0.00    +0.000 A 
ATOM      8  C   UNL     1     100.636 127.180  82.678  0.00  0.00    +0.000 A 
ATOM      9  C   UNL     1      99.238 127.513  82.710  0.00  0.00    +0.000 A 
ATOM     10  C   UNL     1      98.696 128.604  83.271  0.00  0.00    +0.000 A 
ENDROOT
BRANCH   6  11
ATOM     11  C   UNL     1     103.524 125.034  81.786  0.00  0.00    +0.000 A 
ATOM     12  C   UNL     1     103.979 124.775  80.500  0.00  0.00    +0.000 A 
ATOM     13  C   UNL     1     104.911 123.699  80.430  0.00  0.00    +0.000 A 
ATOM     14  C   UNL     1     105.151 123.151  81.666  0.00  0.00    +0.000 A 
ATOM     15  S   UNL     1     104.266 123.935  82.895  0.00  0.00    +0.000 S 
ENDBRANCH   6  11
TORSDOF 1
ENDMDL
