REMARK  Name = *****
REMARK  5 active torsions:
REMARK  status: ('A' for Active; 'I' for Inactive)
REMARK    1  A    between atoms: C_1  and  C_2
REMARK    2  A    between atoms: C_4  and  C_10
REMARK    3  A    between atoms: C_10  and  C_12
REMARK    4  A    between atoms: C_12  and  N_13
REMARK    5  A    between atoms: C_14  and  C_19
REMARK                            x       y       z     vdW  Elec       q    Type
REMARK                         _______ _______ _______ _____ _____    ______ ____
ROOT
ATOM      1  C   UNL     1       5.889   2.143  -0.648  0.00  0.00    +0.000 C 
ATOM      2  O   UNL     1       6.966   2.014  -1.223  0.00  0.00    +0.000 OA
ENDROOT
BRANCH   1   6
ATOM      3  C   UNL     1       3.586  -1.429   1.973  0.00  0.00    +0.000 C 
ATOM      4  C   UNL     1       3.832  -0.713   0.679  0.00  0.00    +0.000 A 
ATOM      5  C   UNL     1       4.714   0.373   0.612  0.00  0.00    +0.000 A 
ATOM      6  C   UNL     1       4.953   1.005  -0.618  0.00  0.00    +0.000 A 
ATOM      7  C   UNL     1       4.331   0.550  -1.786  0.00  0.00    +0.000 A 
ATOM      8  C   UNL     1       3.462  -0.539  -1.722  0.00  0.00    +0.000 A 
ATOM      9  C   UNL     1       3.225  -1.160  -0.499  0.00  0.00    +0.000 A 
ATOM     10  F   UNL     1       2.396  -2.212  -0.460  0.00  0.00    +0.000 F 
ATOM     11 CL   UNL     1       4.576   1.301  -3.320  0.00  0.00    +0.000 Cl
ENDBRANCH   1   6
BRANCH   1  12
ATOM     12  C   UNL     1       5.446   3.419   0.053  0.00  0.00    +0.000 C 
BRANCH  12  13
ATOM     13  N   UNL     1       5.414   4.523  -0.883  0.00  0.00    +0.000 N 
ATOM     14  C   UNL     1       6.482   5.358  -1.182  0.00  0.00    +0.000 A 
ATOM     15  C   UNL     1       6.193   6.261  -2.130  0.00  0.00    +0.000 A 
ATOM     16  S   UNL     1       4.562   6.110  -2.706  0.00  0.00    +0.000 S 
ATOM     17  C   UNL     1       4.260   4.750  -1.622  0.00  0.00    +0.000 A 
ATOM     18  O   UNL     1       3.204   4.141  -1.554  0.00  0.00    +0.000 OA
ATOM     19  C   UNL     1       7.803   5.239  -0.498  0.00  0.00    +0.000 C 
ENDBRANCH  12  13
ENDBRANCH   1  12
TORSDOF 3
