REMARK  Name = *****
REMARK  3 active torsions:
REMARK  status: ('A' for Active; 'I' for Inactive)
REMARK    1  A    between atoms: C_5  and  O_7
REMARK    2  A    between atoms: O_7  and  C_8
REMARK    3  A    between atoms: C_8  and  C_9
REMARK                            x       y       z     vdW  Elec       q    Type
REMARK                         _______ _______ _______ _____ _____    ______ ____
ROOT
ATOM      1  C   UNL     1      -2.145  -3.902  -0.303  0.00  0.00    +0.000 A 
ATOM      2  C   UNL     1      -3.230  -4.340   0.459  0.00  0.00    +0.000 A 
ATOM      3  C   UNL     1      -3.568  -5.690   0.515  0.00  0.00    +0.000 A 
ATOM      4  C   UNL     1      -2.819  -6.623  -0.188  0.00  0.00    +0.000 A 
ATOM      5  C   UNL     1      -1.734  -6.208  -0.946  0.00  0.00    +0.000 A 
ATOM      6  C   UNL     1      -1.399  -4.857  -0.999  0.00  0.00    +0.000 A 
ATOM      7  F   UNL     1      -0.348  -4.469  -1.736  0.00  0.00    +0.000 F 
ATOM      8  F   UNL     1      -1.008  -7.104  -1.629  0.00  0.00    +0.000 F 
ATOM      9  F   UNL     1      -3.145  -7.922  -0.138  0.00  0.00    +0.000 F 
ATOM     10  F   UNL     1      -4.620  -6.087   1.245  0.00  0.00    +0.000 F 
ATOM     11  F   UNL     1      -3.965  -3.450   1.141  0.00  0.00    +0.000 F 
ENDROOT
BRANCH   1  12
ATOM     12  C   UNL     1      -1.748  -2.456  -0.335  0.00  0.00    +0.000 C 
BRANCH  12  13
ATOM     13  O   UNL     1      -0.695  -2.286   0.620  0.00  0.00    +0.000 OA
BRANCH  13  18
ATOM     14  C   UNL     1       1.928  -0.127  -0.712  0.00  0.00    +0.000 A 
ATOM     15  C   UNL     1       1.566   1.111  -0.180  0.00  0.00    +0.000 A 
ATOM     16  C   UNL     1       0.435   1.221   0.634  0.00  0.00    +0.000 A 
ATOM     17  C   UNL     1      -0.339   0.092   0.910  0.00  0.00    +0.000 A 
ATOM     18  C   UNL     1       0.012  -1.142   0.354  0.00  0.00    +0.000 A 
ATOM     19  C   UNL     1       1.157  -1.256  -0.439  0.00  0.00    +0.000 A 
ATOM     20 CL   UNL     1      -1.712   0.262   1.940  0.00  0.00    +0.000 Cl
ENDBRANCH  13  18
ENDBRANCH  12  13
ENDBRANCH   1  12
TORSDOF 3
