MODEL 1
REMARK VINA RESULT:      -4.1      0.000      0.000
REMARK  Name = *****
REMARK  4 active torsions:
REMARK  status: ('A' for Active; 'I' for Inactive)
REMARK    1  A    between atoms: C_1  and  N_2
REMARK    2  A    between atoms: N_2  and  C_3
REMARK    3  A    between atoms: C_9  and  S_11
REMARK    4  A    between atoms: S_11  and  C_12
REMARK                            x       y       z     vdW  Elec       q    Type
REMARK                         _______ _______ _______ _____ _____    ______ ____
ROOT
ATOM      1  C   UNL     1     105.441 129.457  81.884  0.00  0.00    +0.000 C 
ATOM      2  N   UNL     1     104.410 128.587  82.440  0.00  0.00    +0.000 N 
ATOM      3  C   UNL     1     103.649 129.120  83.492  0.00  0.00    +0.000 C 
ATOM      4  O   UNL     1     103.625 130.317  83.769  0.00  0.00    +0.000 OA
ENDROOT
BRANCH   2   5
ATOM      5  C   UNL     1     104.287 127.278  81.881  0.00  0.00    +0.000 A 
ATOM      6  C   UNL     1     103.463 127.030  80.775  0.00  0.00    +0.000 A 
ATOM      7  C   UNL     1     103.369 125.750  80.220  0.00  0.00    +0.000 A 
ATOM      8  C   UNL     1     104.112 124.702  80.752  0.00  0.00    +0.000 A 
ATOM      9  C   UNL     1     104.957 124.934  81.833  0.00  0.00    +0.000 A 
ATOM     10  C   UNL     1     105.052 126.214  82.386  0.00  0.00    +0.000 A 
ENDBRANCH   2   5
BRANCH   3  11
ATOM     11  S   UNL     1     102.819 128.000  84.580  0.00  0.00    +0.000 S 
BRANCH  11  12
ATOM     12  C   UNL     1     101.217 127.959  83.801  0.00  0.00    +0.000 A 
ATOM     13  C   UNL     1     100.789 126.828  83.098  0.00  0.00    +0.000 A 
ATOM     14  C   UNL     1      99.528 126.808  82.499  0.00  0.00    +0.000 A 
ATOM     15  C   UNL     1      98.688 127.915  82.603  0.00  0.00    +0.000 A 
ATOM     16  C   UNL     1      99.106 129.043  83.308  0.00  0.00    +0.000 A 
ATOM     17  C   UNL     1     100.366 129.064  83.908  0.00  0.00    +0.000 A 
ENDBRANCH  11  12
ENDBRANCH   3  11
TORSDOF 3
ENDMDL
