REMARK  Name = *****
REMARK  3 active torsions:
REMARK  status: ('A' for Active; 'I' for Inactive)
REMARK    1  A    between atoms: C_4  and  C_7
REMARK    2  A    between atoms: C_7  and  N_8
REMARK    3  A    between atoms: N_8  and  C_9
REMARK                            x       y       z     vdW  Elec       q    Type
REMARK                         _______ _______ _______ _____ _____    ______ ____
ROOT
ATOM      1  N   UNL     1       4.050   0.261  -0.447  0.00  0.00    +0.000 NA
ENDROOT
BRANCH   1   2
ATOM      2  C   UNL     1       5.422   0.352  -0.606  0.00  0.00    +0.000 A 
ATOM      3  C   UNL     1       6.009   1.610  -0.688  0.00  0.00    +0.000 A 
ATOM      4  C   UNL     1       7.389   1.688  -0.850  0.00  0.00    +0.000 A 
ATOM      5  C   UNL     1       8.164   0.528  -0.929  0.00  0.00    +0.000 A 
ATOM      6  C   UNL     1       7.554  -0.727  -0.844  0.00  0.00    +0.000 A 
ATOM      7  C   UNL     1       6.173  -0.818  -0.681  0.00  0.00    +0.000 A 
ATOM      8 CL   UNL     1       8.150   3.228  -0.956  0.00  0.00    +0.000 Cl
ENDBRANCH   1   2
BRANCH   1   9
ATOM      9  C   UNL     1       2.945   0.189  -0.320  0.00  0.00    +0.000 C 
BRANCH   9  13
ATOM     10  C   UNL     1      -1.243  -0.080   0.145  0.00  0.00    +0.000 A 
ATOM     11  C   UNL     1      -0.629   1.170   0.071  0.00  0.00    +0.000 A 
ATOM     12  C   UNL     1       0.756   1.260  -0.082  0.00  0.00    +0.000 A 
ATOM     13  C   UNL     1       1.527   0.098  -0.161  0.00  0.00    +0.000 A 
ATOM     14  C   UNL     1       0.910  -1.153  -0.087  0.00  0.00    +0.000 A 
ATOM     15  C   UNL     1      -0.475  -1.241   0.066  0.00  0.00    +0.000 A 
ENDBRANCH   9  13
ENDBRANCH   1   9
TORSDOF 3
