MODEL 1
REMARK VINA RESULT:      -5.1      0.000      0.000
REMARK  Name = *****
REMARK  2 active torsions:
REMARK  status: ('A' for Active; 'I' for Inactive)
REMARK    1  A    between atoms: N_3  and  C_11
REMARK    2  A    between atoms: C_16  and  C_17
REMARK                            x       y       z     vdW  Elec       q    Type
REMARK                         _______ _______ _______ _____ _____    ______ ____
ROOT
ATOM      1  C   UNL     1     102.738 125.339  84.023  0.00  0.00    +0.000 C 
ATOM      2  C   UNL     1     102.701 126.799  84.482  0.00  0.00    +0.000 C 
ATOM      3  N   UNL     1     102.184 127.696  83.389  0.00  0.00    +0.000 N 
ATOM      4  C   UNL     1     102.385 127.409  82.141  0.00  0.00    +0.000 C 
ATOM      5  C   UNL     1     103.140 126.221  81.723  0.00  0.00    +0.000 A 
ATOM      6  C   UNL     1     103.613 126.114  80.415  0.00  0.00    +0.000 A 
ATOM      7  C   UNL     1     104.314 124.968  80.043  0.00  0.00    +0.000 A 
ATOM      8  C   UNL     1     104.525 123.942  80.967  0.00  0.00    +0.000 A 
ATOM      9  C   UNL     1     104.036 124.052  82.270  0.00  0.00    +0.000 A 
ATOM     10  C   UNL     1     103.348 125.202  82.659  0.00  0.00    +0.000 A 
ENDROOT
BRANCH   3  11
ATOM     11  C   UNL     1     101.250 128.743  83.733  0.00  0.00    +0.000 A 
ATOM     12  C   UNL     1     101.765 129.947  84.270  0.00  0.00    +0.000 A 
ATOM     13  C   UNL     1     100.938 131.040  84.542  0.00  0.00    +0.000 A 
ATOM     14  C   UNL     1      99.578 130.959  84.291  0.00  0.00    +0.000 A 
ATOM     15  C   UNL     1      99.039 129.775  83.795  0.00  0.00    +0.000 A 
ATOM     16  C   UNL     1      99.851 128.649  83.532  0.00  0.00    +0.000 A 
BRANCH  16  17
ATOM     17  C   UNL     1      99.135 127.369  83.174  0.00  0.00    +0.000 C 
ATOM     18  F   UNL     1      97.784 127.508  83.253  0.00  0.00    +0.000 F 
ATOM     19  F   UNL     1      99.389 126.923  81.918  0.00  0.00    +0.000 F 
ATOM     20  F   UNL     1      99.456 126.352  84.014  0.00  0.00    +0.000 F 
ENDBRANCH  16  17
ENDBRANCH   3  11
TORSDOF 2
ENDMDL
