MODEL 1
REMARK VINA RESULT:      -4.8      0.000      0.000
REMARK  Name = *****
REMARK  4 active torsions:
REMARK  status: ('A' for Active; 'I' for Inactive)
REMARK    1  A    between atoms: C_3  and  C_10
REMARK    2  A    between atoms: C_5  and  C_7
REMARK    3  A    between atoms: C_10  and  O_12
REMARK    4  A    between atoms: O_12  and  C_13
REMARK                            x       y       z     vdW  Elec       q    Type
REMARK                         _______ _______ _______ _____ _____    ______ ____
ROOT
ATOM      1  C   UNL     1     103.584 126.726  81.032  0.00  0.00    +0.000 C 
ATOM      2  O   UNL     1     103.414 127.599  80.195  0.00  0.00    +0.000 OA
ENDROOT
BRANCH   1   5
ATOM      3  C   UNL     1     105.665 124.015  79.357  0.00  0.00    +0.000 A 
ATOM      4  C   UNL     1     105.057 125.249  79.591  0.00  0.00    +0.000 A 
ATOM      5  C   UNL     1     104.245 125.429  80.720  0.00  0.00    +0.000 A 
ATOM      6  C   UNL     1     104.041 124.357  81.608  0.00  0.00    +0.000 A 
ATOM      7  C   UNL     1     104.652 123.118  81.379  0.00  0.00    +0.000 A 
ATOM      8  C   UNL     1     105.466 122.958  80.245  0.00  0.00    +0.000 A 
BRANCH   7   9
ATOM      9  C   UNL     1     104.472 121.954  82.310  0.00  0.00    +0.000 C 
ATOM     10  O   UNL     1     104.112 122.208  83.459  0.00  0.00    +0.000 OA
ATOM     11 CL   UNL     1     104.770 120.326  81.744  0.00  0.00    +0.000 Cl
ENDBRANCH   7   9
ENDBRANCH   1   5
BRANCH   1  12
ATOM     12  O   UNL     1     103.188 126.747  82.356  0.00  0.00    +0.000 OA
BRANCH  12  13
ATOM     13  C   UNL     1     101.884 127.208  82.568  0.00  0.00    +0.000 A 
ATOM     14  C   UNL     1     100.788 126.425  82.215  0.00  0.00    +0.000 A 
ATOM     15  C   UNL     1      99.514 126.897  82.504  0.00  0.00    +0.000 A 
ATOM     16  C   UNL     1      99.327 128.118  83.146  0.00  0.00    +0.000 A 
ATOM     17  C   UNL     1     100.434 128.885  83.513  0.00  0.00    +0.000 A 
ATOM     18  C   UNL     1     101.721 128.426  83.230  0.00  0.00    +0.000 A 
ATOM     19  F   UNL     1      98.447 126.161  82.168  0.00  0.00    +0.000 F 
ENDBRANCH  12  13
ENDBRANCH   1  12
TORSDOF 4
ENDMDL
