REMARK  Name = *****
REMARK  3 active torsions:
REMARK  status: ('A' for Active; 'I' for Inactive)
REMARK    1  A    between atoms: C_4  and  C_7
REMARK    2  A    between atoms: C_8  and  C_9
REMARK    3  A    between atoms: C_14  and  N_15
REMARK                            x       y       z     vdW  Elec       q    Type
REMARK                         _______ _______ _______ _____ _____    ______ ____
ROOT
ATOM      1  C   UNL     1      -2.825   0.361  -0.191  0.00  0.00    +0.000 C 
ATOM      2  C   UNL     1      -3.704  -0.591  -0.544  0.00  0.00    +0.000 C 
ENDROOT
BRANCH   1   6
ATOM      3  C   UNL     1       1.406  -0.170   0.176  0.00  0.00    +0.000 A 
ATOM      4  C   UNL     1       0.712  -0.861  -0.814  0.00  0.00    +0.000 A 
ATOM      5  C   UNL     1      -0.671  -0.703  -0.942  0.00  0.00    +0.000 A 
ATOM      6  C   UNL     1      -1.376   0.140  -0.072  0.00  0.00    +0.000 A 
ATOM      7  C   UNL     1      -0.664   0.841   0.910  0.00  0.00    +0.000 A 
ATOM      8  C   UNL     1       0.719   0.683   1.037  0.00  0.00    +0.000 A 
ENDBRANCH   1   6
BRANCH   2   9
ATOM      9  C   UNL     1      -5.162  -0.357  -0.641  0.00  0.00    +0.000 A 
ATOM     10  C   UNL     1      -5.626   0.780  -1.331  0.00  0.00    +0.000 A 
ATOM     11  C   UNL     1      -6.993   1.024  -1.478  0.00  0.00    +0.000 A 
ATOM     12  C   UNL     1      -7.919   0.131  -0.951  0.00  0.00    +0.000 A 
ATOM     13  C   UNL     1      -7.477  -1.010  -0.278  0.00  0.00    +0.000 A 
ATOM     14  C   UNL     1      -6.103  -1.270  -0.108  0.00  0.00    +0.000 A 
BRANCH  14  15
ATOM     15  N   UNL     1      -5.679  -2.420   0.539  0.00  0.00    +0.000 NA
ATOM     16  O   UNL     1      -6.361  -2.709   1.530  0.00  0.00    +0.000 OA
ENDBRANCH  14  15
ENDBRANCH   2   9
TORSDOF 3
