MODEL 1
REMARK VINA RESULT:      -4.5      0.000      0.000
REMARK  Name = *****
REMARK  4 active torsions:
REMARK  status: ('A' for Active; 'I' for Inactive)
REMARK    1  A    between atoms: C_1  and  C_2
REMARK    2  A    between atoms: C_5  and  S_8
REMARK    3  A    between atoms: S_8  and  C_9
REMARK    4  A    between atoms: C_9  and  C_11
REMARK                            x       y       z     vdW  Elec       q    Type
REMARK                         _______ _______ _______ _____ _____    ______ ____
ROOT
ATOM      1  C   UNL     1      88.648  64.559  86.802  0.00  0.00    +0.000 C 
ATOM      2  O   UNL     1      89.534  63.903  86.268  0.00  0.00    +0.000 OA
ENDROOT
BRANCH   1   3
ATOM      3  C   UNL     1      88.749  66.052  86.849  0.00  0.00    +0.000 A 
ATOM      4  C   UNL     1      89.895  66.641  86.286  0.00  0.00    +0.000 A 
ATOM      5  C   UNL     1      90.065  68.030  86.295  0.00  0.00    +0.000 A 
ATOM      6  C   UNL     1      89.088  68.842  86.863  0.00  0.00    +0.000 A 
ATOM      7  C   UNL     1      87.942  68.276  87.420  0.00  0.00    +0.000 A 
ATOM      8  C   UNL     1      87.771  66.886  87.413  0.00  0.00    +0.000 A 
ATOM      9 CL   UNL     1      89.293  70.548  86.877  0.00  0.00    +0.000 Cl
ENDBRANCH   1   3
BRANCH   1  10
ATOM     10  S   UNL     1      87.237  63.800  87.536  0.00  0.00    +0.000 S 
BRANCH  10  15
ATOM     11  C   UNL     1      88.271  64.620  93.488  0.00  0.00    +0.000 C 
ATOM     12  C   UNL     1      88.014  64.382  92.030  0.00  0.00    +0.000 A 
ATOM     13  C   UNL     1      89.054  63.975  91.187  0.00  0.00    +0.000 A 
ATOM     14  C   UNL     1      88.825  63.781  89.821  0.00  0.00    +0.000 A 
ATOM     15  C   UNL     1      87.552  63.988  89.280  0.00  0.00    +0.000 A 
ATOM     16  C   UNL     1      86.519  64.420  90.117  0.00  0.00    +0.000 A 
ATOM     17  C   UNL     1      86.748  64.616  91.483  0.00  0.00    +0.000 A 
ENDBRANCH  10  15
ENDBRANCH   1  10
TORSDOF 3
ENDMDL
