REMARK  Name = *****
REMARK  2 active torsions:
REMARK  status: ('A' for Active; 'I' for Inactive)
REMARK    1  A    between atoms: C_5  and  C_7
REMARK    2  A    between atoms: C_8  and  C_9
REMARK                            x       y       z     vdW  Elec       q    Type
REMARK                         _______ _______ _______ _____ _____    ______ ____
ROOT
ATOM      1  C   UNL     1       1.535  -1.594  -1.357  0.00  0.00    +0.000 C 
ATOM      2  C   UNL     1       1.936  -1.960  -2.429  0.00  0.00    +0.000 C 
ENDROOT
BRANCH   1   7
ATOM      3  C   UNL     1       0.460   1.293  -0.454  0.00  0.00    +0.000 C 
ATOM      4  C   UNL     1      -0.983   1.055  -0.004  0.00  0.00    +0.000 C 
ATOM      5  C   UNL     1      -1.345  -0.399   0.075  0.00  0.00    +0.000 C 
ATOM      6  C   UNL     1      -0.434  -1.385   0.041  0.00  0.00    +0.000 C 
ATOM      7  C   UNL     1       1.052  -1.149  -0.037  0.00  0.00    +0.000 C 
ATOM      8  C   UNL     1       1.427   0.321   0.225  0.00  0.00    +0.000 C 
ENDBRANCH   1   7
BRANCH   2   9
ATOM      9  C   UNL     1       2.414  -2.395  -3.705  0.00  0.00    +0.000 A 
ATOM     10  C   UNL     1       2.534  -1.484  -4.757  0.00  0.00    +0.000 A 
ATOM     11  C   UNL     1       3.002  -1.910  -6.001  0.00  0.00    +0.000 A 
ATOM     12  C   UNL     1       3.350  -3.247  -6.195  0.00  0.00    +0.000 A 
ATOM     13  C   UNL     1       3.231  -4.158  -5.147  0.00  0.00    +0.000 A 
ATOM     14  C   UNL     1       2.763  -3.733  -3.902  0.00  0.00    +0.000 A 
ENDBRANCH   2   9
TORSDOF 2
