MODEL 1
REMARK VINA RESULT:      -4.4      0.000      0.000
REMARK  Name = *****
REMARK  3 active torsions:
REMARK  status: ('A' for Active; 'I' for Inactive)
REMARK    1  A    between atoms: C_3  and  C_4
REMARK    2  A    between atoms: C_3  and  C_10
REMARK    3  A    between atoms: C_4  and  C_5
REMARK                            x       y       z     vdW  Elec       q    Type
REMARK                         _______ _______ _______ _____ _____    ______ ____
ROOT
ATOM      1  C   UNL     1      87.589  70.842  90.380  0.00  0.00    +0.000 C 
ATOM      2  C   UNL     1      87.487  70.892  89.087  0.00  0.00    +0.000 C 
ATOM      3  C   UNL     1      87.391  70.945  87.783  0.00  0.00    +0.000 C 
ENDROOT
BRANCH   3   4
ATOM      4  C   UNL     1      86.178  71.527  87.155  0.00  0.00    +0.000 A 
ATOM      5  C   UNL     1      85.096  71.979  87.922  0.00  0.00    +0.000 A 
ATOM      6  C   UNL     1      83.965  72.535  87.315  0.00  0.00    +0.000 A 
ATOM      7  C   UNL     1      83.898  72.644  85.928  0.00  0.00    +0.000 A 
ATOM      8  C   UNL     1      84.960  72.194  85.148  0.00  0.00    +0.000 A 
ATOM      9  C   UNL     1      86.089  71.638  85.757  0.00  0.00    +0.000 A 
ENDBRANCH   3   4
BRANCH   3  10
ATOM     10  C   UNL     1      88.498  70.415  86.893  0.00  0.00    +0.000 C 
BRANCH  10  11
ATOM     11  C   UNL     1      88.878  68.965  87.217  0.00  0.00    +0.000 C 
ATOM     12  C   UNL     1      89.874  68.386  86.212  0.00  0.00    +0.000 C 
ATOM     13  C   UNL     1      89.804  66.884  86.453  0.00  0.00    +0.000 C 
ATOM     14  C   UNL     1      88.393  66.609  86.971  0.00  0.00    +0.000 C 
ATOM     15  C   UNL     1      87.719  67.972  87.124  0.00  0.00    +0.000 C 
ENDBRANCH  10  11
ENDBRANCH   3  10
TORSDOF 3
ENDMDL
