MODEL 1
REMARK VINA RESULT:      -3.6      0.000      0.000
REMARK  Name = *****
REMARK  5 active torsions:
REMARK  status: ('A' for Active; 'I' for Inactive)
REMARK    1  A    between atoms: C_4  and  C_7
REMARK    2  A    between atoms: C_7  and  C_8
REMARK    3  A    between atoms: C_8  and  O_9
REMARK    4  A    between atoms: O_9  and  C_10
REMARK    5  A    between atoms: C_10  and  C_11
REMARK                            x       y       z     vdW  Elec       q    Type
REMARK                         _______ _______ _______ _____ _____    ______ ____
ROOT
ATOM      1  C   UNL     1      90.031  70.394  83.175  0.00  0.00    +0.000 C 
ENDROOT
BRANCH   1   2
ATOM      2  C   UNL     1      90.424  70.994  84.529  0.00  0.00    +0.000 C 
BRANCH   2   6
ATOM      3  C   UNL     1      87.324  70.638  87.511  0.00  0.00    +0.000 A 
ATOM      4  C   UNL     1      87.009  71.077  86.226  0.00  0.00    +0.000 A 
ATOM      5  C   UNL     1      88.010  71.190  85.260  0.00  0.00    +0.000 A 
ATOM      6  C   UNL     1      89.336  70.862  85.569  0.00  0.00    +0.000 A 
ATOM      7  C   UNL     1      89.644  70.427  86.866  0.00  0.00    +0.000 A 
ATOM      8  C   UNL     1      88.642  70.315  87.831  0.00  0.00    +0.000 A 
ENDBRANCH   2   6
ENDBRANCH   1   2
BRANCH   1   9
ATOM      9  O   UNL     1      90.353  69.006  83.063  0.00  0.00    +0.000 OA
BRANCH   9  10
ATOM     10  C   UNL     1      89.211  68.152  83.071  0.00  0.00    +0.000 C 
BRANCH  10  11
ATOM     11  C   UNL     1      88.979  67.582  84.451  0.00  0.00    +0.000 A 
ATOM     12  C   UNL     1      90.042  67.149  85.257  0.00  0.00    +0.000 A 
ATOM     13  C   UNL     1      89.808  66.665  86.546  0.00  0.00    +0.000 A 
ATOM     14  C   UNL     1      88.510  66.619  87.049  0.00  0.00    +0.000 A 
ATOM     15  C   UNL     1      87.444  67.059  86.265  0.00  0.00    +0.000 A 
ATOM     16  C   UNL     1      87.679  67.543  84.976  0.00  0.00    +0.000 A 
ENDBRANCH  10  11
ENDBRANCH   9  10
ENDBRANCH   1   9
TORSDOF 5
ENDMDL
