REMARK  Name = *****
REMARK  3 active torsions:
REMARK  status: ('A' for Active; 'I' for Inactive)
REMARK    1  A    between atoms: C_1  and  N_2
REMARK    2  A    between atoms: N_2  and  C_3
REMARK    3  A    between atoms: C_9  and  C_11
REMARK                            x       y       z     vdW  Elec       q    Type
REMARK                         _______ _______ _______ _____ _____    ______ ____
ROOT
ATOM      1  C   UNL     1       0.594   0.800  -0.344  0.00  0.00    +0.000 C 
ATOM      2  N   UNL     1       1.989   0.400  -0.204  0.00  0.00    +0.000 N 
ATOM      3  C   UNL     1       2.597  -0.545  -1.031  0.00  0.00    +0.000 C 
ATOM      4  O   UNL     1       3.714  -1.010  -0.831  0.00  0.00    +0.000 OA
ENDROOT
BRANCH   3   5
ATOM      5  C   UNL     1       1.833  -1.007  -2.228  0.00  0.00    +0.000 C 
ATOM      6  C   UNL     1       2.562  -1.157  -3.553  0.00  0.00    +0.000 C 
ATOM      7  C   UNL     1       1.568  -0.039  -3.368  0.00  0.00    +0.000 C 
ATOM      8  C   UNL     1       0.581  -0.240  -4.513  0.00  0.00    +0.000 C 
ATOM      9  C   UNL     1      -0.276  -1.502  -4.292  0.00  0.00    +0.000 C 
ATOM     10  C   UNL     1       0.744  -2.648  -4.489  0.00  0.00    +0.000 C 
ATOM     11  C   UNL     1       2.053  -1.893  -4.789  0.00  0.00    +0.000 C 
ATOM     12  C   UNL     1       1.520  -0.721  -5.632  0.00  0.00    +0.000 C 
ENDBRANCH   3   5
BRANCH   2  13
ATOM     13  C   UNL     1       2.766   0.918   0.936  0.00  0.00    +0.000 C 
ATOM     14  C   UNL     1       2.528   0.070   2.197  0.00  0.00    +0.000 C 
ATOM     15  C   UNL     1       3.358   0.570   3.377  0.00  0.00    +0.000 C 
ATOM     16  C   UNL     1       3.126   2.054   3.646  0.00  0.00    +0.000 C 
ATOM     17  C   UNL     1       3.364   2.898   2.396  0.00  0.00    +0.000 C 
ATOM     18  C   UNL     1       2.519   2.409   1.222  0.00  0.00    +0.000 C 
ENDBRANCH   2  13
TORSDOF 2
