MODEL 1
REMARK VINA RESULT:      -4.4      0.000      0.000
REMARK  Name = *****
REMARK  3 active torsions:
REMARK  status: ('A' for Active; 'I' for Inactive)
REMARK    1  A    between atoms: C_3  and  N_4
REMARK    2  A    between atoms: N_4  and  C_5
REMARK    3  A    between atoms: C_11  and  C_13
REMARK                            x       y       z     vdW  Elec       q    Type
REMARK                         _______ _______ _______ _____ _____    ______ ____
ROOT
ATOM      1  N   UNL     1     103.196 125.776  81.872  0.00  0.00    +0.000 N 
ATOM      2  C   UNL     1     103.694 124.687  82.627  0.00  0.00    +0.000 C 
ATOM      3  O   UNL     1     103.354 124.347  83.759  0.00  0.00    +0.000 OA
ENDROOT
BRANCH   2   4
ATOM      4  C   UNL     1     104.809 123.906  82.059  0.00  0.00    +0.000 A 
ATOM      5  C   UNL     1     104.509 122.872  81.161  0.00  0.00    +0.000 A 
ATOM      6  C   UNL     1     105.543 122.139  80.576  0.00  0.00    +0.000 A 
ATOM      7  C   UNL     1     106.870 122.449  80.873  0.00  0.00    +0.000 A 
ATOM      8  C   UNL     1     107.168 123.496  81.748  0.00  0.00    +0.000 A 
ATOM      9  C   UNL     1     106.138 124.236  82.338  0.00  0.00    +0.000 A 
ATOM     10 CL   UNL     1     106.570 125.513  83.417  0.00  0.00    +0.000 Cl
ENDBRANCH   2   4
BRANCH   1  11
ATOM     11  C   UNL     1     102.174 126.638  82.419  0.00  0.00    +0.000 A 
ATOM     12  C   UNL     1     100.812 126.357  82.213  0.00  0.00    +0.000 A 
ATOM     13  C   UNL     1      99.808 127.175  82.747  0.00  0.00    +0.000 A 
ATOM     14  C   UNL     1     100.148 128.291  83.503  0.00  0.00    +0.000 A 
ATOM     15  C   UNL     1     101.487 128.587  83.724  0.00  0.00    +0.000 A 
ATOM     16  C   UNL     1     102.489 127.769  83.188  0.00  0.00    +0.000 A 
ENDBRANCH   1  11
BRANCH   1  19
ATOM     17  C   UNL     1     104.922 127.162  80.494  0.00  0.00    +0.000 C 
ATOM     18  C   UNL     1     103.569 127.507  79.969  0.00  0.00    +0.000 C 
ATOM     19  C   UNL     1     103.799 126.148  80.597  0.00  0.00    +0.000 C 
ENDBRANCH   1  19
TORSDOF 3
ENDMDL
