MODEL 1
REMARK VINA RESULT:      -4.8      0.000      0.000
REMARK  Name = *****
REMARK  3 active torsions:
REMARK  status: ('A' for Active; 'I' for Inactive)
REMARK    1  A    between atoms: C_4  and  C_7
REMARK    2  A    between atoms: C_7  and  C_8
REMARK    3  A    between atoms: C_9  and  C_10
REMARK                            x       y       z     vdW  Elec       q    Type
REMARK                         _______ _______ _______ _____ _____    ______ ____
ROOT
ATOM      1  C   UNL     1      88.696  66.316  86.903  0.00  0.00    +0.000 C 
ATOM      2  C   UNL     1      89.760  66.935  86.370  0.00  0.00    +0.000 C 
ATOM      3  F   UNL     1      90.892  66.216  86.181  0.00  0.00    +0.000 F 
ENDROOT
BRANCH   2   4
ATOM      4  C   UNL     1      89.793  68.340  85.928  0.00  0.00    +0.000 A 
ATOM      5  C   UNL     1      89.963  68.712  84.586  0.00  0.00    +0.000 A 
ATOM      6  C   UNL     1      89.970  70.059  84.213  0.00  0.00    +0.000 A 
ATOM      7  C   UNL     1      89.800  71.052  85.175  0.00  0.00    +0.000 A 
ATOM      8  C   UNL     1      89.617  70.699  86.509  0.00  0.00    +0.000 A 
ATOM      9  C   UNL     1      89.609  69.352  86.881  0.00  0.00    +0.000 A 
ENDBRANCH   2   4
BRANCH   1  10
ATOM     10  C   UNL     1      88.696  64.879  87.336  0.00  0.00    +0.000 C 
BRANCH  10  14
ATOM     11  C   UNL     1      87.198  64.421  91.356  0.00  0.00    +0.000 A 
ATOM     12  C   UNL     1      86.469  65.154  90.421  0.00  0.00    +0.000 A 
ATOM     13  C   UNL     1      86.949  65.301  89.119  0.00  0.00    +0.000 A 
ATOM     14  C   UNL     1      88.161  64.710  88.738  0.00  0.00    +0.000 A 
ATOM     15  C   UNL     1      88.889  63.979  89.689  0.00  0.00    +0.000 A 
ATOM     16  C   UNL     1      88.408  63.834  90.991  0.00  0.00    +0.000 A 
ENDBRANCH  10  14
ENDBRANCH   1  10
TORSDOF 3
ENDMDL
