REMARK  Name = *****
REMARK  0 active torsions:
REMARK  status: ('A' for Active; 'I' for Inactive)
REMARK                            x       y       z     vdW  Elec       q    Type
REMARK                         _______ _______ _______ _____ _____    ______ ____
ROOT
ATOM      1  C   UNL     1      -0.839  -0.573   0.492  0.00  0.00    +0.000 A 
ATOM      2  C   UNL     1      -0.845  -0.672  -0.902  0.00  0.00    +0.000 A 
ATOM      3  C   UNL     1       0.356  -0.646  -1.613  0.00  0.00    +0.000 A 
ATOM      4  C   UNL     1       1.562  -0.508  -0.927  0.00  0.00    +0.000 A 
ATOM      5  C   UNL     1       1.574  -0.438   0.486  0.00  0.00    +0.000 A 
ATOM      6  C   UNL     1       0.367  -0.454   1.187  0.00  0.00    +0.000 A 
ATOM      7  C   UNL     1       2.849  -0.289   1.205  0.00  0.00    +0.000 C 
ATOM      8  C   UNL     1       3.803  -1.177   0.873  0.00  0.00    +0.000 C 
ATOM      9  C   UNL     1       4.967  -0.621   0.165  0.00  0.00    +0.000 A 
ATOM     10  C   UNL     1       6.261  -0.968   0.557  0.00  0.00    +0.000 A 
ATOM     11  C   UNL     1       7.359  -0.465  -0.145  0.00  0.00    +0.000 A 
ATOM     12  C   UNL     1       7.169   0.381  -1.241  0.00  0.00    +0.000 A 
ATOM     13  C   UNL     1       5.879   0.725  -1.649  0.00  0.00    +0.000 A 
ATOM     14  C   UNL     1       4.779   0.209  -0.965  0.00  0.00    +0.000 A 
ATOM     15  O   UNL     1       3.526   0.634  -1.384  0.00  0.00    +0.000 OA
ATOM     16  O   UNL     1       2.721  -0.559  -1.690  0.00  0.00    +0.000 OA
ENDROOT
TORSDOF 0
