MODEL 1
REMARK VINA RESULT:      -4.4      0.000      0.000
REMARK  Name = *****
REMARK  4 active torsions:
REMARK  status: ('A' for Active; 'I' for Inactive)
REMARK    1  A    between atoms: C_1  and  C_2
REMARK    2  A    between atoms: C_1  and  C_9
REMARK    3  A    between atoms: C_2  and  C_3
REMARK    4  A    between atoms: C_9  and  C_10
REMARK                            x       y       z     vdW  Elec       q    Type
REMARK                         _______ _______ _______ _____ _____    ______ ____
ROOT
ATOM      1  C   UNL     1      87.723  69.869  88.291  0.00  0.00    +0.000 C 
ENDROOT
BRANCH   1   2
ATOM      2  C   UNL     1      87.021  71.149  88.746  0.00  0.00    +0.000 C 
BRANCH   2   3
ATOM      3  C   UNL     1      85.992  71.609  87.743  0.00  0.00    +0.000 A 
ATOM      4  C   UNL     1      86.242  71.503  86.369  0.00  0.00    +0.000 A 
ATOM      5  C   UNL     1      85.297  71.945  85.441  0.00  0.00    +0.000 A 
ATOM      6  C   UNL     1      84.095  72.499  85.880  0.00  0.00    +0.000 A 
ATOM      7  C   UNL     1      83.840  72.614  87.245  0.00  0.00    +0.000 A 
ATOM      8  C   UNL     1      84.784  72.173  88.173  0.00  0.00    +0.000 A 
ENDBRANCH   2   3
ENDBRANCH   1   2
BRANCH   1   9
ATOM      9  C   UNL     1      89.197  70.134  87.978  0.00  0.00    +0.000 C 
BRANCH   9  10
ATOM     10  C   UNL     1      89.519  69.861  86.531  0.00  0.00    +0.000 A 
ATOM     11  C   UNL     1      89.801  70.917  85.654  0.00  0.00    +0.000 A 
ATOM     12  C   UNL     1      90.083  70.664  84.310  0.00  0.00    +0.000 A 
ATOM     13  C   UNL     1      90.080  69.356  83.830  0.00  0.00    +0.000 A 
ATOM     14  C   UNL     1      89.793  68.299  84.692  0.00  0.00    +0.000 A 
ATOM     15  C   UNL     1      89.512  68.550  86.036  0.00  0.00    +0.000 A 
ENDBRANCH   9  10
ENDBRANCH   1   9
TORSDOF 4
ENDMDL
