MODEL 1
REMARK VINA RESULT:      -4.6      0.000      0.000
REMARK  Name = *****
REMARK  4 active torsions:
REMARK  status: ('A' for Active; 'I' for Inactive)
REMARK    1  A    between atoms: C_1  and  C_2
REMARK    2  A    between atoms: C_5  and  O_8
REMARK    3  A    between atoms: O_8  and  C_9
REMARK    4  A    between atoms: C_9  and  C_11
REMARK                            x       y       z     vdW  Elec       q    Type
REMARK                         _______ _______ _______ _____ _____    ______ ____
ROOT
ATOM      1  C   UNL     1     102.774 125.245  82.974  0.00  0.00    +0.000 C 
ATOM      2  O   UNL     1     102.700 124.848  84.129  0.00  0.00    +0.000 OA
ENDROOT
BRANCH   1   3
ATOM      3  C   UNL     1     104.033 125.161  82.182  0.00  0.00    +0.000 C 
ATOM      4  C   UNL     1     103.989 125.213  80.669  0.00  0.00    +0.000 C 
ATOM      5  C   UNL     1     104.322 123.919  81.363  0.00  0.00    +0.000 C 
ATOM      6  C   UNL     1     105.721 123.417  81.175  0.00  0.00    +0.000 C 
ATOM      7  C   UNL     1     106.106 123.457  79.694  0.00  0.00    +0.000 C 
ATOM      8  C   UNL     1     105.762 124.779  78.979  0.00  0.00    +0.000 C 
ATOM      9  C   UNL     1     105.102 125.830  79.874  0.00  0.00    +0.000 C 
ENDBRANCH   1   3
BRANCH   1  10
ATOM     10  O   UNL     1     101.765 125.825  82.218  0.00  0.00    +0.000 OA
BRANCH  10  15
ATOM     11  C   UNL     1      99.224 130.557  84.094  0.00  0.00    +0.000 C 
ATOM     12  C   UNL     1      99.902 129.299  83.639  0.00  0.00    +0.000 A 
ATOM     13  C   UNL     1     101.299 129.188  83.699  0.00  0.00    +0.000 A 
ATOM     14  C   UNL     1     101.937 128.031  83.247  0.00  0.00    +0.000 A 
ATOM     15  C   UNL     1     101.173 126.982  82.742  0.00  0.00    +0.000 A 
ATOM     16  C   UNL     1      99.787 127.088  82.640  0.00  0.00    +0.000 A 
ATOM     17  C   UNL     1      99.154 128.248  83.091  0.00  0.00    +0.000 A 
ENDBRANCH  10  15
ENDBRANCH   1  10
TORSDOF 3
ENDMDL
