MODEL 1
REMARK VINA RESULT:      -5.0      0.000      0.000
REMARK  Name = *****
REMARK  2 active torsions:
REMARK  status: ('A' for Active; 'I' for Inactive)
REMARK    1  A    between atoms: C_4  and  C_7
REMARK    2  A    between atoms: C_7  and  C_8
REMARK                            x       y       z     vdW  Elec       q    Type
REMARK                         _______ _______ _______ _____ _____    ______ ____
ROOT
ATOM      1  C   UNL     1     103.243 126.239  82.499  0.00  0.00    +0.000 A 
ATOM      2  C   UNL     1     103.477 125.268  83.395  0.00  0.00    +0.000 A 
ATOM      3  C   UNL     1     104.005 124.039  82.840  0.00  0.00    +0.000 A 
ATOM      4  C   UNL     1     104.273 122.968  83.592  0.00  0.00    +0.000 A 
ATOM      5  C   UNL     1     104.791 121.684  83.197  0.00  0.00    +0.000 A 
ATOM      6  C   UNL     1     105.146 121.253  81.983  0.00  0.00    +0.000 A 
ATOM      7  C   UNL     1     105.109 121.948  80.725  0.00  0.00    +0.000 A 
ATOM      8  C   UNL     1     104.703 123.190  80.445  0.00  0.00    +0.000 A 
ATOM      9  C   UNL     1     104.182 124.186  81.383  0.00  0.00    +0.000 A 
ATOM     10  P   UNL     1     103.698 125.744  80.833  0.00  0.00    +0.000 P 
ENDROOT
BRANCH   1  11
ATOM     11  C   UNL     1     102.733 127.618  82.801  0.00  0.00    +0.000 C 
BRANCH  11  15
ATOM     12  C   UNL     1      98.429 127.839  83.079  0.00  0.00    +0.000 A 
ATOM     13  C   UNL     1      99.214 128.855  83.618  0.00  0.00    +0.000 A 
ATOM     14  C   UNL     1     100.607 128.786  83.527  0.00  0.00    +0.000 A 
ATOM     15  C   UNL     1     101.225 127.701  82.888  0.00  0.00    +0.000 A 
ATOM     16  C   UNL     1     100.423 126.682  82.354  0.00  0.00    +0.000 A 
ATOM     17  C   UNL     1      99.033 126.752  82.448  0.00  0.00    +0.000 A 
ENDBRANCH  11  15
ENDBRANCH   1  11
TORSDOF 2
ENDMDL
