MODEL 1
REMARK VINA RESULT:      -5.2      0.000      0.000
REMARK  Name = *****
REMARK  1 active torsions:
REMARK  status: ('A' for Active; 'I' for Inactive)
REMARK    1  A    between atoms: C_4  and  C_7
REMARK                            x       y       z     vdW  Elec       q    Type
REMARK                         _______ _______ _______ _____ _____    ______ ____
ROOT
ATOM      1  C   UNL     1     102.263 126.078  82.399  0.00  0.00    +0.000 A 
ATOM      2  C   UNL     1     102.595 126.072  81.094  0.00  0.00    +0.000 A 
ATOM      3  C   UNL     1     103.564 125.274  80.374  0.00  0.00    +0.000 A 
ATOM      4  C   UNL     1     104.387 124.338  80.858  0.00  0.00    +0.000 A 
ATOM      5  C   UNL     1     105.336 123.590  80.056  0.00  0.00    +0.000 A 
ATOM      6  C   UNL     1     105.977 122.757  80.892  0.00  0.00    +0.000 A 
ATOM      7  C   UNL     1     105.459 122.943  82.236  0.00  0.00    +0.000 A 
ATOM      8  C   UNL     1     104.500 123.890  82.238  0.00  0.00    +0.000 A 
ATOM      9  C   UNL     1     103.778 124.309  83.405  0.00  0.00    +0.000 A 
ATOM     10  C   UNL     1     102.821 125.247  83.457  0.00  0.00    +0.000 A 
ENDROOT
BRANCH   1  14
ATOM     11  C   UNL     1      99.214 128.921  83.386  0.00  0.00    +0.000 A 
ATOM     12  C   UNL     1     100.544 129.190  83.706  0.00  0.00    +0.000 A 
ATOM     13  C   UNL     1     101.539 128.264  83.387  0.00  0.00    +0.000 A 
ATOM     14  C   UNL     1     101.206 127.061  82.751  0.00  0.00    +0.000 A 
ATOM     15  C   UNL     1      99.867 126.800  82.429  0.00  0.00    +0.000 A 
ATOM     16  C   UNL     1      98.875 127.728  82.748  0.00  0.00    +0.000 A 
ENDBRANCH   1  14
TORSDOF 1
ENDMDL
