MODEL 1
REMARK VINA RESULT:      -4.8      0.000      0.000
REMARK  Name = *****
REMARK  3 active torsions:
REMARK  status: ('A' for Active; 'I' for Inactive)
REMARK    1  A    between atoms: C_1  and  C_2
REMARK    2  A    between atoms: C_5  and  C_8
REMARK    3  A    between atoms: C_9  and  C_10
REMARK                            x       y       z     vdW  Elec       q    Type
REMARK                         _______ _______ _______ _____ _____    ______ ____
ROOT
ATOM      1  C   UNL     1     103.208 126.319  81.220  0.00  0.00    +0.000 C 
ATOM      2  C   UNL     1     102.376 126.146  82.263  0.00  0.00    +0.000 C 
ATOM      3  F   UNL     1     102.570 125.100  83.104  0.00  0.00    +0.000 F 
ATOM      4  F   UNL     1     103.013 127.365  80.380  0.00  0.00    +0.000 F 
ENDROOT
BRANCH   1   9
ATOM      5  C   UNL     1     107.769 122.967  79.939  0.00  0.00    +0.000 C 
ATOM      6  C   UNL     1     106.588 123.829  80.270  0.00  0.00    +0.000 A 
ATOM      7  C   UNL     1     106.748 125.178  80.596  0.00  0.00    +0.000 A 
ATOM      8  C   UNL     1     105.635 125.970  80.899  0.00  0.00    +0.000 A 
ATOM      9  C   UNL     1     104.338 125.436  80.872  0.00  0.00    +0.000 A 
ATOM     10  C   UNL     1     104.188 124.080  80.561  0.00  0.00    +0.000 A 
ATOM     11  C   UNL     1     105.300 123.285  80.257  0.00  0.00    +0.000 A 
ENDBRANCH   1   9
BRANCH   2  12
ATOM     12  C   UNL     1     101.242 127.025  82.609  0.00  0.00    +0.000 A 
ATOM     13  C   UNL     1      99.906 126.699  82.338  0.00  0.00    +0.000 A 
ATOM     14  C   UNL     1      98.868 127.559  82.712  0.00  0.00    +0.000 A 
ATOM     15  C   UNL     1      99.152 128.752  83.371  0.00  0.00    +0.000 A 
ATOM     16  C   UNL     1     100.472 129.084  83.662  0.00  0.00    +0.000 A 
ATOM     17  C   UNL     1     101.508 128.224  83.288  0.00  0.00    +0.000 A 
ENDBRANCH   2  12
TORSDOF 2
ENDMDL
