REMARK  Name = *****
REMARK  5 active torsions:
REMARK  status: ('A' for Active; 'I' for Inactive)
REMARK    1  A    between atoms: C_1  and  C_2
REMARK    2  A    between atoms: C_5  and  C_8
REMARK    3  A    between atoms: C_8  and  O_16
REMARK    4  A    between atoms: C_9  and  C_10
REMARK    5  A    between atoms: O_16  and  C_17
REMARK                            x       y       z     vdW  Elec       q    Type
REMARK                         _______ _______ _______ _____ _____    ______ ____
ROOT
ATOM      1  C   UNL     1      -3.322  -0.046  -0.201  0.00  0.00    +0.000 C 
ATOM      2  C   UNL     1      -4.081  -1.132   0.034  0.00  0.00    +0.000 C 
ENDROOT
BRANCH   1   7
ATOM      3  C   UNL     1       2.460  -0.444  -0.272  0.00  0.00    +0.000 C 
ATOM      4  C   UNL     1       0.962  -0.369  -0.261  0.00  0.00    +0.000 A 
ATOM      5  C   UNL     1       0.268   0.120  -1.373  0.00  0.00    +0.000 A 
ATOM      6  C   UNL     1      -1.126   0.218  -1.350  0.00  0.00    +0.000 A 
ATOM      7  C   UNL     1      -1.849  -0.161  -0.212  0.00  0.00    +0.000 A 
ATOM      8  C   UNL     1      -1.151  -0.634   0.906  0.00  0.00    +0.000 A 
ATOM      9  C   UNL     1       0.243  -0.733   0.884  0.00  0.00    +0.000 A 
ENDBRANCH   1   7
BRANCH   2  10
ATOM     10  C   UNL     1      -5.550  -1.198  -0.001  0.00  0.00    +0.000 A 
ATOM     11  C   UNL     1      -6.361  -0.218   0.584  0.00  0.00    +0.000 A 
ATOM     12  C   UNL     1      -7.753  -0.341   0.567  0.00  0.00    +0.000 A 
ATOM     13  C   UNL     1      -8.349  -1.453  -0.025  0.00  0.00    +0.000 A 
ATOM     14  C   UNL     1      -7.553  -2.444  -0.596  0.00  0.00    +0.000 A 
ATOM     15  C   UNL     1      -6.161  -2.319  -0.578  0.00  0.00    +0.000 A 
ENDBRANCH   2  10
BRANCH   1  16
ATOM     16  O   UNL     1      -3.868   1.163  -0.595  0.00  0.00    +0.000 OA
ATOM     17  C   UNL     1      -3.439   2.255   0.217  0.00  0.00    +0.000 C 
ENDBRANCH   1  16
TORSDOF 3
