MODEL 1
REMARK VINA RESULT:      -4.5      0.000      0.000
REMARK  Name = *****
REMARK  7 active torsions:
REMARK  status: ('A' for Active; 'I' for Inactive)
REMARK    1  A    between atoms: C_1  and  C_2
REMARK    2  A    between atoms: C_4  and  C_18
REMARK    3  A    between atoms: C_5  and  O_9
REMARK    4  A    between atoms: C_6  and  C_8
REMARK    5  A    between atoms: O_9  and  C_10
REMARK    6  A    between atoms: C_10  and  C_11
REMARK    7  A    between atoms: C_10  and  C_12
REMARK                            x       y       z     vdW  Elec       q    Type
REMARK                         _______ _______ _______ _____ _____    ______ ____
ROOT
ATOM      1  C   UNL     1      84.103  72.255  88.142  0.00  0.00    +0.000 C 
ATOM      2  C   UNL     1      85.314  71.809  87.378  0.00  0.00    +0.000 A 
ATOM      3  C   UNL     1      86.404  71.241  88.047  0.00  0.00    +0.000 A 
ATOM      4  C   UNL     1      87.560  70.852  87.350  0.00  0.00    +0.000 A 
ATOM      5  C   UNL     1      87.590  71.001  85.953  0.00  0.00    +0.000 A 
ATOM      6  C   UNL     1      86.543  71.647  85.277  0.00  0.00    +0.000 A 
ATOM      7  C   UNL     1      85.401  72.027  86.000  0.00  0.00    +0.000 A 
ATOM      8  C   UNL     1      86.586  71.912  83.799  0.00  0.00    +0.000 C 
ATOM      9  C   UNL     1      88.713  70.277  88.121  0.00  0.00    +0.000 C 
ENDROOT
BRANCH   5  10
ATOM     10  O   UNL     1      88.689  70.609  85.230  0.00  0.00    +0.000 OA
BRANCH  10  11
ATOM     11  C   UNL     1      88.438  69.441  84.423  0.00  0.00    +0.000 C 
ATOM     12  C   UNL     1      89.405  69.432  83.239  0.00  0.00    +0.000 C 
BRANCH  11  13
ATOM     13  C   UNL     1      88.654  68.193  85.267  0.00  0.00    +0.000 A 
ATOM     14  C   UNL     1      89.957  67.768  85.572  0.00  0.00    +0.000 A 
ATOM     15  C   UNL     1      90.169  66.635  86.361  0.00  0.00    +0.000 A 
ATOM     16  C   UNL     1      89.083  65.918  86.859  0.00  0.00    +0.000 A 
ATOM     17  C   UNL     1      87.785  66.332  86.571  0.00  0.00    +0.000 A 
ATOM     18  C   UNL     1      87.571  67.464  85.782  0.00  0.00    +0.000 A 
ENDBRANCH  11  13
ENDBRANCH  10  11
ENDBRANCH   5  10
TORSDOF 3
ENDMDL
