MODEL 1
REMARK VINA RESULT:      -4.6      0.000      0.000
REMARK  Name = *****
REMARK  4 active torsions:
REMARK  status: ('A' for Active; 'I' for Inactive)
REMARK    1  A    between atoms: C_1  and  C_2
REMARK    2  A    between atoms: C_7  and  O_8
REMARK    3  A    between atoms: O_8  and  C_9
REMARK    4  A    between atoms: C_9  and  C_11
REMARK                            x       y       z     vdW  Elec       q    Type
REMARK                         _______ _______ _______ _____ _____    ______ ____
ROOT
ATOM      1  C   UNL     1     102.028 125.975  82.510  0.00  0.00    +0.000 C 
ATOM      2  O   UNL     1     102.428 125.176  83.340  0.00  0.00    +0.000 OA
ENDROOT
BRANCH   1   3
ATOM      3  C   UNL     1     101.096 127.059  82.815  0.00  0.00    +0.000 A 
ATOM      4  C   UNL     1     101.525 128.204  83.478  0.00  0.00    +0.000 A 
ATOM      5  C   UNL     1     100.626 129.225  83.784  0.00  0.00    +0.000 A 
ATOM      6  C   UNL     1      99.283 129.097  83.426  0.00  0.00    +0.000 A 
ATOM      7  C   UNL     1      98.847 127.947  82.764  0.00  0.00    +0.000 A 
ATOM      8  C   UNL     1      99.756 126.932  82.465  0.00  0.00    +0.000 A 
ATOM      9  F   UNL     1      99.314 125.850  81.810  0.00  0.00    +0.000 F 
ATOM     10  F   UNL     1     102.804 128.343  83.854  0.00  0.00    +0.000 F 
ENDBRANCH   1   3
BRANCH   1  11
ATOM     11  O   UNL     1     102.293 126.024  81.155  0.00  0.00    +0.000 OA
BRANCH  11  18
ATOM     12  C   UNL     1     104.040 128.229  80.712  0.00  0.00    +0.000 C 
ATOM     13  C   UNL     1     104.489 126.807  80.550  0.00  0.00    +0.000 A 
ATOM     14  C   UNL     1     105.800 126.515  80.152  0.00  0.00    +0.000 A 
ATOM     15  C   UNL     1     106.217 125.190  80.000  0.00  0.00    +0.000 A 
ATOM     16  C   UNL     1     105.330 124.140  80.241  0.00  0.00    +0.000 A 
ATOM     17  C   UNL     1     104.023 124.412  80.638  0.00  0.00    +0.000 A 
ATOM     18  C   UNL     1     103.621 125.738  80.809  0.00  0.00    +0.000 A 
ENDBRANCH  11  18
ENDBRANCH   1  11
TORSDOF 3
ENDMDL
