MODEL 1
REMARK VINA RESULT:      -4.7      0.000      0.000
REMARK  Name = *****
REMARK  5 active torsions:
REMARK  status: ('A' for Active; 'I' for Inactive)
REMARK    1  A    between atoms: C_1  and  C_2
REMARK    2  A    between atoms: C_5  and  C_8
REMARK    3  A    between atoms: C_8  and  C_10
REMARK    4  A    between atoms: C_10  and  C_11
REMARK    5  A    between atoms: C_11  and  C_12
REMARK                            x       y       z     vdW  Elec       q    Type
REMARK                         _______ _______ _______ _____ _____    ______ ____
ROOT
ATOM      1  C   UNL     1     105.181 124.929  80.064  0.00  0.00    +0.000 C 
ATOM      2  O   UNL     1     105.555 124.701  78.915  0.00  0.00    +0.000 OA
ENDROOT
BRANCH   1   7
ATOM      3  C   UNL     1     104.178 120.368  83.518  0.00  0.00    +0.000 C 
ATOM      4  C   UNL     1     104.469 121.551  82.641  0.00  0.00    +0.000 A 
ATOM      5  C   UNL     1     104.467 122.845  83.174  0.00  0.00    +0.000 A 
ATOM      6  C   UNL     1     104.702 123.955  82.355  0.00  0.00    +0.000 A 
ATOM      7  C   UNL     1     104.937 123.779  80.987  0.00  0.00    +0.000 A 
ATOM      8  C   UNL     1     104.918 122.487  80.448  0.00  0.00    +0.000 A 
ATOM      9  C   UNL     1     104.683 121.381  81.270  0.00  0.00    +0.000 A 
ENDBRANCH   1   7
BRANCH   1  10
ATOM     10  C   UNL     1     104.893 126.331  80.554  0.00  0.00    +0.000 C 
BRANCH  10  11
ATOM     11  C   UNL     1     103.431 126.698  80.314  0.00  0.00    +0.000 C 
ATOM     12  F   UNL     1     103.419 127.795  79.492  0.00  0.00    +0.000 F 
BRANCH  11  13
ATOM     13  C   UNL     1     102.730 126.977  81.628  0.00  0.00    +0.000 A 
ATOM     14  C   UNL     1     101.745 126.104  82.111  0.00  0.00    +0.000 A 
ATOM     15  C   UNL     1     101.087 126.374  83.312  0.00  0.00    +0.000 A 
ATOM     16  C   UNL     1     101.406 127.518  84.041  0.00  0.00    +0.000 A 
ATOM     17  C   UNL     1     102.383 128.394  83.572  0.00  0.00    +0.000 A 
ATOM     18  C   UNL     1     103.043 128.126  82.372  0.00  0.00    +0.000 A 
ENDBRANCH  11  13
ENDBRANCH  10  11
ENDBRANCH   1  10
TORSDOF 4
ENDMDL
