MODEL 1
REMARK VINA RESULT:      -4.4      0.000      0.000
REMARK  Name = *****
REMARK  4 active torsions:
REMARK  status: ('A' for Active; 'I' for Inactive)
REMARK    1  A    between atoms: C_1  and  S_2
REMARK    2  A    between atoms: S_2  and  C_3
REMARK    3  A    between atoms: C_3  and  C_11
REMARK    4  A    between atoms: N_4  and  C_5
REMARK                            x       y       z     vdW  Elec       q    Type
REMARK                         _______ _______ _______ _____ _____    ______ ____
ROOT
ATOM      1  C   UNL     1     102.880 125.866  81.896  0.00  0.00    +0.000 C 
ATOM      2  N   UNL     1     101.891 125.834  82.739  0.00  0.00    +0.000 NA
ENDROOT
BRANCH   2   3
ATOM      3  C   UNL     1     101.016 126.915  82.904  0.00  0.00    +0.000 A 
ATOM      4  C   UNL     1      99.709 126.820  82.418  0.00  0.00    +0.000 A 
ATOM      5  C   UNL     1      98.803 127.866  82.608  0.00  0.00    +0.000 A 
ATOM      6  C   UNL     1      99.196 129.011  83.298  0.00  0.00    +0.000 A 
ATOM      7  C   UNL     1     100.490 129.105  83.808  0.00  0.00    +0.000 A 
ATOM      8  C   UNL     1     101.392 128.055  83.621  0.00  0.00    +0.000 A 
ENDBRANCH   2   3
BRANCH   1   9
ATOM      9  C   UNL     1     103.769 124.666  81.780  0.00  0.00    +0.000 A 
ATOM     10  C   UNL     1     104.104 123.863  82.879  0.00  0.00    +0.000 A 
ATOM     11  C   UNL     1     104.941 122.756  82.713  0.00  0.00    +0.000 A 
ATOM     12  C   UNL     1     105.445 122.441  81.452  0.00  0.00    +0.000 A 
ATOM     13  C   UNL     1     105.107 123.225  80.351  0.00  0.00    +0.000 A 
ATOM     14  C   UNL     1     104.268 124.330  80.513  0.00  0.00    +0.000 A 
ENDBRANCH   1   9
BRANCH   1  16
ATOM     15  C   UNL     1     104.638 127.907  81.733  0.00  0.00    +0.000 C 
ATOM     16  S   UNL     1     103.241 127.218  80.820  0.00  0.00    +0.000 S 
ENDBRANCH   1  16
TORSDOF 3
ENDMDL
