MODEL 1
REMARK VINA RESULT:      -5.0      0.000      0.000
REMARK  Name = *****
REMARK  1 active torsions:
REMARK  status: ('A' for Active; 'I' for Inactive)
REMARK    1  A    between atoms: C_1  and  N_2
REMARK                            x       y       z     vdW  Elec       q    Type
REMARK                         _______ _______ _______ _____ _____    ______ ____
ROOT
ATOM      1  C   UNL     1      85.755  68.369  85.185  0.00  0.00    +0.000 C 
ATOM      2  N   UNL     1      86.991  69.099  84.919  0.00  0.00    +0.000 N 
ATOM      3  C   UNL     1      88.193  68.319  85.093  0.00  0.00    +0.000 A 
ATOM      4  C   UNL     1      88.936  68.344  86.309  0.00  0.00    +0.000 A 
ATOM      5  C   UNL     1      90.073  67.554  86.457  0.00  0.00    +0.000 A 
ATOM      6  C   UNL     1      90.458  66.730  85.406  0.00  0.00    +0.000 A 
ATOM      7  C   UNL     1      89.726  66.670  84.220  0.00  0.00    +0.000 A 
ATOM      8  C   UNL     1      88.584  67.459  84.064  0.00  0.00    +0.000 A 
ATOM      9  F   UNL     1      91.546  65.960  85.541  0.00  0.00    +0.000 F 
ATOM     10  C   UNL     1      88.445  69.141  87.391  0.00  0.00    +0.000 C 
ATOM     11  C   UNL     1      87.665  69.941  87.827  0.00  0.00    +0.000 C 
ATOM     12  C   UNL     1      86.569  70.825  87.581  0.00  0.00    +0.000 A 
ATOM     13  C   UNL     1      85.832  71.408  88.605  0.00  0.00    +0.000 A 
ATOM     14  C   UNL     1      84.769  72.258  88.279  0.00  0.00    +0.000 A 
ATOM     15  C   UNL     1      84.452  72.528  86.942  0.00  0.00    +0.000 A 
ATOM     16  C   UNL     1      85.189  71.946  85.908  0.00  0.00    +0.000 A 
ATOM     17  C   UNL     1      86.230  71.075  86.230  0.00  0.00    +0.000 A 
ATOM     18  C   UNL     1      87.080  70.485  85.156  0.00  0.00    +0.000 C 
ATOM     19  O   UNL     1      87.899  71.219  84.607  0.00  0.00    +0.000 OA
ENDROOT
TORSDOF 0
ENDMDL
