MODEL 1
REMARK VINA RESULT:      -5.0      0.000      0.000
REMARK  Name = *****
REMARK  2 active torsions:
REMARK  status: ('A' for Active; 'I' for Inactive)
REMARK    1  A    between atoms: C_1  and  C_2
REMARK    2  A    between atoms: C_3  and  C_13
REMARK                            x       y       z     vdW  Elec       q    Type
REMARK                         _______ _______ _______ _____ _____    ______ ____
ROOT
ATOM      1  C   UNL     1     103.739 128.597  83.038  0.00  0.00    +0.000 C 
ATOM      2  C   UNL     1     102.291 128.156  83.114  0.00  0.00    +0.000 A 
ATOM      3  C   UNL     1     101.882 126.950  82.664  0.00  0.00    +0.000 A 
ATOM      4  S   UNL     1     100.247 126.386  82.715  0.00  0.00    +0.000 S 
ATOM      5  C   UNL     1      99.338 127.871  82.799  0.00  0.00    +0.000 A 
ATOM      6  O   UNL     1      98.207 127.942  82.333  0.00  0.00    +0.000 OA
ATOM      7  C   UNL     1      99.938 129.008  83.525  0.00  0.00    +0.000 A 
ATOM      8  C   UNL     1      99.051 129.977  84.033  0.00  0.00    +0.000 A 
ATOM      9  C   UNL     1      99.531 131.068  84.752  0.00  0.00    +0.000 A 
ATOM     10  C   UNL     1     100.897 131.196  84.962  0.00  0.00    +0.000 A 
ATOM     11  C   UNL     1     101.780 130.242  84.447  0.00  0.00    +0.000 A 
ATOM     12  C   UNL     1     101.326 129.130  83.708  0.00  0.00    +0.000 A 
ENDROOT
BRANCH   3  13
ATOM     13  C   UNL     1     102.808 125.950  82.100  0.00  0.00    +0.000 A 
ATOM     14  C   UNL     1     103.141 125.979  80.739  0.00  0.00    +0.000 A 
ATOM     15  C   UNL     1     104.004 125.021  80.203  0.00  0.00    +0.000 A 
ATOM     16  C   UNL     1     104.537 124.026  81.022  0.00  0.00    +0.000 A 
ATOM     17  C   UNL     1     104.211 123.987  82.377  0.00  0.00    +0.000 A 
ATOM     18  C   UNL     1     103.349 124.945  82.916  0.00  0.00    +0.000 A 
ENDBRANCH   3  13
TORSDOF 1
ENDMDL
