MODEL 1
REMARK VINA RESULT:      -4.9      0.000      0.000
REMARK  Name = *****
REMARK  3 active torsions:
REMARK  status: ('A' for Active; 'I' for Inactive)
REMARK    1  A    between atoms: C_4  and  C_8
REMARK    2  A    between atoms: C_9  and  C_10
REMARK    3  A    between atoms: C_10  and  C_12
REMARK                            x       y       z     vdW  Elec       q    Type
REMARK                         _______ _______ _______ _____ _____    ______ ____
ROOT
ATOM      1  C   UNL     1     104.347 128.434  82.077  0.00  0.00    +0.000 C 
ATOM      2  C   UNL     1     103.616 128.934  83.085  0.00  0.00    +0.000 C 
ENDROOT
BRANCH   1   6
ATOM      3  C   UNL     1     104.518 124.347  80.811  0.00  0.00    +0.000 A 
ATOM      4  C   UNL     1     103.860 125.299  80.034  0.00  0.00    +0.000 A 
ATOM      5  C   UNL     1     103.810 126.628  80.456  0.00  0.00    +0.000 A 
ATOM      6  C   UNL     1     104.405 127.033  81.653  0.00  0.00    +0.000 A 
ATOM      7  C   UNL     1     105.072 126.067  82.412  0.00  0.00    +0.000 A 
ATOM      8  C   UNL     1     105.129 124.734  82.003  0.00  0.00    +0.000 A 
ATOM      9  F   UNL     1     105.695 126.413  83.550  0.00  0.00    +0.000 F 
ATOM     10  F   UNL     1     103.184 127.524  79.677  0.00  0.00    +0.000 F 
ENDBRANCH   1   6
BRANCH   2  11
ATOM     11  C   UNL     1     102.668 128.151  83.932  0.00  0.00    +0.000 C 
ATOM     12  O   UNL     1     102.991 127.594  84.973  0.00  0.00    +0.000 OA
BRANCH  11  13
ATOM     13  C   UNL     1     101.277 128.051  83.466  0.00  0.00    +0.000 A 
ATOM     14  C   UNL     1     100.788 126.891  82.869  0.00  0.00    +0.000 A 
ATOM     15  C   UNL     1      99.458 126.807  82.454  0.00  0.00    +0.000 A 
ATOM     16  C   UNL     1      98.601 127.891  82.643  0.00  0.00    +0.000 A 
ATOM     17  C   UNL     1      99.081 129.054  83.248  0.00  0.00    +0.000 A 
ATOM     18  C   UNL     1     100.413 129.126  83.659  0.00  0.00    +0.000 A 
ATOM     19  F   UNL     1     100.844 130.269  84.212  0.00  0.00    +0.000 F 
ATOM     20  F   UNL     1     101.579 125.824  82.687  0.00  0.00    +0.000 F 
ENDBRANCH  11  13
ENDBRANCH   2  11
TORSDOF 3
ENDMDL
