MODEL 1
REMARK VINA RESULT:      -4.2      0.000      0.000
REMARK  Name = *****
REMARK  5 active torsions:
REMARK  status: ('A' for Active; 'I' for Inactive)
REMARK    1  A    between atoms: C_1  and  C_2
REMARK    2  A    between atoms: C_2  and  C_3
REMARK    3  A    between atoms: C_2  and  C_4
REMARK    4  A    between atoms: C_2  and  S_10
REMARK    5  A    between atoms: S_10  and  C_12
REMARK                            x       y       z     vdW  Elec       q    Type
REMARK                         _______ _______ _______ _____ _____    ______ ____
ROOT
ATOM      1  C   UNL     1      85.960  66.170  87.764  0.00  0.00    +0.000 C 
ATOM      2  C   UNL     1      87.080  65.106  87.843  0.00  0.00    +0.000 C 
ATOM      3  C   UNL     1      88.278  65.693  87.054  0.00  0.00    +0.000 C 
ENDROOT
BRANCH   2   4
ATOM      4  C   UNL     1      87.520  64.752  89.273  0.00  0.00    +0.000 A 
ATOM      5  C   UNL     1      86.679  65.031  90.370  0.00  0.00    +0.000 A 
ATOM      6  C   UNL     1      87.055  64.718  91.679  0.00  0.00    +0.000 A 
ATOM      7  C   UNL     1      88.284  64.118  91.927  0.00  0.00    +0.000 A 
ATOM      8  C   UNL     1      89.135  63.834  90.865  0.00  0.00    +0.000 A 
ATOM      9  C   UNL     1      88.758  64.147  89.555  0.00  0.00    +0.000 A 
ENDBRANCH   2   4
BRANCH   2  10
ATOM     10  S   UNL     1      86.488  63.604  86.868  0.00  0.00    +0.000 S 
ATOM     11  O   UNL     1      87.687  62.786  86.481  0.00  0.00    +0.000 OA
BRANCH  10  12
ATOM     12  C   UNL     1      85.641  62.676  88.166  0.00  0.00    +0.000 A 
ATOM     13  C   UNL     1      84.287  62.927  88.424  0.00  0.00    +0.000 A 
ATOM     14  C   UNL     1      83.613  62.204  89.410  0.00  0.00    +0.000 A 
ATOM     15  C   UNL     1      84.282  61.218  90.134  0.00  0.00    +0.000 A 
ATOM     16  C   UNL     1      85.622  60.947  89.865  0.00  0.00    +0.000 A 
ATOM     17  C   UNL     1      86.296  61.667  88.878  0.00  0.00    +0.000 A 
ENDBRANCH  10  12
ENDBRANCH   2  10
TORSDOF 3
ENDMDL
