REMARK  Name = *****
REMARK  5 active torsions:
REMARK  status: ('A' for Active; 'I' for Inactive)
REMARK    1  A    between atoms: C_1  and  C_2
REMARK    2  A    between atoms: C_5  and  S_8
REMARK    3  A    between atoms: S_8  and  S_10
REMARK    4  A    between atoms: S_10  and  C_13
REMARK    5  A    between atoms: C_16  and  C_19
REMARK                            x       y       z     vdW  Elec       q    Type
REMARK                         _______ _______ _______ _____ _____    ______ ____
ROOT
ATOM      1  S   UNL     1      -4.268   1.960  -0.283  0.00  0.00    +0.000 S 
ATOM      2  O   UNL     1      -3.819   2.434   1.014  0.00  0.00    +0.000 OA
ATOM      3  O   UNL     1      -3.872   2.651  -1.501  0.00  0.00    +0.000 OA
ENDROOT
BRANCH   1   4
ATOM      4  C   UNL     1      -6.045   1.915  -0.243  0.00  0.00    +0.000 A 
ATOM      5  C   UNL     1      -6.689   1.435   0.900  0.00  0.00    +0.000 A 
ATOM      6  C   UNL     1      -8.084   1.409   0.943  0.00  0.00    +0.000 A 
ATOM      7  C   UNL     1      -8.837   1.859  -0.150  0.00  0.00    +0.000 A 
ATOM      8  C   UNL     1      -8.176   2.366  -1.277  0.00  0.00    +0.000 A 
ATOM      9  C   UNL     1      -6.782   2.394  -1.329  0.00  0.00    +0.000 A 
ATOM     10  C   UNL     1     -10.337   1.864  -0.084  0.00  0.00    +0.000 C 
ENDBRANCH   1   4
BRANCH   1  11
ATOM     11  S   UNL     1      -3.629   0.026  -0.522  0.00  0.00    +0.000 S 
ATOM     12  O   UNL     1      -4.203  -0.668   0.685  0.00  0.00    +0.000 OA
BRANCH  11  17
ATOM     13  C   UNL     1       2.376   0.626   0.498  0.00  0.00    +0.000 C 
ATOM     14  C   UNL     1       0.908   0.451   0.240  0.00  0.00    +0.000 A 
ATOM     15  C   UNL     1       0.087  -0.154   1.198  0.00  0.00    +0.000 A 
ATOM     16  C   UNL     1      -1.286  -0.284   0.974  0.00  0.00    +0.000 A 
ATOM     17  C   UNL     1      -1.859   0.207  -0.203  0.00  0.00    +0.000 A 
ATOM     18  C   UNL     1      -1.041   0.818  -1.160  0.00  0.00    +0.000 A 
ATOM     19  C   UNL     1       0.332   0.947  -0.935  0.00  0.00    +0.000 A 
ENDBRANCH  11  17
ENDBRANCH   1  11
TORSDOF 3
