MODEL 1
REMARK VINA RESULT:      -4.5      0.000      0.000
REMARK  Name = *****
REMARK  4 active torsions:
REMARK  status: ('A' for Active; 'I' for Inactive)
REMARK    1  A    between atoms: C_4  and  C_7
REMARK    2  A    between atoms: C_8  and  C_9
REMARK    3  A    between atoms: C_10  and  C_11
REMARK    4  A    between atoms: C_10  and  C_14
REMARK                            x       y       z     vdW  Elec       q    Type
REMARK                         _______ _______ _______ _____ _____    ______ ____
ROOT
ATOM      1  C   UNL     1      85.237  61.244  89.883  0.00  0.00    +0.000 C 
ATOM      2  C   UNL     1      85.360  60.138  90.635  0.00  0.00    +0.000 C 
ENDROOT
BRANCH   1   6
ATOM      3  C   UNL     1      88.231  64.276  89.473  0.00  0.00    +0.000 A 
ATOM      4  C   UNL     1      87.989  63.405  88.413  0.00  0.00    +0.000 A 
ATOM      5  C   UNL     1      87.019  62.406  88.532  0.00  0.00    +0.000 A 
ATOM      6  C   UNL     1      86.289  62.259  89.719  0.00  0.00    +0.000 A 
ATOM      7  C   UNL     1      86.530  63.153  90.772  0.00  0.00    +0.000 A 
ATOM      8  C   UNL     1      87.499  64.152  90.651  0.00  0.00    +0.000 A 
ENDBRANCH   1   6
BRANCH   2   9
ATOM      9  C   UNL     1      84.283  59.174  90.772  0.00  0.00    +0.000 C 
ATOM     10  C   UNL     1      84.400  57.839  90.916  0.00  0.00    +0.000 C 
BRANCH  10  11
ATOM     11  C   UNL     1      85.723  57.177  90.969  0.00  0.00    +0.000 C 
ATOM     12  O   UNL     1      86.198  56.742  89.921  0.00  0.00    +0.000 OA
ATOM     13 CL   UNL     1      86.484  57.045  92.537  0.00  0.00    +0.000 Cl
ENDBRANCH  10  11
BRANCH  10  14
ATOM     14  C   UNL     1      83.166  56.998  91.000  0.00  0.00    +0.000 C 
ATOM     15  O   UNL     1      82.799  56.372  90.005  0.00  0.00    +0.000 OA
ATOM     16 CL   UNL     1      82.273  56.984  92.508  0.00  0.00    +0.000 Cl
ENDBRANCH  10  14
ENDBRANCH   2   9
TORSDOF 4
ENDMDL
