MODEL 1
REMARK VINA RESULT:      -4.5      0.000      0.000
REMARK  Name = *****
REMARK  2 active torsions:
REMARK  status: ('A' for Active; 'I' for Inactive)
REMARK    1  A    between atoms: C_4  and  C_7
REMARK    2  A    between atoms: C_10  and  C_12
REMARK                            x       y       z     vdW  Elec       q    Type
REMARK                         _______ _______ _______ _____ _____    ______ ____
ROOT
ATOM      1  C   UNL     1     101.792 125.960  83.557  0.00  0.00    +0.000 A 
ATOM      2  N   UNL     1     102.400 125.178  84.421  0.00  0.00    +0.000 NA
ATOM      3  N   UNL     1     103.382 124.515  83.714  0.00  0.00    +0.000 NA
ATOM      4  C   UNL     1     103.310 124.931  82.461  0.00  0.00    +0.000 A 
ATOM      5  O   UNL     1     102.308 125.862  82.295  0.00  0.00    +0.000 OA
ENDROOT
BRANCH   1   9
ATOM      6  C   UNL     1      99.075 129.279  82.982  0.00  0.00    +0.000 C 
ATOM      7  C   UNL     1      98.562 127.868  82.708  0.00  0.00    +0.000 C 
ATOM      8  C   UNL     1      99.709 126.873  82.545  0.00  0.00    +0.000 C 
ATOM      9  C   UNL     1     100.654 126.898  83.756  0.00  0.00    +0.000 C 
ATOM     10  C   UNL     1     101.166 128.321  84.023  0.00  0.00    +0.000 C 
ATOM     11  C   UNL     1     100.017 129.312  84.182  0.00  0.00    +0.000 C 
ENDBRANCH   1   9
BRANCH   4  12
ATOM     12  C   UNL     1     104.170 124.466  81.412  0.00  0.00    +0.000 A 
ATOM     13  C   UNL     1     104.656 123.183  81.241  0.00  0.00    +0.000 A 
ATOM     14  C   UNL     1     105.487 123.060  80.089  0.00  0.00    +0.000 A 
ATOM     15  C   UNL     1     105.610 124.255  79.417  0.00  0.00    +0.000 A 
ATOM     16  S   UNL     1     104.729 125.511  80.173  0.00  0.00    +0.000 S 
ENDBRANCH   4  12
TORSDOF 2
ENDMDL
