MODEL 1
REMARK VINA RESULT:      -4.8      0.000      0.000
REMARK  Name = *****
REMARK  4 active torsions:
REMARK  status: ('A' for Active; 'I' for Inactive)
REMARK    1  A    between atoms: C_1  and  C_2
REMARK    2  A    between atoms: C_5  and  C_8
REMARK    3  A    between atoms: C_9  and  C_10
REMARK    4  A    between atoms: C_10  and  C_11
REMARK                            x       y       z     vdW  Elec       q    Type
REMARK                         _______ _______ _______ _____ _____    ______ ____
ROOT
ATOM      1  C   UNL     1      89.791  66.814  86.663  0.00  0.00    +0.000 C 
ATOM      2  C   UNL     1      88.855  65.880  86.420  0.00  0.00    +0.000 C 
ENDROOT
BRANCH   1   7
ATOM      3  C   UNL     1      89.696  72.090  84.284  0.00  0.00    +0.000 C 
ATOM      4  C   UNL     1      89.758  70.722  84.893  0.00  0.00    +0.000 A 
ATOM      5  C   UNL     1      89.906  69.590  84.085  0.00  0.00    +0.000 A 
ATOM      6  C   UNL     1      89.930  68.311  84.652  0.00  0.00    +0.000 A 
ATOM      7  C   UNL     1      89.807  68.142  86.035  0.00  0.00    +0.000 A 
ATOM      8  C   UNL     1      89.626  69.274  86.838  0.00  0.00    +0.000 A 
ATOM      9  C   UNL     1      89.603  70.552  86.273  0.00  0.00    +0.000 A 
ENDBRANCH   1   7
BRANCH   2  10
ATOM     10  C   UNL     1      88.843  64.523  87.064  0.00  0.00    +0.000 C 
BRANCH  10  11
ATOM     11  C   UNL     1      88.237  64.553  88.448  0.00  0.00    +0.000 A 
ATOM     12  C   UNL     1      88.825  63.838  89.502  0.00  0.00    +0.000 A 
ATOM     13  C   UNL     1      88.256  63.861  90.776  0.00  0.00    +0.000 A 
ATOM     14  C   UNL     1      87.093  64.593  91.010  0.00  0.00    +0.000 A 
ATOM     15  C   UNL     1      86.496  65.301  89.968  0.00  0.00    +0.000 A 
ATOM     16  C   UNL     1      87.063  65.281  88.694  0.00  0.00    +0.000 A 
ENDBRANCH  10  11
ENDBRANCH   2  10
TORSDOF 3
ENDMDL
