MODEL 1
REMARK VINA RESULT:      -4.9      0.000      0.000
REMARK  Name = *****
REMARK  5 active torsions:
REMARK  status: ('A' for Active; 'I' for Inactive)
REMARK    1  A    between atoms: C_1  and  C_2
REMARK    2  A    between atoms: C_7  and  C_8
REMARK    3  A    between atoms: C_8  and  C_9
REMARK    4  A    between atoms: C_9  and  C_10
REMARK    5  A    between atoms: C_10  and  C_12
REMARK                            x       y       z     vdW  Elec       q    Type
REMARK                         _______ _______ _______ _____ _____    ______ ____
ROOT
ATOM      1  C   UNL     1     100.590 126.571  82.353  0.00  0.00    +0.000 C 
ENDROOT
BRANCH   1   2
ATOM      2  C   UNL     1      99.372 127.422  82.673  0.00  0.00    +0.000 C 
ATOM      3  O   UNL     1      98.288 127.244  82.118  0.00  0.00    +0.000 OA
BRANCH   2   4
ATOM      4  C   UNL     1      99.563 128.497  83.741  0.00  0.00    +0.000 C 
ATOM      5  C   UNL     1      98.679 128.186  84.952  0.00  0.00    +0.000 C 
ATOM      6  C   UNL     1      98.793 129.266  86.026  0.00  0.00    +0.000 C 
ATOM      7  C   UNL     1      98.507 130.656  85.466  0.00  0.00    +0.000 C 
ATOM      8  C   UNL     1      99.389 130.967  84.260  0.00  0.00    +0.000 C 
ATOM      9  C   UNL     1      99.263 129.894  83.183  0.00  0.00    +0.000 C 
ENDBRANCH   2   4
ENDBRANCH   1   2
BRANCH   1  10
ATOM     10  C   UNL     1     101.896 127.312  82.632  0.00  0.00    +0.000 C 
BRANCH  10  17
ATOM     11  C   UNL     1     104.319 129.004  82.007  0.00  0.00    +0.000 C 
ATOM     12  C   UNL     1     104.145 127.621  81.441  0.00  0.00    +0.000 A 
ATOM     13  C   UNL     1     105.136 127.108  80.589  0.00  0.00    +0.000 A 
ATOM     14  C   UNL     1     105.013 125.839  80.026  0.00  0.00    +0.000 A 
ATOM     15  C   UNL     1     103.893 125.064  80.302  0.00  0.00    +0.000 A 
ATOM     16  C   UNL     1     102.895 125.560  81.141  0.00  0.00    +0.000 A 
ATOM     17  C   UNL     1     103.003 126.840  81.714  0.00  0.00    +0.000 A 
ENDBRANCH  10  17
ENDBRANCH   1  10
TORSDOF 4
ENDMDL
