MODEL 1
REMARK VINA RESULT:      -4.8      0.000      0.000
REMARK  Name = *****
REMARK  5 active torsions:
REMARK  status: ('A' for Active; 'I' for Inactive)
REMARK    1  A    between atoms: C_1  and  C_2
REMARK    2  A    between atoms: C_2  and  C_4
REMARK    3  A    between atoms: C_4  and  C_5
REMARK    4  A    between atoms: C_4  and  C_13
REMARK    5  A    between atoms: C_5  and  C_6
REMARK                            x       y       z     vdW  Elec       q    Type
REMARK                         _______ _______ _______ _____ _____    ______ ____
ROOT
ATOM      1  C   UNL     1      89.193  69.668  86.327  0.00  0.00    +0.000 C 
ENDROOT
BRANCH   1   2
ATOM      2  C   UNL     1      88.321  70.333  87.383  0.00  0.00    +0.000 A 
ATOM      3  C   UNL     1      88.783  70.443  88.702  0.00  0.00    +0.000 A 
ATOM      4  C   UNL     1      87.997  71.062  89.670  0.00  0.00    +0.000 A 
ATOM      5  C   UNL     1      86.750  71.587  89.354  0.00  0.00    +0.000 A 
ATOM      6  C   UNL     1      86.282  71.494  88.046  0.00  0.00    +0.000 A 
ATOM      7  C   UNL     1      87.061  70.873  87.067  0.00  0.00    +0.000 A 
ATOM      8  F   UNL     1      88.453  71.156  90.926  0.00  0.00    +0.000 F 
ENDBRANCH   1   2
BRANCH   1  10
ATOM      9  C   UNL     1      88.148  67.351  86.867  0.00  0.00    +0.000 C 
ATOM     10  C   UNL     1      89.383  68.162  86.545  0.00  0.00    +0.000 C 
ATOM     11  O   UNL     1      90.488  67.618  86.541  0.00  0.00    +0.000 OA
ENDBRANCH   1  10
BRANCH   1  12
ATOM     12  C   UNL     1      88.813  70.047  84.876  0.00  0.00    +0.000 C 
BRANCH  12  13
ATOM     13  C   UNL     1      89.617  71.141  84.206  0.00  0.00    +0.000 A 
ATOM     14  C   UNL     1      90.915  70.880  83.738  0.00  0.00    +0.000 A 
ATOM     15  C   UNL     1      91.667  71.887  83.130  0.00  0.00    +0.000 A 
ATOM     16  C   UNL     1      91.126  73.160  82.980  0.00  0.00    +0.000 A 
ATOM     17  C   UNL     1      89.837  73.434  83.430  0.00  0.00    +0.000 A 
ATOM     18  C   UNL     1      89.086  72.426  84.039  0.00  0.00    +0.000 A 
ATOM     19 CL   UNL     1      92.054  74.402  82.234  0.00  0.00    +0.000 Cl
ENDBRANCH  12  13
ENDBRANCH   1  12
TORSDOF 4
ENDMDL
