MODEL 1
REMARK VINA RESULT:      -4.5      0.000      0.000
REMARK  Name = *****
REMARK  2 active torsions:
REMARK  status: ('A' for Active; 'I' for Inactive)
REMARK    1  A    between atoms: C_2  and  C_13
REMARK    2  A    between atoms: N_3  and  C_4
REMARK                            x       y       z     vdW  Elec       q    Type
REMARK                         _______ _______ _______ _____ _____    ______ ____
ROOT
ATOM      1  C   UNL     1      86.013  63.511  86.872  0.00  0.00    +0.000 C 
ATOM      2  C   UNL     1      87.146  62.907  87.679  0.00  0.00    +0.000 C 
ATOM      3  N   UNL     1      87.394  63.725  86.475  0.00  0.00    +0.000 N 
ENDROOT
BRANCH   3   4
ATOM      4  C   UNL     1      88.031  64.986  86.585  0.00  0.00    +0.000 A 
ATOM      5  C   UNL     1      87.353  66.159  86.942  0.00  0.00    +0.000 A 
ATOM      6  C   UNL     1      88.036  67.373  87.006  0.00  0.00    +0.000 A 
ATOM      7  C   UNL     1      89.391  67.442  86.703  0.00  0.00    +0.000 A 
ATOM      8  C   UNL     1      90.082  66.305  86.318  0.00  0.00    +0.000 A 
ATOM      9  C   UNL     1      89.397  65.094  86.251  0.00  0.00    +0.000 A 
ATOM     10  F   UNL     1      90.080  64.003  85.868  0.00  0.00    +0.000 F 
ATOM     11  F   UNL     1      90.036  68.615  86.767  0.00  0.00    +0.000 F 
ATOM     12  F   UNL     1      87.368  68.481  87.355  0.00  0.00    +0.000 F 
ENDBRANCH   3   4
BRANCH   2  13
ATOM     13  C   UNL     1      87.514  63.403  89.059  0.00  0.00    +0.000 A 
ATOM     14  C   UNL     1      88.864  63.461  89.452  0.00  0.00    +0.000 A 
ATOM     15  C   UNL     1      89.244  63.899  90.723  0.00  0.00    +0.000 A 
ATOM     16  C   UNL     1      88.274  64.285  91.641  0.00  0.00    +0.000 A 
ATOM     17  C   UNL     1      86.929  64.223  91.290  0.00  0.00    +0.000 A 
ATOM     18  C   UNL     1      86.556  63.781  90.017  0.00  0.00    +0.000 A 
ENDBRANCH   2  13
TORSDOF 2
ENDMDL
