MODEL 1
REMARK VINA RESULT:      -4.3      0.000      0.000
REMARK  Name = *****
REMARK  6 active torsions:
REMARK  status: ('A' for Active; 'I' for Inactive)
REMARK    1  A    between atoms: C_1  and  C_2
REMARK    2  A    between atoms: C_2  and  C_3
REMARK    3  A    between atoms: C_2  and  N_4
REMARK    4  A    between atoms: N_4  and  C_5
REMARK    5  A    between atoms: N_4  and  S_11
REMARK    6  A    between atoms: S_11  and  C_12
REMARK                            x       y       z     vdW  Elec       q    Type
REMARK                         _______ _______ _______ _____ _____    ______ ____
ROOT
ATOM      1  N   UNL     1      87.408  70.855  88.021  0.00  0.00    +0.000 N 
ENDROOT
BRANCH   1   2
ATOM      2  C   UNL     1      86.429  71.376  87.126  0.00  0.00    +0.000 A 
ATOM      3  C   UNL     1      86.600  71.405  85.728  0.00  0.00    +0.000 A 
ATOM      4  C   UNL     1      85.630  71.939  84.867  0.00  0.00    +0.000 A 
ATOM      5  C   UNL     1      84.454  72.472  85.378  0.00  0.00    +0.000 A 
ATOM      6  C   UNL     1      84.249  72.468  86.751  0.00  0.00    +0.000 A 
ATOM      7  C   UNL     1      85.222  71.930  87.604  0.00  0.00    +0.000 A 
ENDBRANCH   1   2
BRANCH   1   9
ATOM      8  C   UNL     1      86.767  69.972  90.288  0.00  0.00    +0.000 C 
ATOM      9  C   UNL     1      87.296  71.161  89.475  0.00  0.00    +0.000 C 
ATOM     10  C   UNL     1      88.620  71.661  90.062  0.00  0.00    +0.000 C 
ENDBRANCH   1   9
BRANCH   1  11
ATOM     11  S   UNL     1      88.952  70.512  87.408  0.00  0.00    +0.000 S 
BRANCH  11  12
ATOM     12  C   UNL     1      88.875  68.746  87.119  0.00  0.00    +0.000 A 
ATOM     13  C   UNL     1      87.808  67.939  87.530  0.00  0.00    +0.000 A 
ATOM     14  C   UNL     1      87.804  66.568  87.259  0.00  0.00    +0.000 A 
ATOM     15  C   UNL     1      88.866  65.990  86.569  0.00  0.00    +0.000 A 
ATOM     16  C   UNL     1      89.932  66.782  86.148  0.00  0.00    +0.000 A 
ATOM     17  C   UNL     1      89.934  68.152  86.420  0.00  0.00    +0.000 A 
ENDBRANCH  11  12
ENDBRANCH   1  11
TORSDOF 4
ENDMDL
