MODEL 1
REMARK VINA RESULT:      -3.8      0.000      0.000
REMARK  Name = *****
REMARK  4 active torsions:
REMARK  status: ('A' for Active; 'I' for Inactive)
REMARK    1  A    between atoms: C_4  and  C_6
REMARK    2  A    between atoms: C_6  and  O_7
REMARK    3  A    between atoms: O_7  and  C_8
REMARK    4  A    between atoms: C_8  and  C_10
REMARK                            x       y       z     vdW  Elec       q    Type
REMARK                         _______ _______ _______ _____ _____    ______ ____
ROOT
ATOM      1  C   UNL     1      99.109 127.357  82.583  0.00  0.00    +0.000 C 
ATOM      2  O   UNL     1      98.173 126.722  82.127  0.00  0.00    +0.000 OA
ENDROOT
BRANCH   1   3
ATOM      3  C   UNL     1      98.958 128.458  83.572  0.00  0.00    +0.000 A 
ATOM      4  C   UNL     1      98.282 128.183  84.768  0.00  0.00    +0.000 A 
ATOM      5  C   UNL     1      98.113 129.184  85.727  0.00  0.00    +0.000 A 
ATOM      6  C   UNL     1      98.615 130.464  85.496  0.00  0.00    +0.000 A 
ATOM      7  C   UNL     1      99.285 130.746  84.306  0.00  0.00    +0.000 A 
ATOM      8  C   UNL     1      99.457 129.747  83.344  0.00  0.00    +0.000 A 
ENDBRANCH   1   3
BRANCH   1   9
ATOM      9  O   UNL     1     100.415 127.167  82.275  0.00  0.00    +0.000 OA
BRANCH   9  10
ATOM     10  C   UNL     1     101.150 126.318  83.183  0.00  0.00    +0.000 C 
BRANCH  10  14
ATOM     11  C   UNL     1     103.414 127.181  80.514  0.00  0.00    +0.000 C 
ATOM     12  C   UNL     1     104.036 128.226  81.416  0.00  0.00    +0.000 C 
ATOM     13  S   UNL     1     103.110 128.254  82.975  0.00  0.00    +0.000 S 
ATOM     14  C   UNL     1     102.672 126.475  83.028  0.00  0.00    +0.000 C 
ATOM     15  S   UNL     1     103.264 125.668  81.492  0.00  0.00    +0.000 S 
ENDBRANCH  10  14
ENDBRANCH   9  10
ENDBRANCH   1   9
TORSDOF 4
ENDMDL
