REMARK  Name = *****
REMARK  1 active torsions:
REMARK  status: ('A' for Active; 'I' for Inactive)
REMARK    1  A    between atoms: C_6  and  C_7
REMARK                            x       y       z     vdW  Elec       q    Type
REMARK                         _______ _______ _______ _____ _____    ______ ____
ROOT
ATOM      1  C   UNL     1       1.679  -1.227   0.442  0.00  0.00    +0.000 C 
ATOM      2  C   UNL     1       0.264  -0.931   0.953  0.00  0.00    +0.000 C 
ATOM      3  C   UNL     1      -0.471   0.119   0.104  0.00  0.00    +0.000 C 
ATOM      4  C   UNL     1       0.382   1.385  -0.067  0.00  0.00    +0.000 C 
ATOM      5  C   UNL     1       1.825   1.101  -0.515  0.00  0.00    +0.000 C 
ATOM      6  C   UNL     1       2.557   0.040   0.336  0.00  0.00    +0.000 C 
ATOM      7  S   UNL     1      -0.903  -0.578  -1.549  0.00  0.00    +0.000 S 
ATOM      8  C   UNL     1      -2.632  -0.951  -1.181  0.00  0.00    +0.000 C 
ATOM      9  C   UNL     1      -3.178   0.226  -0.405  0.00  0.00    +0.000 C 
ATOM     10  S   UNL     1      -2.042   0.567   0.963  0.00  0.00    +0.000 S 
ENDROOT
BRANCH   6  11
ATOM     11  C   UNL     1       3.098   0.493   1.693  0.00  0.00    +0.000 A 
ATOM     12  C   UNL     1       2.921   1.782   2.213  0.00  0.00    +0.000 A 
ATOM     13  C   UNL     1       3.453   2.143   3.456  0.00  0.00    +0.000 A 
ATOM     14  C   UNL     1       4.190   1.225   4.198  0.00  0.00    +0.000 A 
ATOM     15  C   UNL     1       4.405  -0.051   3.691  0.00  0.00    +0.000 A 
ATOM     16  C   UNL     1       3.872  -0.409   2.450  0.00  0.00    +0.000 A 
ENDBRANCH   6  11
TORSDOF 1
