MODEL 1
REMARK VINA RESULT:      -4.5      0.000      0.000
REMARK  Name = *****
REMARK  5 active torsions:
REMARK  status: ('A' for Active; 'I' for Inactive)
REMARK    1  A    between atoms: C_4  and  C_7
REMARK    2  A    between atoms: C_7  and  C_8
REMARK    3  A    between atoms: C_8  and  N_10
REMARK    4  A    between atoms: N_10  and  C_11
REMARK    5  A    between atoms: N_10  and  O_17
REMARK                            x       y       z     vdW  Elec       q    Type
REMARK                         _______ _______ _______ _____ _____    ______ ____
ROOT
ATOM      1  C   UNL     1      86.867  63.138  87.025  0.00  0.00    +0.000 C 
ATOM      2  S   UNL     1      85.353  63.740  86.569  0.00  0.00    +0.000 S 
ENDROOT
BRANCH   1   3
ATOM      3  C   UNL     1      86.922  62.273  88.296  0.00  0.00    +0.000 C 
BRANCH   3   7
ATOM      4  C   UNL     1      88.182  64.454  91.808  0.00  0.00    +0.000 A 
ATOM      5  C   UNL     1      86.832  64.166  91.616  0.00  0.00    +0.000 A 
ATOM      6  C   UNL     1      86.422  63.461  90.484  0.00  0.00    +0.000 A 
ATOM      7  C   UNL     1      87.358  63.042  89.528  0.00  0.00    +0.000 A 
ATOM      8  C   UNL     1      88.715  63.324  89.742  0.00  0.00    +0.000 A 
ATOM      9  C   UNL     1      89.124  64.031  90.873  0.00  0.00    +0.000 A 
ENDBRANCH   3   7
ENDBRANCH   1   3
BRANCH   1  10
ATOM     10  N   UNL     1      88.071  63.283  86.335  0.00  0.00    +0.000 N 
BRANCH  10  11
ATOM     11  C   UNL     1      88.955  64.393  86.218  0.00  0.00    +0.000 A 
ATOM     12  C   UNL     1      90.128  64.349  85.457  0.00  0.00    +0.000 A 
ATOM     13  C   UNL     1      90.957  65.471  85.338  0.00  0.00    +0.000 A 
ATOM     14  C   UNL     1      90.619  66.663  85.968  0.00  0.00    +0.000 A 
ATOM     15  C   UNL     1      89.447  66.738  86.711  0.00  0.00    +0.000 A 
ATOM     16  C   UNL     1      88.619  65.617  86.827  0.00  0.00    +0.000 A 
ENDBRANCH  10  11
BRANCH  10  17
ATOM     17  O   UNL     1      88.373  62.217  85.448  0.00  0.00    +0.000 OA
ATOM     18  H   UNL     1      88.434  62.557  84.543  0.00  0.00    +0.000 HD
ENDBRANCH  10  17
ENDBRANCH   1  10
TORSDOF 5
ENDMDL
