MODEL 1
REMARK VINA RESULT:      -4.2      0.000      0.000
REMARK  Name = *****
REMARK  4 active torsions:
REMARK  status: ('A' for Active; 'I' for Inactive)
REMARK    1  A    between atoms: C_1  and  C_2
REMARK    2  A    between atoms: C_2  and  C_3
REMARK    3  A    between atoms: C_2  and  C_10
REMARK    4  A    between atoms: C_3  and  C_4
REMARK                            x       y       z     vdW  Elec       q    Type
REMARK                         _______ _______ _______ _____ _____    ______ ____
ROOT
ATOM      1  C   UNL     1     103.276 127.237  80.714  0.00  0.00    +0.000 C 
ATOM      2  C   UNL     1     103.063 126.260  81.876  0.00  0.00    +0.000 C 
ENDROOT
BRANCH   2   3
ATOM      3  C   UNL     1     103.811 124.966  81.619  0.00  0.00    +0.000 A 
ATOM      4  C   UNL     1     104.228 124.430  80.414  0.00  0.00    +0.000 A 
ATOM      5  C   UNL     1     104.901 123.184  80.576  0.00  0.00    +0.000 A 
ATOM      6  C   UNL     1     104.975 122.808  81.898  0.00  0.00    +0.000 A 
ATOM      7  S   UNL     1     104.236 123.948  82.934  0.00  0.00    +0.000 S 
ENDBRANCH   2   3
BRANCH   2   8
ATOM      8  C   UNL     1     101.567 125.965  82.125  0.00  0.00    +0.000 C 
BRANCH   8   9
ATOM      9  C   UNL     1     100.802 127.136  82.695  0.00  0.00    +0.000 A 
ATOM     10  C   UNL     1      99.424 127.265  82.472  0.00  0.00    +0.000 A 
ATOM     11  C   UNL     1      98.722 128.352  82.992  0.00  0.00    +0.000 A 
ATOM     12  C   UNL     1      99.388 129.320  83.742  0.00  0.00    +0.000 A 
ATOM     13  C   UNL     1     100.757 129.202  83.971  0.00  0.00    +0.000 A 
ATOM     14  C   UNL     1     101.462 128.115  83.452  0.00  0.00    +0.000 A 
ENDBRANCH   8   9
ENDBRANCH   2   8
TORSDOF 3
ENDMDL
