REMARK  Name = *****
REMARK  3 active torsions:
REMARK  status: ('A' for Active; 'I' for Inactive)
REMARK    1  A    between atoms: C_4  and  C_7
REMARK    2  A    between atoms: C_7  and  S_8
REMARK    3  A    between atoms: S_8  and  C_9
REMARK                            x       y       z     vdW  Elec       q    Type
REMARK                         _______ _______ _______ _____ _____    ______ ____
ROOT
ATOM      1  S   UNL     1       3.432  -2.352   0.430  0.00  0.00    +0.000 S 
ENDROOT
BRANCH   1   2
ATOM      2  C   UNL     1       5.006  -2.481  -0.401  0.00  0.00    +0.000 A 
ATOM      3  N   UNL     1       5.424  -1.445  -1.164  0.00  0.00    +0.000 NA
ATOM      4  C   UNL     1       6.620  -1.562  -1.780  0.00  0.00    +0.000 A 
ATOM      5  C   UNL     1       7.431  -2.673  -1.672  0.00  0.00    +0.000 A 
ATOM      6  C   UNL     1       6.978  -3.719  -0.882  0.00  0.00    +0.000 A 
ATOM      7  C   UNL     1       5.753  -3.635  -0.232  0.00  0.00    +0.000 A 
ATOM      8 CL   UNL     1       7.942  -5.134  -0.708  0.00  0.00    +0.000 Cl
ENDBRANCH   1   2
BRANCH   1   9
ATOM      9  C   UNL     1       2.801  -0.789  -0.278  0.00  0.00    +0.000 C 
BRANCH   9  13
ATOM     10  C   UNL     1      -1.426   0.389  -0.232  0.00  0.00    +0.000 C 
ATOM     11  C   UNL     1      -1.081  -1.031   0.203  0.00  0.00    +0.000 C 
ATOM     12  C   UNL     1       0.321  -1.437  -0.246  0.00  0.00    +0.000 C 
ATOM     13  C   UNL     1       1.391  -0.441   0.239  0.00  0.00    +0.000 C 
ATOM     14  C   UNL     1       1.024   0.987  -0.207  0.00  0.00    +0.000 C 
ATOM     15  C   UNL     1      -0.378   1.387   0.245  0.00  0.00    +0.000 C 
ENDBRANCH   9  13
ENDBRANCH   1   9
TORSDOF 3
