MODEL 1
REMARK VINA RESULT:      -5.0      0.000      0.000
REMARK  Name = *****
REMARK  5 active torsions:
REMARK  status: ('A' for Active; 'I' for Inactive)
REMARK    1  A    between atoms: C_1  and  C_2
REMARK    2  A    between atoms: C_4  and  C_8
REMARK    3  A    between atoms: C_8  and  C_9
REMARK    4  A    between atoms: C_9  and  C_10
REMARK    5  A    between atoms: C_14  and  C_16
REMARK                            x       y       z     vdW  Elec       q    Type
REMARK                         _______ _______ _______ _____ _____    ______ ____
ROOT
ATOM      1  C   UNL     1      87.912  70.676  85.925  0.00  0.00    +0.000 C 
ENDROOT
BRANCH   1   5
ATOM      2  C   UNL     1      83.369  72.967  85.664  0.00  0.00    +0.000 C 
ATOM      3  C   UNL     1      84.500  72.393  86.467  0.00  0.00    +0.000 A 
ATOM      4  C   UNL     1      85.621  71.845  85.823  0.00  0.00    +0.000 A 
ATOM      5  C   UNL     1      86.672  71.275  86.556  0.00  0.00    +0.000 A 
ATOM      6  C   UNL     1      86.573  71.256  87.956  0.00  0.00    +0.000 A 
ATOM      7  C   UNL     1      85.457  71.785  88.604  0.00  0.00    +0.000 A 
ATOM      8  C   UNL     1      84.421  72.346  87.863  0.00  0.00    +0.000 A 
ENDBRANCH   1   5
BRANCH   1   9
ATOM      9  C   UNL     1      88.967  70.102  86.877  0.00  0.00    +0.000 C 
BRANCH   9  10
ATOM     10  C   UNL     1      88.991  68.592  86.838  0.00  0.00    +0.000 A 
ATOM     11  C   UNL     1      87.961  67.851  87.426  0.00  0.00    +0.000 A 
ATOM     12  C   UNL     1      87.979  66.456  87.378  0.00  0.00    +0.000 A 
ATOM     13  C   UNL     1      89.022  65.793  86.733  0.00  0.00    +0.000 A 
ATOM     14  C   UNL     1      90.050  66.516  86.119  0.00  0.00    +0.000 A 
ATOM     15  C   UNL     1      90.033  67.915  86.185  0.00  0.00    +0.000 A 
ATOM     16  C   UNL     1      91.189  65.802  85.453  0.00  0.00    +0.000 C 
ENDBRANCH   9  10
ENDBRANCH   1   9
TORSDOF 3
ENDMDL
