REMARK  Name = *****
REMARK  2 active torsions:
REMARK  status: ('A' for Active; 'I' for Inactive)
REMARK    1  A    between atoms: C_4  and  N_8
REMARK    2  A    between atoms: C_9  and  C_10
REMARK                            x       y       z     vdW  Elec       q    Type
REMARK                         _______ _______ _______ _____ _____    ______ ____
ROOT
ATOM      1  N   UNL     1      -0.032   2.429   0.110  0.00  0.00    +0.000 NA
ATOM      2  C   UNL     1       1.076   3.096   0.034  0.00  0.00    +0.000 C 
ENDROOT
BRANCH   1   6
ATOM      3  C   UNL     1       0.188  -1.803   0.051  0.00  0.00    +0.000 A 
ATOM      4  C   UNL     1      -0.315  -1.133   1.165  0.00  0.00    +0.000 A 
ATOM      5  C   UNL     1      -0.373   0.262   1.172  0.00  0.00    +0.000 A 
ATOM      6  C   UNL     1       0.071   1.021   0.084  0.00  0.00    +0.000 A 
ATOM      7  C   UNL     1       0.562   0.324  -1.028  0.00  0.00    +0.000 A 
ATOM      8  C   UNL     1       0.628  -1.071  -1.050  0.00  0.00    +0.000 A 
ATOM      9  F   UNL     1       0.996   0.998  -2.106  0.00  0.00    +0.000 F 
ATOM     10  F   UNL     1      -0.863   0.872   2.264  0.00  0.00    +0.000 F 
ENDBRANCH   1   6
BRANCH   2  11
ATOM     11  C   UNL     1       1.089   4.568   0.046  0.00  0.00    +0.000 A 
ATOM     12  C   UNL     1       2.311   5.235  -0.050  0.00  0.00    +0.000 A 
ATOM     13  C   UNL     1       2.364   6.624  -0.042  0.00  0.00    +0.000 A 
ATOM     14  C   UNL     1       1.180   7.343   0.064  0.00  0.00    +0.000 A 
ATOM     15  C   UNL     1      -0.050   6.696   0.163  0.00  0.00    +0.000 A 
ATOM     16  C   UNL     1      -0.099   5.301   0.154  0.00  0.00    +0.000 A 
ATOM     17  F   UNL     1       1.222   8.681   0.073  0.00  0.00    +0.000 F 
ATOM     18  F   UNL     1       3.457   4.546  -0.152  0.00  0.00    +0.000 F 
ENDBRANCH   2  11
TORSDOF 2
