MODEL 1
REMARK VINA RESULT:      -4.8      0.000      0.000
REMARK  Name = *****
REMARK  5 active torsions:
REMARK  status: ('A' for Active; 'I' for Inactive)
REMARK    1  A    between atoms: C_1  and  C_2
REMARK    2  A    between atoms: C_5  and  C_17
REMARK    3  A    between atoms: C_6  and  C_8
REMARK    4  A    between atoms: C_6  and  C_9
REMARK    5  A    between atoms: C_10  and  C_11
REMARK                            x       y       z     vdW  Elec       q    Type
REMARK                         _______ _______ _______ _____ _____    ______ ____
ROOT
ATOM      1  C   UNL     1      83.316  72.987  86.241  0.00  0.00    +0.000 C 
ATOM      2  C   UNL     1      84.547  72.332  86.791  0.00  0.00    +0.000 C 
ATOM      3  C   UNL     1      84.740  72.145  88.108  0.00  0.00    +0.000 C 
ATOM      4  C   UNL     1      85.953  71.553  88.614  0.00  0.00    +0.000 C 
ATOM      5  C   UNL     1      86.827  70.935  87.803  0.00  0.00    +0.000 C 
ATOM      6  C   UNL     1      86.624  70.837  86.293  0.00  0.00    +0.000 C 
ATOM      7  C   UNL     1      85.605  71.921  85.789  0.00  0.00    +0.000 C 
ATOM      8  C   UNL     1      86.023  69.438  86.007  0.00  0.00    +0.000 C 
ENDROOT
BRANCH   6   9
ATOM      9  C   UNL     1      87.942  71.097  85.559  0.00  0.00    +0.000 C 
ATOM     10  C   UNL     1      88.161  71.949  84.543  0.00  0.00    +0.000 C 
BRANCH  10  11
ATOM     11  C   UNL     1      89.471  72.129  83.899  0.00  0.00    +0.000 A 
ATOM     12  C   UNL     1      89.941  73.387  83.498  0.00  0.00    +0.000 A 
ATOM     13  C   UNL     1      91.205  73.521  82.919  0.00  0.00    +0.000 A 
ATOM     14  C   UNL     1      92.017  72.402  82.746  0.00  0.00    +0.000 A 
ATOM     15  C   UNL     1      91.568  71.149  83.156  0.00  0.00    +0.000 A 
ATOM     16  C   UNL     1      90.303  71.014  83.735  0.00  0.00    +0.000 A 
ENDBRANCH  10  11
ENDBRANCH   6   9
BRANCH   5  17
ATOM     17  C   UNL     1      88.009  70.283  88.433  0.00  0.00    +0.000 C 
ATOM     18  O   UNL     1      88.603  70.744  89.401  0.00  0.00    +0.000 OA
ENDBRANCH   5  17
TORSDOF 3
ENDMDL
