MODEL 1
REMARK VINA RESULT:      -4.2      0.000      0.000
REMARK  Name = *****
REMARK  3 active torsions:
REMARK  status: ('A' for Active; 'I' for Inactive)
REMARK    1  A    between atoms: C_5  and  C_7
REMARK    2  A    between atoms: N_8  and  C_9
REMARK    3  A    between atoms: C_14  and  S_15
REMARK                            x       y       z     vdW  Elec       q    Type
REMARK                         _______ _______ _______ _____ _____    ______ ____
ROOT
ATOM      1  C   UNL     1     102.235 126.254  81.947  0.00  0.00    +0.000 C 
ATOM      2  N   UNL     1     102.805 125.325  82.653  0.00  0.00    +0.000 NA
ENDROOT
BRANCH   1   7
ATOM      3  C   UNL     1      98.835 127.563  82.919  0.00  0.00    +0.000 A 
ATOM      4  C   UNL     1      99.159 128.751  83.570  0.00  0.00    +0.000 A 
ATOM      5  C   UNL     1     100.495 129.133  83.698  0.00  0.00    +0.000 A 
ATOM      6  C   UNL     1     101.515 128.330  83.176  0.00  0.00    +0.000 A 
ATOM      7  C   UNL     1     101.192 127.134  82.520  0.00  0.00    +0.000 A 
ATOM      8  C   UNL     1      99.847 126.756  82.396  0.00  0.00    +0.000 A 
ATOM      9 CL   UNL     1     103.138 128.881  83.386  0.00  0.00    +0.000 Cl
ENDBRANCH   1   7
BRANCH   2  10
ATOM     10  C   UNL     1     103.778 124.555  81.982  0.00  0.00    +0.000 A 
ATOM     11  C   UNL     1     104.021 124.794  80.623  0.00  0.00    +0.000 A 
ATOM     12  C   UNL     1     104.982 124.056  79.931  0.00  0.00    +0.000 A 
ATOM     13  C   UNL     1     105.719 123.078  80.594  0.00  0.00    +0.000 A 
ATOM     14  C   UNL     1     105.501 122.841  81.952  0.00  0.00    +0.000 A 
ATOM     15  C   UNL     1     104.541 123.580  82.653  0.00  0.00    +0.000 A 
BRANCH  15  16
ATOM     16  S   UNL     1     104.313 123.251  84.397  0.00  0.00    +0.000 S 
ATOM     17  H   UNL     1     105.519 123.274  85.025  0.00  0.00    +0.000 HD
ENDBRANCH  15  16
ENDBRANCH   2  10
TORSDOF 3
ENDMDL
