MODEL 1
REMARK VINA RESULT:      -4.2      0.000      0.000
REMARK  Name = *****
REMARK  3 active torsions:
REMARK  status: ('A' for Active; 'I' for Inactive)
REMARK    1  A    between atoms: C_4  and  C_7
REMARK    2  A    between atoms: N_8  and  O_9
REMARK    3  A    between atoms: O_9  and  C_10
REMARK                            x       y       z     vdW  Elec       q    Type
REMARK                         _______ _______ _______ _____ _____    ______ ____
ROOT
ATOM      1  C   UNL     1     105.460 124.109  80.285  0.00  0.00    +0.000 C 
ATOM      2  N   UNL     1     104.748 125.061  79.760  0.00  0.00    +0.000 NA
ENDROOT
BRANCH   1   6
ATOM      3  C   UNL     1     104.348 120.957  82.937  0.00  0.00    +0.000 A 
ATOM      4  C   UNL     1     104.405 120.704  81.566  0.00  0.00    +0.000 A 
ATOM      5  C   UNL     1     104.758 121.724  80.681  0.00  0.00    +0.000 A 
ATOM      6  C   UNL     1     105.039 123.003  81.169  0.00  0.00    +0.000 A 
ATOM      7  C   UNL     1     105.003 123.251  82.545  0.00  0.00    +0.000 A 
ATOM      8  C   UNL     1     104.649 122.228  83.427  0.00  0.00    +0.000 A 
ENDBRANCH   1   6
BRANCH   2   9
ATOM      9  O   UNL     1     103.421 125.038  80.200  0.00  0.00    +0.000 OA
BRANCH   9  10
ATOM     10  C   UNL     1     103.149 126.077  81.062  0.00  0.00    +0.000 A 
ATOM     11  C   UNL     1     103.827 127.298  81.084  0.00  0.00    +0.000 A 
ATOM     12  C   UNL     1     103.463 128.286  82.002  0.00  0.00    +0.000 A 
ATOM     13  C   UNL     1     102.421 128.057  82.900  0.00  0.00    +0.000 A 
ATOM     14  C   UNL     1     101.742 126.840  82.882  0.00  0.00    +0.000 A 
ATOM     15  C   UNL     1     102.106 125.853  81.965  0.00  0.00    +0.000 A 
ENDBRANCH   9  10
ENDBRANCH   2   9
TORSDOF 3
ENDMDL
