MODEL 1
REMARK VINA RESULT:      -4.8      0.000      0.000
REMARK  Name = *****
REMARK  5 active torsions:
REMARK  status: ('A' for Active; 'I' for Inactive)
REMARK    1  A    between atoms: C_1  and  C_2
REMARK    2  A    between atoms: C_2  and  C_3
REMARK    3  A    between atoms: C_2  and  N_9
REMARK    4  A    between atoms: N_9  and  C_10
REMARK    5  A    between atoms: N_9  and  C_11
REMARK                            x       y       z     vdW  Elec       q    Type
REMARK                         _______ _______ _______ _____ _____    ______ ____
ROOT
ATOM      1  N   UNL     1     103.137 126.626  81.454  0.00  0.00    +0.000 N 
ATOM      2  C   UNL     1     103.529 127.469  80.321  0.00  0.00    +0.000 C 
ENDROOT
BRANCH   1   3
ATOM      3  C   UNL     1     103.692 125.341  81.542  0.00  0.00    +0.000 A 
ATOM      4  C   UNL     1     103.735 124.671  82.778  0.00  0.00    +0.000 A 
ATOM      5  C   UNL     1     104.273 123.385  82.904  0.00  0.00    +0.000 A 
ATOM      6  C   UNL     1     104.775 122.736  81.784  0.00  0.00    +0.000 A 
ATOM      7  C   UNL     1     104.734 123.361  80.544  0.00  0.00    +0.000 A 
ATOM      8  C   UNL     1     104.192 124.647  80.428  0.00  0.00    +0.000 A 
ATOM      9 CL   UNL     1     105.439 121.156  81.930  0.00  0.00    +0.000 Cl
ENDBRANCH   1   3
BRANCH   1  11
ATOM     10  C   UNL     1     103.753 128.539  82.912  0.00  0.00    +0.000 C 
ATOM     11  C   UNL     1     102.838 127.317  82.737  0.00  0.00    +0.000 C 
BRANCH  11  12
ATOM     12  C   UNL     1     101.337 127.589  82.857  0.00  0.00    +0.000 A 
ATOM     13  C   UNL     1     100.805 128.741  83.457  0.00  0.00    +0.000 A 
ATOM     14  C   UNL     1      99.422 128.927  83.550  0.00  0.00    +0.000 A 
ATOM     15  C   UNL     1      98.549 127.965  83.048  0.00  0.00    +0.000 A 
ATOM     16  C   UNL     1      99.056 126.815  82.450  0.00  0.00    +0.000 A 
ATOM     17  C   UNL     1     100.437 126.628  82.358  0.00  0.00    +0.000 A 
ENDBRANCH  11  12
ENDBRANCH   1  11
TORSDOF 3
ENDMDL
