REMARK  Name = *****
REMARK  5 active torsions:
REMARK  status: ('A' for Active; 'I' for Inactive)
REMARK    1  A    between atoms: C_1  and  C_2
REMARK    2  A    between atoms: C_2  and  C_7
REMARK    3  A    between atoms: C_7  and  O_8
REMARK    4  A    between atoms: O_8  and  C_9
REMARK    5  A    between atoms: C_9  and  C_11
REMARK                            x       y       z     vdW  Elec       q    Type
REMARK                         _______ _______ _______ _____ _____    ______ ____
ROOT
ATOM      1  O   UNL     1       0.301   2.140   2.665  0.00  0.00    +0.000 OA
ENDROOT
BRANCH   1   2
ATOM      2  C   UNL     1      -0.663   2.153   3.614  0.00  0.00    +0.000 C 
ATOM      3  O   UNL     1      -1.251   1.182   4.062  0.00  0.00    +0.000 OA
BRANCH   2   4
ATOM      4  C   UNL     1      -0.938   3.550   4.047  0.00  0.00    +0.000 A 
ATOM      5  C   UNL     1      -0.150   4.634   3.635  0.00  0.00    +0.000 A 
ATOM      6  C   UNL     1      -0.453   5.927   4.069  0.00  0.00    +0.000 A 
ATOM      7  C   UNL     1      -1.540   6.144   4.915  0.00  0.00    +0.000 A 
ATOM      8  C   UNL     1      -2.327   5.071   5.331  0.00  0.00    +0.000 A 
ATOM      9  C   UNL     1      -2.027   3.777   4.899  0.00  0.00    +0.000 A 
ENDBRANCH   2   4
ENDBRANCH   1   2
BRANCH   1  10
ATOM     10  C   UNL     1       0.627   0.861   2.081  0.00  0.00    +0.000 C 
BRANCH  10  12
ATOM     11  C   UNL     1       0.747  -0.522  -0.029  0.00  0.00    +0.000 C 
ATOM     12  C   UNL     1       0.345   0.833   0.560  0.00  0.00    +0.000 C 
ATOM     13  S   UNL     1       1.312   2.142  -0.305  0.00  0.00    +0.000 S 
ATOM     14  C   UNL     1      -0.065   3.288  -0.551  0.00  0.00    +0.000 C 
ATOM     15  C   UNL     1      -1.263   2.461  -0.963  0.00  0.00    +0.000 C 
ATOM     16  S   UNL     1      -1.447   1.102   0.220  0.00  0.00    +0.000 S 
ENDBRANCH  10  12
ENDBRANCH   1  10
TORSDOF 4
