MODEL 1
REMARK VINA RESULT:      -3.7      0.000      0.000
REMARK  Name = *****
REMARK  4 active torsions:
REMARK  status: ('A' for Active; 'I' for Inactive)
REMARK    1  A    between atoms: C_4  and  C_7
REMARK    2  A    between atoms: C_8  and  C_9
REMARK    3  A    between atoms: C_9  and  C_10
REMARK    4  A    between atoms: C_10  and  C_11
REMARK                            x       y       z     vdW  Elec       q    Type
REMARK                         _______ _______ _______ _____ _____    ______ ____
ROOT
ATOM      1  C   UNL     1      99.457 128.851  83.503  0.00  0.00    +0.000 A 
ATOM      2  C   UNL     1      98.936 127.742  82.842  0.00  0.00    +0.000 A 
ATOM      3  C   UNL     1      99.792 126.754  82.347  0.00  0.00    +0.000 A 
ATOM      4  C   UNL     1     101.179 126.870  82.500  0.00  0.00    +0.000 A 
ATOM      5  C   UNL     1     101.690 127.983  83.182  0.00  0.00    +0.000 A 
ATOM      6  C   UNL     1     100.835 128.971  83.676  0.00  0.00    +0.000 A 
ENDROOT
BRANCH   4   7
ATOM      7  C   UNL     1     102.113 125.840  82.024  0.00  0.00    +0.000 C 
ATOM      8  C   UNL     1     103.115 125.329  82.757  0.00  0.00    +0.000 C 
BRANCH   8   9
ATOM      9  C   UNL     1     104.056 124.272  82.256  0.00  0.00    +0.000 C 
BRANCH   9  10
ATOM     10  C   UNL     1     104.385 124.474  80.776  0.00  0.00    +0.000 C 
BRANCH  10  11
ATOM     11  C   UNL     1     105.182 123.295  80.232  0.00  0.00    +0.000 C 
ATOM     12 CL   UNL     1     104.571 121.768  80.909  0.00  0.00    +0.000 Cl
ENDBRANCH  10  11
ENDBRANCH   9  10
ENDBRANCH   8   9
ENDBRANCH   4   7
TORSDOF 4
ENDMDL
