MODEL 1
REMARK VINA RESULT:      -4.2      0.000      0.000
REMARK  Name = *****
REMARK  4 active torsions:
REMARK  status: ('A' for Active; 'I' for Inactive)
REMARK    1  A    between atoms: C_1  and  C_2
REMARK    2  A    between atoms: C_7  and  O_8
REMARK    3  A    between atoms: O_8  and  C_9
REMARK    4  A    between atoms: C_9  and  C_11
REMARK                            x       y       z     vdW  Elec       q    Type
REMARK                         _______ _______ _______ _____ _____    ______ ____
ROOT
ATOM      1  O   UNL     1     102.623 126.988  82.997  0.00  0.00    +0.000 OA
ENDROOT
BRANCH   1   8
ATOM      2  C   UNL     1     102.064 129.513  84.203  0.00  0.00    +0.000 C 
ATOM      3  C   UNL     1     100.995 128.671  83.574  0.00  0.00    +0.000 A 
ATOM      4  C   UNL     1      99.659 129.093  83.577  0.00  0.00    +0.000 A 
ATOM      5  C   UNL     1      98.662 128.302  83.000  0.00  0.00    +0.000 A 
ATOM      6  C   UNL     1      98.985 127.077  82.417  0.00  0.00    +0.000 A 
ATOM      7  C   UNL     1     100.308 126.640  82.403  0.00  0.00    +0.000 A 
ATOM      8  C   UNL     1     101.300 127.447  82.962  0.00  0.00    +0.000 A 
ENDBRANCH   1   8
BRANCH   1   9
ATOM      9  C   UNL     1     102.779 125.666  83.408  0.00  0.00    +0.000 C 
ATOM     10  O   UNL     1     102.357 125.199  84.461  0.00  0.00    +0.000 OA
BRANCH   9  11
ATOM     11  C   UNL     1     103.515 124.895  82.416  0.00  0.00    +0.000 A 
ATOM     12  C   UNL     1     103.627 125.189  81.067  0.00  0.00    +0.000 A 
ATOM     13  C   UNL     1     104.421 124.241  80.359  0.00  0.00    +0.000 A 
ATOM     14  C   UNL     1     104.894 123.249  81.187  0.00  0.00    +0.000 A 
ATOM     15  S   UNL     1     104.380 123.466  82.803  0.00  0.00    +0.000 S 
ENDBRANCH   9  11
ENDBRANCH   1   9
TORSDOF 3
ENDMDL
