MODEL 1
REMARK VINA RESULT:      -4.7      0.000      0.000
REMARK  Name = *****
REMARK  3 active torsions:
REMARK  status: ('A' for Active; 'I' for Inactive)
REMARK    1  A    between atoms: C_1  and  C_2
REMARK    2  A    between atoms: C_2  and  C_11
REMARK    3  A    between atoms: C_4  and  C_5
REMARK                            x       y       z     vdW  Elec       q    Type
REMARK                         _______ _______ _______ _____ _____    ______ ____
ROOT
ATOM      1  C   UNL     1      95.429 117.596  79.278  0.00  0.00    +0.000 C 
ATOM      2  C   UNL     1      96.798 117.063  79.640  0.00  0.00    +0.000 C 
ATOM      3  C   UNL     1      97.700 116.670  78.489  0.00  0.00    +0.000 C 
ATOM      4  C   UNL     1      97.152 115.590  79.385  0.00  0.00    +0.000 C 
ENDROOT
BRANCH   4   5
ATOM      5  C   UNL     1      96.125 114.602  78.881  0.00  0.00    +0.000 A 
ATOM      6  C   UNL     1      95.929 114.372  77.509  0.00  0.00    +0.000 A 
ATOM      7  C   UNL     1      94.991 113.443  77.051  0.00  0.00    +0.000 A 
ATOM      8  C   UNL     1      94.233 112.713  77.962  0.00  0.00    +0.000 A 
ATOM      9  C   UNL     1      94.417 112.909  79.326  0.00  0.00    +0.000 A 
ATOM     10  C   UNL     1      95.356 113.840  79.777  0.00  0.00    +0.000 A 
ENDBRANCH   4   5
BRANCH   2  11
ATOM     11  C   UNL     1      97.418 117.729  80.864  0.00  0.00    +0.000 A 
ATOM     12  C   UNL     1      97.169 117.248  82.161  0.00  0.00    +0.000 A 
ATOM     13  C   UNL     1      97.725 117.863  83.286  0.00  0.00    +0.000 A 
ATOM     14  C   UNL     1      98.542 118.979  83.137  0.00  0.00    +0.000 A 
ATOM     15  C   UNL     1      98.799 119.482  81.864  0.00  0.00    +0.000 A 
ATOM     16  C   UNL     1      98.240 118.863  80.743  0.00  0.00    +0.000 A 
ENDBRANCH   2  11
TORSDOF 2
ENDMDL
