REMARK  Name = *****
REMARK  6 active torsions:
REMARK  status: ('A' for Active; 'I' for Inactive)
REMARK    1  A    between atoms: C_1  and  C_2
REMARK    2  A    between atoms: C_2  and  C_3
REMARK    3  A    between atoms: C_2  and  C_9
REMARK    4  A    between atoms: C_9  and  C_10
REMARK    5  A    between atoms: C_9  and  O_16
REMARK    6  A    between atoms: O_16  and  C_17
REMARK                            x       y       z     vdW  Elec       q    Type
REMARK                         _______ _______ _______ _____ _____    ______ ____
ROOT
ATOM      1  C   UNL     1       2.519  -0.666  -1.442  0.00  0.00    +0.000 C 
ATOM      2  C   UNL     1       2.374   0.199  -0.183  0.00  0.00    +0.000 C 
ATOM      3  F   UNL     1       1.057   0.638  -0.227  0.00  0.00    +0.000 F 
ENDROOT
BRANCH   2   4
ATOM      4  C   UNL     1       2.584  -0.599   1.107  0.00  0.00    +0.000 A 
ATOM      5  C   UNL     1       1.755  -0.340   2.213  0.00  0.00    +0.000 A 
ATOM      6  C   UNL     1       1.924  -1.029   3.415  0.00  0.00    +0.000 A 
ATOM      7  C   UNL     1       2.926  -1.988   3.533  0.00  0.00    +0.000 A 
ATOM      8  C   UNL     1       3.758  -2.258   2.449  0.00  0.00    +0.000 A 
ATOM      9  C   UNL     1       3.589  -1.570   1.245  0.00  0.00    +0.000 A 
ENDBRANCH   2   4
BRANCH   2  10
ATOM     10  C   UNL     1       3.244   1.506  -0.221  0.00  0.00    +0.000 C 
BRANCH  10  11
ATOM     11  C   UNL     1       4.746   1.292  -0.067  0.00  0.00    +0.000 A 
ATOM     12  C   UNL     1       5.561   0.983  -1.167  0.00  0.00    +0.000 A 
ATOM     13  C   UNL     1       6.933   0.781  -1.004  0.00  0.00    +0.000 A 
ATOM     14  C   UNL     1       7.508   0.886   0.260  0.00  0.00    +0.000 A 
ATOM     15  C   UNL     1       6.714   1.197   1.361  0.00  0.00    +0.000 A 
ATOM     16  C   UNL     1       5.343   1.402   1.199  0.00  0.00    +0.000 A 
ENDBRANCH  10  11
BRANCH  10  17
ATOM     17  O   UNL     1       2.996   2.208  -1.462  0.00  0.00    +0.000 OA
ATOM     18  C   UNL     1       3.130   3.618  -1.333  0.00  0.00    +0.000 C 
ENDBRANCH  10  17
ENDBRANCH   2  10
TORSDOF 4
