MODEL 1
REMARK VINA RESULT:      -3.8      0.000      0.000
REMARK  Name = *****
REMARK  2 active torsions:
REMARK  status: ('A' for Active; 'I' for Inactive)
REMARK    1  A    between atoms: C_4  and  C_7
REMARK    2  A    between atoms: C_7  and  C_8
REMARK                            x       y       z     vdW  Elec       q    Type
REMARK                         _______ _______ _______ _____ _____    ______ ____
ROOT
ATOM      1  C   UNL     1     102.903 127.333  83.056  0.00  0.00    +0.000 C 
ENDROOT
BRANCH   1   5
ATOM      2  C   UNL     1      98.594 128.077  83.450  0.00  0.00    +0.000 C 
ATOM      3  C   UNL     1      99.528 129.281  83.498  0.00  0.00    +0.000 C 
ATOM      4  C   UNL     1     100.975 128.868  83.761  0.00  0.00    +0.000 C 
ATOM      5  C   UNL     1     101.472 127.826  82.746  0.00  0.00    +0.000 C 
ATOM      6  C   UNL     1     100.513 126.622  82.700  0.00  0.00    +0.000 C 
ATOM      7  C   UNL     1      99.071 127.047  82.432  0.00  0.00    +0.000 C 
ENDBRANCH   1   5
BRANCH   1   8
ATOM      8  C   UNL     1     103.941 127.557  81.938  0.00  0.00    +0.000 C 
ATOM      9  C   UNL     1     103.512 127.084  80.544  0.00  0.00    +0.000 C 
ATOM     10  C   UNL     1     103.306 125.575  80.421  0.00  0.00    +0.000 C 
ATOM     11  C   UNL     1     104.576 124.784  80.722  0.00  0.00    +0.000 C 
ATOM     12  C   UNL     1     105.122 125.027  82.122  0.00  0.00    +0.000 C 
ATOM     13  S   UNL     1     105.536 126.775  82.405  0.00  0.00    +0.000 S 
ENDBRANCH   1   8
TORSDOF 2
ENDMDL
