MODEL 1
REMARK VINA RESULT:      -4.2      0.000      0.000
REMARK  Name = *****
REMARK  3 active torsions:
REMARK  status: ('A' for Active; 'I' for Inactive)
REMARK    1  A    between atoms: C_4  and  C_7
REMARK    2  A    between atoms: C_7  and  S_8
REMARK    3  A    between atoms: S_8  and  C_9
REMARK                            x       y       z     vdW  Elec       q    Type
REMARK                         _______ _______ _______ _____ _____    ______ ____
ROOT
ATOM      1  S   UNL     1     102.980 127.341  83.301  0.00  0.00    +0.000 S 
ENDROOT
BRANCH   1   2
ATOM      2  C   UNL     1     101.220 127.646  83.178  0.00  0.00    +0.000 A 
ATOM      3  C   UNL     1     100.463 126.692  82.480  0.00  0.00    +0.000 A 
ATOM      4  C   UNL     1      99.082 126.839  82.331  0.00  0.00    +0.000 A 
ATOM      5  C   UNL     1      98.440 127.947  82.875  0.00  0.00    +0.000 A 
ATOM      6  C   UNL     1      99.177 128.910  83.564  0.00  0.00    +0.000 A 
ATOM      7  C   UNL     1     100.563 128.767  83.715  0.00  0.00    +0.000 A 
ATOM      8  I   UNL     1     101.552 130.302  84.760  0.00  0.00    +0.000 I 
ENDBRANCH   1   2
BRANCH   1   9
ATOM      9  C   UNL     1     102.926 125.549  83.626  0.00  0.00    +0.000 C 
BRANCH   9  13
ATOM     10  C   UNL     1     104.916 123.312  80.521  0.00  0.00    +0.000 A 
ATOM     11  C   UNL     1     104.335 124.546  80.229  0.00  0.00    +0.000 A 
ATOM     12  C   UNL     1     103.693 125.270  81.235  0.00  0.00    +0.000 A 
ATOM     13  C   UNL     1     103.629 124.770  82.544  0.00  0.00    +0.000 A 
ATOM     14  C   UNL     1     104.208 123.523  82.823  0.00  0.00    +0.000 A 
ATOM     15  C   UNL     1     104.851 122.801  81.816  0.00  0.00    +0.000 A 
ENDBRANCH   9  13
ENDBRANCH   1   9
TORSDOF 3
ENDMDL
