MODEL 1
REMARK VINA RESULT:      -4.9      0.000      0.000
REMARK  Name = *****
REMARK  4 active torsions:
REMARK  status: ('A' for Active; 'I' for Inactive)
REMARK    1  A    between atoms: C_1  and  C_2
REMARK    2  A    between atoms: C_4  and  C_8
REMARK    3  A    between atoms: C_8  and  C_9
REMARK    4  A    between atoms: C_9  and  C_10
REMARK                            x       y       z     vdW  Elec       q    Type
REMARK                         _______ _______ _______ _____ _____    ______ ____
ROOT
ATOM      1  C   UNL     1      88.896  70.026  86.533  0.00  0.00    +0.000 C 
ENDROOT
BRANCH   1   5
ATOM      2  C   UNL     1      91.264  65.644  85.418  0.00  0.00    +0.000 C 
ATOM      3  C   UNL     1      90.128  66.392  86.053  0.00  0.00    +0.000 A 
ATOM      4  C   UNL     1      90.065  67.792  85.966  0.00  0.00    +0.000 A 
ATOM      5  C   UNL     1      89.031  68.514  86.577  0.00  0.00    +0.000 A 
ATOM      6  C   UNL     1      88.058  67.796  87.294  0.00  0.00    +0.000 A 
ATOM      7  C   UNL     1      88.118  66.406  87.399  0.00  0.00    +0.000 A 
ATOM      8  C   UNL     1      89.154  65.706  86.784  0.00  0.00    +0.000 A 
ENDBRANCH   1   5
BRANCH   1   9
ATOM      9  C   UNL     1      87.743  70.723  85.774  0.00  0.00    +0.000 C 
ATOM     10 CL   UNL     1      88.411  71.901  84.583  0.00  0.00    +0.000 Cl
BRANCH   9  11
ATOM     11  C   UNL     1      86.588  71.321  86.570  0.00  0.00    +0.000 A 
ATOM     12  C   UNL     1      86.517  71.258  87.971  0.00  0.00    +0.000 A 
ATOM     13  C   UNL     1      85.424  71.786  88.665  0.00  0.00    +0.000 A 
ATOM     14  C   UNL     1      84.371  72.373  87.971  0.00  0.00    +0.000 A 
ATOM     15  C   UNL     1      84.405  72.426  86.582  0.00  0.00    +0.000 A 
ATOM     16  C   UNL     1      85.498  71.899  85.890  0.00  0.00    +0.000 A 
ENDBRANCH   9  11
ENDBRANCH   1   9
TORSDOF 3
ENDMDL
