MODEL 1
REMARK VINA RESULT:      -4.9      0.000      0.000
REMARK  Name = *****
REMARK  5 active torsions:
REMARK  status: ('A' for Active; 'I' for Inactive)
REMARK    1  A    between atoms: C_1  and  C_2
REMARK    2  A    between atoms: C_4  and  C_17
REMARK    3  A    between atoms: C_6  and  N_8
REMARK    4  A    between atoms: C_9  and  C_10
REMARK    5  A    between atoms: C_9  and  C_11
REMARK                            x       y       z     vdW  Elec       q    Type
REMARK                         _______ _______ _______ _____ _____    ______ ____
ROOT
ATOM      1  N   UNL     1     102.734 125.849  82.102  0.00  0.00    +0.000 NA
ATOM      2  C   UNL     1     103.454 126.081  81.041  0.00  0.00    +0.000 C 
ATOM      3  C   UNL     1     103.410 127.380  80.254  0.00  0.00    +0.000 C 
ENDROOT
BRANCH   1   9
ATOM      4  C   UNL     1     102.033 130.081  84.563  0.00  0.00    +0.000 C 
ATOM      5  C   UNL     1     101.491 128.892  83.828  0.00  0.00    +0.000 A 
ATOM      6  C   UNL     1     100.112 128.757  83.612  0.00  0.00    +0.000 A 
ATOM      7  C   UNL     1      99.600 127.662  82.905  0.00  0.00    +0.000 A 
ATOM      8  C   UNL     1     100.485 126.692  82.418  0.00  0.00    +0.000 A 
ATOM      9  C   UNL     1     101.865 126.831  82.592  0.00  0.00    +0.000 A 
ATOM     10  C   UNL     1     102.359 127.925  83.307  0.00  0.00    +0.000 A 
ATOM     11  C   UNL     1      98.120 127.493  82.731  0.00  0.00    +0.000 C 
ENDBRANCH   1   9
BRANCH   2  12
ATOM     12  C   UNL     1     104.391 125.013  80.575  0.00  0.00    +0.000 A 
ATOM     13  C   UNL     1     104.324 123.745  81.168  0.00  0.00    +0.000 A 
ATOM     14  C   UNL     1     105.187 122.728  80.756  0.00  0.00    +0.000 A 
ATOM     15  C   UNL     1     106.128 122.974  79.757  0.00  0.00    +0.000 A 
ATOM     16  C   UNL     1     106.211 124.238  79.174  0.00  0.00    +0.000 A 
ATOM     17  C   UNL     1     105.347 125.259  79.582  0.00  0.00    +0.000 A 
ENDBRANCH   2  12
TORSDOF 2
ENDMDL
