MODEL 1
REMARK VINA RESULT:      -4.1      0.000      0.000
REMARK  Name = *****
REMARK  3 active torsions:
REMARK  status: ('A' for Active; 'I' for Inactive)
REMARK    1  A    between atoms: C_6  and  S_8
REMARK    2  A    between atoms: S_8  and  C_9
REMARK    3  A    between atoms: C_9  and  C_10
REMARK                            x       y       z     vdW  Elec       q    Type
REMARK                         _______ _______ _______ _____ _____    ______ ____
ROOT
ATOM      1  S   UNL     1     103.588 125.941  82.379  0.00  0.00    +0.000 S 
ENDROOT
BRANCH   1   7
ATOM      2  C   UNL     1     104.700 121.223  81.405  0.00  0.00    +0.000 C 
ATOM      3  C   UNL     1     105.079 121.675  82.809  0.00  0.00    +0.000 C 
ATOM      4  C   UNL     1     104.410 123.038  82.923  0.00  0.00    +0.000 C 
ATOM      5  N   UNL     1     104.391 123.548  81.557  0.00  0.00    +0.000 N 
ATOM      6  C   UNL     1     104.761 122.516  80.607  0.00  0.00    +0.000 C 
ATOM      7  C   UNL     1     104.071 124.815  81.124  0.00  0.00    +0.000 C 
ATOM      8  O   UNL     1     104.107 125.153  79.946  0.00  0.00    +0.000 OA
ENDBRANCH   1   7
BRANCH   1   9
ATOM      9  C   UNL     1     101.791 125.873  82.142  0.00  0.00    +0.000 C 
BRANCH   9  10
ATOM     10  C   UNL     1     101.118 127.101  82.705  0.00  0.00    +0.000 A 
ATOM     11  C   UNL     1     101.872 128.099  83.342  0.00  0.00    +0.000 A 
ATOM     12  C   UNL     1     101.248 129.228  83.877  0.00  0.00    +0.000 A 
ATOM     13  C   UNL     1      99.864 129.364  83.781  0.00  0.00    +0.000 A 
ATOM     14  C   UNL     1      99.100 128.379  83.158  0.00  0.00    +0.000 A 
ATOM     15  C   UNL     1      99.724 127.250  82.624  0.00  0.00    +0.000 A 
ATOM     16 CL   UNL     1      99.095 130.755  84.441  0.00  0.00    +0.000 Cl
ENDBRANCH   9  10
ENDBRANCH   1   9
TORSDOF 3
ENDMDL
