MODEL 1
REMARK VINA RESULT:      -4.6      0.000      0.000
REMARK  Name = *****
REMARK  3 active torsions:
REMARK  status: ('A' for Active; 'I' for Inactive)
REMARK    1  A    between atoms: C_4  and  C_7
REMARK    2  A    between atoms: C_8  and  C_9
REMARK    3  A    between atoms: C_9  and  C_11
REMARK                            x       y       z     vdW  Elec       q    Type
REMARK                         _______ _______ _______ _____ _____    ______ ____
ROOT
ATOM      1  C   UNL     1     101.107 126.541  83.074  0.00  0.00    +0.000 C 
ATOM      2  O   UNL     1     101.234 125.959  84.144  0.00  0.00    +0.000 OA
ENDROOT
BRANCH   1   3
ATOM      3  C   UNL     1     102.260 127.284  82.490  0.00  0.00    +0.000 A 
ATOM      4  C   UNL     1     102.827 128.325  83.242  0.00  0.00    +0.000 A 
ATOM      5  C   UNL     1     103.912 129.048  82.741  0.00  0.00    +0.000 A 
ATOM      6  C   UNL     1     104.433 128.723  81.495  0.00  0.00    +0.000 A 
ATOM      7  C   UNL     1     103.895 127.684  80.742  0.00  0.00    +0.000 A 
ATOM      8  C   UNL     1     102.810 126.958  81.240  0.00  0.00    +0.000 A 
ATOM      9  F   UNL     1     105.473 129.415  81.013  0.00  0.00    +0.000 F 
ENDBRANCH   1   3
BRANCH   1  11
ATOM     10  C   UNL     1      98.850 127.545  82.576  0.00  0.00    +0.000 C 
ATOM     11  C   UNL     1      99.803 126.626  82.359  0.00  0.00    +0.000 C 
BRANCH  10  15
ATOM     12  C   UNL     1      98.835 130.644  85.504  0.00  0.00    +0.000 A 
ATOM     13  C   UNL     1      99.381 130.884  84.243  0.00  0.00    +0.000 A 
ATOM     14  C   UNL     1      99.397 129.869  83.284  0.00  0.00    +0.000 A 
ATOM     15  C   UNL     1      98.868 128.609  83.581  0.00  0.00    +0.000 A 
ATOM     16  C   UNL     1      98.320 128.375  84.847  0.00  0.00    +0.000 A 
ATOM     17  C   UNL     1      98.305 129.391  85.805  0.00  0.00    +0.000 A 
ENDBRANCH  10  15
ENDBRANCH   1  11
TORSDOF 3
ENDMDL
