MODEL 1
REMARK VINA RESULT:      -4.6      0.000      0.000
REMARK  Name = *****
REMARK  4 active torsions:
REMARK  status: ('A' for Active; 'I' for Inactive)
REMARK    1  A    between atoms: C_4  and  C_7
REMARK    2  A    between atoms: C_7  and  O_8
REMARK    3  A    between atoms: O_8  and  C_9
REMARK    4  A    between atoms: C_9  and  C_11
REMARK                            x       y       z     vdW  Elec       q    Type
REMARK                         _______ _______ _______ _____ _____    ______ ____
ROOT
ATOM      1  C   UNL     1     104.701 124.370  80.245  0.00  0.00    +0.000 C 
ATOM      2  O   UNL     1     105.744 124.695  79.700  0.00  0.00    +0.000 OA
ENDROOT
BRANCH   1   3
ATOM      3  C   UNL     1     104.637 123.235  81.189  0.00  0.00    +0.000 A 
ATOM      4  C   UNL     1     104.525 123.403  82.569  0.00  0.00    +0.000 A 
ATOM      5  C   UNL     1     104.428 122.288  83.398  0.00  0.00    +0.000 A 
ATOM      6  C   UNL     1     104.442 121.008  82.855  0.00  0.00    +0.000 A 
ATOM      7  C   UNL     1     104.556 120.823  81.481  0.00  0.00    +0.000 A 
ATOM      8  C   UNL     1     104.650 121.937  80.645  0.00  0.00    +0.000 A 
ATOM      9  F   UNL     1     104.338 119.936  83.651  0.00  0.00    +0.000 F 
ATOM     10  F   UNL     1     104.309 122.449  84.724  0.00  0.00    +0.000 F 
ATOM     11  F   UNL     1     104.479 124.622  83.123  0.00  0.00    +0.000 F 
ENDBRANCH   1   3
BRANCH   1  12
ATOM     12  O   UNL     1     103.513 125.006  80.164  0.00  0.00    +0.000 OA
BRANCH  12  13
ATOM     13  C   UNL     1     103.555 126.435  80.299  0.00  0.00    +0.000 C 
BRANCH  13  17
ATOM     14  C   UNL     1     101.375 127.753  83.786  0.00  0.00    +0.000 A 
ATOM     15  C   UNL     1     102.475 128.485  83.343  0.00  0.00    +0.000 A 
ATOM     16  C   UNL     1     103.197 128.061  82.225  0.00  0.00    +0.000 A 
ATOM     17  C   UNL     1     102.831 126.892  81.543  0.00  0.00    +0.000 A 
ATOM     18  C   UNL     1     101.716 126.169  81.996  0.00  0.00    +0.000 A 
ATOM     19  C   UNL     1     100.995 126.595  83.111  0.00  0.00    +0.000 A 
ENDBRANCH  13  17
ENDBRANCH  12  13
ENDBRANCH   1  12
TORSDOF 4
ENDMDL
