MODEL 1
REMARK VINA RESULT:      -4.6      0.000      0.000
REMARK  Name = *****
REMARK  4 active torsions:
REMARK  status: ('A' for Active; 'I' for Inactive)
REMARK    1  A    between atoms: C_1  and  C_2
REMARK    2  A    between atoms: C_7  and  O_8
REMARK    3  A    between atoms: O_8  and  S_9
REMARK    4  A    between atoms: S_9  and  C_11
REMARK                            x       y       z     vdW  Elec       q    Type
REMARK                         _______ _______ _______ _____ _____    ______ ____
ROOT
ATOM      1  O   UNL     1     102.452 125.517  81.841  0.00  0.00    +0.000 OA
ENDROOT
BRANCH   1   8
ATOM      2  C   UNL     1     103.592 127.416  80.054  0.00  0.00    +0.000 C 
ATOM      3  C   UNL     1     104.165 126.045  80.266  0.00  0.00    +0.000 A 
ATOM      4  C   UNL     1     105.329 125.666  79.581  0.00  0.00    +0.000 A 
ATOM      5  C   UNL     1     105.881 124.396  79.765  0.00  0.00    +0.000 A 
ATOM      6  C   UNL     1     105.276 123.489  80.631  0.00  0.00    +0.000 A 
ATOM      7  C   UNL     1     104.127 123.856  81.330  0.00  0.00    +0.000 A 
ATOM      8  C   UNL     1     103.593 125.141  81.175  0.00  0.00    +0.000 A 
ENDBRANCH   1   8
BRANCH   1   9
ATOM      9  S   UNL     1     102.690 126.155  83.305  0.00  0.00    +0.000 S 
ATOM     10  O   UNL     1     102.371 125.084  84.309  0.00  0.00    +0.000 OA
BRANCH   9  11
ATOM     11  C   UNL     1     101.198 127.173  83.195  0.00  0.00    +0.000 A 
ATOM     12  C   UNL     1     100.044 126.700  82.560  0.00  0.00    +0.000 A 
ATOM     13  C   UNL     1      98.905 127.504  82.483  0.00  0.00    +0.000 A 
ATOM     14  C   UNL     1      98.915 128.781  83.042  0.00  0.00    +0.000 A 
ATOM     15  C   UNL     1     100.060 129.257  83.680  0.00  0.00    +0.000 A 
ATOM     16  C   UNL     1     101.200 128.455  83.757  0.00  0.00    +0.000 A 
ENDBRANCH   9  11
ENDBRANCH   1   9
TORSDOF 3
ENDMDL
