MODEL 1
REMARK VINA RESULT:      -4.3      0.000      0.000
REMARK  Name = *****
REMARK  7 active torsions:
REMARK  status: ('A' for Active; 'I' for Inactive)
REMARK    1  A    between atoms: C_1  and  C_2
REMARK    2  A    between atoms: C_4  and  C_17
REMARK    3  A    between atoms: C_5  and  S_9
REMARK    4  A    between atoms: C_6  and  C_8
REMARK    5  A    between atoms: S_9  and  S_10
REMARK    6  A    between atoms: S_10  and  C_11
REMARK    7  A    between atoms: N_15  and  C_16
REMARK                            x       y       z     vdW  Elec       q    Type
REMARK                         _______ _______ _______ _____ _____    ______ ____
ROOT
ATOM      1  C   UNL     1      83.645  72.841  87.741  0.00  0.00    +0.000 C 
ATOM      2  C   UNL     1      84.952  72.140  87.517  0.00  0.00    +0.000 A 
ATOM      3  C   UNL     1      85.738  71.722  88.591  0.00  0.00    +0.000 A 
ATOM      4  C   UNL     1      86.974  71.078  88.387  0.00  0.00    +0.000 A 
ATOM      5  C   UNL     1      87.418  70.819  87.066  0.00  0.00    +0.000 A 
ATOM      6  C   UNL     1      86.655  71.299  85.975  0.00  0.00    +0.000 A 
ATOM      7  C   UNL     1      85.425  71.938  86.220  0.00  0.00    +0.000 A 
ATOM      8  C   UNL     1      87.048  71.136  84.528  0.00  0.00    +0.000 C 
ATOM      9  C   UNL     1      87.752  70.673  89.613  0.00  0.00    +0.000 C 
ENDROOT
BRANCH   5  10
ATOM     10  S   UNL     1      88.968  69.944  86.773  0.00  0.00    +0.000 S 
BRANCH  10  11
ATOM     11  S   UNL     1      88.439  67.971  87.014  0.00  0.00    +0.000 S 
BRANCH  11  12
ATOM     12  C   UNL     1      89.491  67.174  85.900  0.00  0.00    +0.000 A 
ATOM     13  N   UNL     1      90.634  66.570  86.126  0.00  0.00    +0.000 NA
ATOM     14  N   UNL     1      91.069  66.107  84.907  0.00  0.00    +0.000 NA
ATOM     15  N   UNL     1      90.205  66.407  83.948  0.00  0.00    +0.000 NA
ATOM     16  N   UNL     1      89.213  67.072  84.567  0.00  0.00    +0.000 N 
ATOM     17  C   UNL     1      88.067  67.522  83.827  0.00  0.00    +0.000 C 
ENDBRANCH  11  12
ENDBRANCH  10  11
ENDBRANCH   5  10
TORSDOF 3
ENDMDL
