MODEL 1
REMARK VINA RESULT:      -4.7      0.000      0.000
REMARK  Name = *****
REMARK  1 active torsions:
REMARK  status: ('A' for Active; 'I' for Inactive)
REMARK    1  A    between atoms: C_8  and  C_9
REMARK                            x       y       z     vdW  Elec       q    Type
REMARK                         _______ _______ _______ _____ _____    ______ ____
ROOT
ATOM      1  C   UNL     1     106.178 126.660  81.028  0.00  0.00    +0.000 C 
ATOM      2  C   UNL     1     105.431 127.913  81.485  0.00  0.00    +0.000 C 
ATOM      3  C   UNL     1     104.269 128.243  80.546  0.00  0.00    +0.000 C 
ATOM      4  C   UNL     1     103.418 127.061  80.205  0.00  0.00    +0.000 C 
ATOM      5  C   UNL     1     103.962 125.612  80.460  0.00  0.00    +0.000 C 
ATOM      6  C   UNL     1     105.294 125.415  81.117  0.00  0.00    +0.000 C 
ATOM      7  C   UNL     1     102.892 126.196  81.185  0.00  0.00    +0.000 C 
ATOM      8  C   UNL     1     102.018 126.003  82.152  0.00  0.00    +0.000 C 
ENDROOT
BRANCH   8   9
ATOM      9  C   UNL     1     101.030 126.988  82.614  0.00  0.00    +0.000 A 
ATOM     10  C   UNL     1     101.387 128.171  83.273  0.00  0.00    +0.000 A 
ATOM     11  C   UNL     1     100.413 129.091  83.669  0.00  0.00    +0.000 A 
ATOM     12  C   UNL     1      99.069 128.846  83.401  0.00  0.00    +0.000 A 
ATOM     13  C   UNL     1      98.699 127.680  82.732  0.00  0.00    +0.000 A 
ATOM     14  C   UNL     1      99.674 126.760  82.338  0.00  0.00    +0.000 A 
ENDBRANCH   8   9
TORSDOF 1
ENDMDL
