MODEL 1
REMARK VINA RESULT:      -3.8      0.000      0.000
REMARK  Name = *****
REMARK  3 active torsions:
REMARK  status: ('A' for Active; 'I' for Inactive)
REMARK    1  A    between atoms: C_1  and  C_2
REMARK    2  A    between atoms: C_5  and  C_8
REMARK    3  A    between atoms: C_8  and  N_9
REMARK                            x       y       z     vdW  Elec       q    Type
REMARK                         _______ _______ _______ _____ _____    ______ ____
ROOT
ATOM      1  C   UNL     1     105.514 122.574  80.479  0.00  0.00    +0.000 C 
ATOM      2  C   UNL     1     104.665 123.716  80.950  0.00  0.00    +0.000 A 
ATOM      3  C   UNL     1     104.278 124.727  80.063  0.00  0.00    +0.000 A 
ATOM      4  C   UNL     1     103.457 125.772  80.493  0.00  0.00    +0.000 A 
ATOM      5  C   UNL     1     103.008 125.825  81.818  0.00  0.00    +0.000 A 
ATOM      6  C   UNL     1     103.370 124.796  82.696  0.00  0.00    +0.000 A 
ATOM      7  C   UNL     1     104.191 123.751  82.265  0.00  0.00    +0.000 A 
ENDROOT
BRANCH   5   8
ATOM      8  C   UNL     1     102.109 126.948  82.277  0.00  0.00    +0.000 C 
BRANCH   8   9
ATOM      9  N   UNL     1     100.720 126.505  82.347  0.00  0.00    +0.000 NA
ATOM     10  C   UNL     1      99.896 127.289  82.917  0.00  0.00    +0.000 C 
ATOM     11  S   UNL     1      98.212 127.068  83.123  0.00  0.00    +0.000 S 
ATOM     12  C   UNL     1      98.542 128.183  84.516  0.00  0.00    +0.000 C 
ATOM     13  S   UNL     1      99.999 128.830  83.645  0.00  0.00    +0.000 S 
ENDBRANCH   8   9
ENDBRANCH   5   8
TORSDOF 2
ENDMDL
