MODEL 1
REMARK VINA RESULT:      -4.4      0.000      0.000
REMARK  Name = *****
REMARK  2 active torsions:
REMARK  status: ('A' for Active; 'I' for Inactive)
REMARK    1  A    between atoms: C_6  and  S_9
REMARK    2  A    between atoms: S_9  and  C_10
REMARK                            x       y       z     vdW  Elec       q    Type
REMARK                         _______ _______ _______ _____ _____    ______ ____
ROOT
ATOM      1  C   UNL     1     105.400 125.781  81.884  0.00  0.00    +0.000 C 
ATOM      2  C   UNL     1     105.354 126.484  80.520  0.00  0.00    +0.000 C 
ATOM      3  C   UNL     1     105.088 125.283  79.644  0.00  0.00    +0.000 C 
ATOM      4  C   UNL     1     104.411 124.357  80.342  0.00  0.00    +0.000 C 
ATOM      5  C   UNL     1     104.178 124.855  81.759  0.00  0.00    +0.000 C 
ATOM      6  C   UNL     1     102.865 125.701  81.840  0.00  0.00    +0.000 C 
ATOM      7  C   UNL     1     103.005 127.042  81.114  0.00  0.00    +0.000 C 
ATOM      8  C   UNL     1     104.149 127.402  80.493  0.00  0.00    +0.000 C 
ENDROOT
BRANCH   6   9
ATOM      9  S   UNL     1     102.418 126.088  83.587  0.00  0.00    +0.000 S 
BRANCH   9  10
ATOM     10  C   UNL     1     100.996 127.134  83.339  0.00  0.00    +0.000 A 
ATOM     11  C   UNL     1     101.033 128.453  83.799  0.00  0.00    +0.000 A 
ATOM     12  C   UNL     1      99.935 129.297  83.613  0.00  0.00    +0.000 A 
ATOM     13  C   UNL     1      98.798 128.828  82.957  0.00  0.00    +0.000 A 
ATOM     14  C   UNL     1      98.761 127.518  82.480  0.00  0.00    +0.000 A 
ATOM     15  C   UNL     1      99.859 126.675  82.666  0.00  0.00    +0.000 A 
ENDBRANCH   9  10
ENDBRANCH   6   9
TORSDOF 2
ENDMDL
