REMARK  Name = *****
REMARK  4 active torsions:
REMARK  status: ('A' for Active; 'I' for Inactive)
REMARK    1  A    between atoms: C_4  and  C_7
REMARK    2  A    between atoms: C_7  and  C_8
REMARK    3  A    between atoms: C_8  and  C_9
REMARK    4  A    between atoms: C_10  and  C_11
REMARK                            x       y       z     vdW  Elec       q    Type
REMARK                         _______ _______ _______ _____ _____    ______ ____
ROOT
ATOM      1  C   UNL     1      -5.026  -0.734   0.053  0.00  0.00    +0.000 C 
ATOM      2  C   UNL     1      -5.815  -1.731  -0.376  0.00  0.00    +0.000 C 
ATOM      3  F   UNL     1      -7.095  -1.415  -0.686  0.00  0.00    +0.000 F 
ENDROOT
BRANCH   2   4
ATOM      4  C   UNL     1      -5.432  -3.129  -0.599  0.00  0.00    +0.000 A 
ATOM      5  C   UNL     1      -4.833  -3.902   0.405  0.00  0.00    +0.000 A 
ATOM      6  C   UNL     1      -4.504  -5.239   0.170  0.00  0.00    +0.000 A 
ATOM      7  C   UNL     1      -4.783  -5.819  -1.066  0.00  0.00    +0.000 A 
ATOM      8  C   UNL     1      -5.397  -5.066  -2.065  0.00  0.00    +0.000 A 
ATOM      9  C   UNL     1      -5.726  -3.729  -1.830  0.00  0.00    +0.000 A 
ENDBRANCH   2   4
BRANCH   1  10
ATOM     10  C   UNL     1      -3.560  -0.781   0.380  0.00  0.00    +0.000 C 
BRANCH  10  11
ATOM     11  C   UNL     1      -2.773   0.243  -0.446  0.00  0.00    +0.000 C 
BRANCH  11  15
ATOM     12  C   UNL     1       1.427   0.109   0.521  0.00  0.00    +0.000 A 
ATOM     13  C   UNL     1       0.922  -0.684  -0.508  0.00  0.00    +0.000 A 
ATOM     14  C   UNL     1      -0.436  -0.638  -0.824  0.00  0.00    +0.000 A 
ATOM     15  C   UNL     1      -1.301   0.209  -0.118  0.00  0.00    +0.000 A 
ATOM     16  C   UNL     1      -0.785   0.998   0.918  0.00  0.00    +0.000 A 
ATOM     17  C   UNL     1       0.574   0.950   1.234  0.00  0.00    +0.000 A 
ENDBRANCH  11  15
ENDBRANCH  10  11
ENDBRANCH   1  10
TORSDOF 4
