MODEL 1
REMARK VINA RESULT:      -5.1      0.000      0.000
REMARK  Name = *****
REMARK  4 active torsions:
REMARK  status: ('A' for Active; 'I' for Inactive)
REMARK    1  A    between atoms: C_1  and  C_2
REMARK    2  A    between atoms: C_2  and  C_4
REMARK    3  A    between atoms: C_9  and  C_10
REMARK    4  A    between atoms: C_11  and  C_12
REMARK                            x       y       z     vdW  Elec       q    Type
REMARK                         _______ _______ _______ _____ _____    ______ ____
ROOT
ATOM      1  C   UNL     1      99.634 128.668  83.662  0.00  0.00    +0.000 A 
ATOM      2  C   UNL     1      98.974 129.848  84.044  0.00  0.00    +0.000 A 
ATOM      3  C   UNL     1      99.707 130.946  84.493  0.00  0.00    +0.000 A 
ATOM      4  C   UNL     1     101.095 130.872  84.566  0.00  0.00    +0.000 A 
ATOM      5  C   UNL     1     101.755 129.700  84.188  0.00  0.00    +0.000 A 
ATOM      6  C   UNL     1     101.036 128.584  83.726  0.00  0.00    +0.000 A 
ENDROOT
BRANCH   1   8
ATOM      7  C   UNL     1      98.343 126.528  84.220  0.00  0.00    +0.000 C 
ATOM      8  C   UNL     1      98.808 127.525  83.190  0.00  0.00    +0.000 C 
ATOM      9  O   UNL     1      98.551 127.390  81.998  0.00  0.00    +0.000 OA
ENDBRANCH   1   8
BRANCH   6  10
ATOM     10  C   UNL     1     101.771 127.374  83.333  0.00  0.00    +0.000 C 
ATOM     11  C   UNL     1     102.374 127.244  82.140  0.00  0.00    +0.000 C 
BRANCH  11  12
ATOM     12  C   UNL     1     103.092 126.033  81.718  0.00  0.00    +0.000 A 
ATOM     13  C   UNL     1     103.599 125.880  80.419  0.00  0.00    +0.000 A 
ATOM     14  C   UNL     1     104.305 124.728  80.062  0.00  0.00    +0.000 A 
ATOM     15  C   UNL     1     104.519 123.726  81.006  0.00  0.00    +0.000 A 
ATOM     16  C   UNL     1     104.035 123.869  82.303  0.00  0.00    +0.000 A 
ATOM     17  C   UNL     1     103.330 125.023  82.659  0.00  0.00    +0.000 A 
ATOM     18 CL   UNL     1     105.389 122.308  80.568  0.00  0.00    +0.000 Cl
ENDBRANCH  11  12
ENDBRANCH   6  10
TORSDOF 3
ENDMDL
