MODEL 1
REMARK VINA RESULT:      -4.0      0.000      0.000
REMARK  Name = *****
REMARK  4 active torsions:
REMARK  status: ('A' for Active; 'I' for Inactive)
REMARK    1  A    between atoms: C_4  and  N_7
REMARK    2  A    between atoms: N_7  and  C_8
REMARK    3  A    between atoms: C_8  and  C_9
REMARK    4  A    between atoms: C_9  and  C_10
REMARK                            x       y       z     vdW  Elec       q    Type
REMARK                         _______ _______ _______ _____ _____    ______ ____
ROOT
ATOM      1  C   UNL     1     100.031 126.723  82.337  0.00  0.00    +0.000 C 
ENDROOT
BRANCH   1   2
ATOM      2  N   UNL     1      98.906 127.057  82.308  0.00  0.00    +0.000 NA
BRANCH   2   6
ATOM      3  C   UNL     1      99.331 129.736  85.610  0.00  0.00    +0.000 C 
ATOM      4  C   UNL     1      99.139 130.349  84.227  0.00  0.00    +0.000 C 
ATOM      5  C   UNL     1      99.384 129.326  83.121  0.00  0.00    +0.000 C 
ATOM      6  C   UNL     1      98.509 128.077  83.297  0.00  0.00    +0.000 C 
ATOM      7  C   UNL     1      98.700 127.470  84.693  0.00  0.00    +0.000 C 
ATOM      8  C   UNL     1      98.462 128.496  85.798  0.00  0.00    +0.000 C 
ENDBRANCH   2   6
ENDBRANCH   1   2
BRANCH   1   9
ATOM      9  C   UNL     1     101.270 126.329  82.351  0.00  0.00    +0.000 C 
BRANCH   9  10
ATOM     10  C   UNL     1     102.427 127.198  82.096  0.00  0.00    +0.000 A 
ATOM     11  C   UNL     1     103.159 127.153  80.901  0.00  0.00    +0.000 A 
ATOM     12  C   UNL     1     104.256 127.997  80.702  0.00  0.00    +0.000 A 
ATOM     13  C   UNL     1     104.634 128.896  81.696  0.00  0.00    +0.000 A 
ATOM     14  C   UNL     1     103.919 128.953  82.889  0.00  0.00    +0.000 A 
ATOM     15  C   UNL     1     102.822 128.110  83.087  0.00  0.00    +0.000 A 
ENDBRANCH   9  10
ENDBRANCH   1   9
TORSDOF 4
ENDMDL
