MODEL 1
REMARK VINA RESULT:      -4.3      0.000      0.000
REMARK  Name = *****
REMARK  5 active torsions:
REMARK  status: ('A' for Active; 'I' for Inactive)
REMARK    1  A    between atoms: C_1  and  C_2
REMARK    2  A    between atoms: C_8  and  C_9
REMARK    3  A    between atoms: C_8  and  C_10
REMARK    4  A    between atoms: C_10  and  C_11
REMARK    5  A    between atoms: C_11  and  C_12
REMARK                            x       y       z     vdW  Elec       q    Type
REMARK                         _______ _______ _______ _____ _____    ______ ____
ROOT
ATOM      1  C   UNL     1      86.437  68.797  89.016  0.00  0.00    +0.000 C 
ATOM      2  C   UNL     1      87.521  69.819  88.626  0.00  0.00    +0.000 C 
ATOM      3  C   UNL     1      86.955  71.248  88.796  0.00  0.00    +0.000 C 
ATOM      4  C   UNL     1      85.965  71.629  87.698  0.00  0.00    +0.000 C 
ATOM      5  C   UNL     1      86.537  71.405  86.300  0.00  0.00    +0.000 C 
ATOM      6  C   UNL     1      87.072  69.992  86.148  0.00  0.00    +0.000 C 
ATOM      7  C   UNL     1      86.558  69.203  85.189  0.00  0.00    +0.000 C 
ATOM      8  C   UNL     1      88.134  69.575  87.190  0.00  0.00    +0.000 C 
ATOM      9  C   UNL     1      89.389  70.475  87.019  0.00  0.00    +0.000 C 
ENDROOT
BRANCH   8  10
ATOM     10  C   UNL     1      88.602  68.081  87.087  0.00  0.00    +0.000 C 
BRANCH  10  11
ATOM     11  C   UNL     1      89.902  67.823  86.306  0.00  0.00    +0.000 C 
BRANCH  11  12
ATOM     12  C   UNL     1      90.124  66.366  86.058  0.00  0.00    +0.000 A 
ATOM     13  C   UNL     1      89.316  65.319  86.454  0.00  0.00    +0.000 A 
ATOM     14  O   UNL     1      89.832  64.131  86.051  0.00  0.00    +0.000 OA
ATOM     15  C   UNL     1      90.985  64.407  85.390  0.00  0.00    +0.000 A 
ATOM     16  C   UNL     1      91.211  65.763  85.365  0.00  0.00    +0.000 A 
ENDBRANCH  11  12
ENDBRANCH  10  11
ENDBRANCH   8  10
TORSDOF 3
ENDMDL
