REMARK  Name = *****
REMARK  3 active torsions:
REMARK  status: ('A' for Active; 'I' for Inactive)
REMARK    1  A    between atoms: C_1  and  C_2
REMARK    2  A    between atoms: C_7  and  N_8
REMARK    3  A    between atoms: C_9  and  C_10
REMARK                            x       y       z     vdW  Elec       q    Type
REMARK                         _______ _______ _______ _____ _____    ______ ____
ROOT
ATOM      1  C   UNL     1       2.498   0.326  -0.760  0.00  0.00    +0.000 C 
ATOM      2  C   UNL     1       1.066   0.141  -0.343  0.00  0.00    +0.000 A 
ATOM      3  C   UNL     1       0.280   1.259  -0.025  0.00  0.00    +0.000 A 
ATOM      4  C   UNL     1      -1.053   1.105   0.357  0.00  0.00    +0.000 A 
ATOM      5  C   UNL     1      -1.616  -0.166   0.424  0.00  0.00    +0.000 A 
ATOM      6  C   UNL     1      -0.841  -1.284   0.119  0.00  0.00    +0.000 A 
ATOM      7  C   UNL     1       0.503  -1.144  -0.247  0.00  0.00    +0.000 A 
ENDROOT
BRANCH   7   8
ATOM      8  N   UNL     1       1.254  -2.293  -0.547  0.00  0.00    +0.000 NA
ATOM      9  C   UNL     1       1.849  -2.851   0.461  0.00  0.00    +0.000 C 
BRANCH   9  10
ATOM     10  C   UNL     1       2.651  -4.034   0.275  0.00  0.00    +0.000 A 
ATOM     11  C   UNL     1       2.911  -4.733  -0.887  0.00  0.00    +0.000 A 
ATOM     12  C   UNL     1       3.757  -5.858  -0.663  0.00  0.00    +0.000 A 
ATOM     13  C   UNL     1       4.114  -5.977   0.661  0.00  0.00    +0.000 A 
ATOM     14  S   UNL     1       3.430  -4.739   1.624  0.00  0.00    +0.000 S 
ENDBRANCH   9  10
ENDBRANCH   7   8
TORSDOF 2
