MODEL 1
REMARK VINA RESULT:      -4.8      0.000      0.000
REMARK  Name = *****
REMARK  4 active torsions:
REMARK  status: ('A' for Active; 'I' for Inactive)
REMARK    1  A    between atoms: C_1  and  C_2
REMARK    2  A    between atoms: C_5  and  O_8
REMARK    3  A    between atoms: O_8  and  C_9
REMARK    4  A    between atoms: C_9  and  C_11
REMARK                            x       y       z     vdW  Elec       q    Type
REMARK                         _______ _______ _______ _____ _____    ______ ____
ROOT
ATOM      1  C   UNL     1     102.850 125.144  82.473  0.00  0.00    +0.000 C 
ATOM      2  O   UNL     1     102.990 124.916  83.665  0.00  0.00    +0.000 OA
ENDROOT
BRANCH   1   3
ATOM      3  C   UNL     1     103.879 124.785  81.457  0.00  0.00    +0.000 A 
ATOM      4  C   UNL     1     104.427 123.499  81.359  0.00  0.00    +0.000 A 
ATOM      5  C   UNL     1     105.387 123.234  80.385  0.00  0.00    +0.000 A 
ATOM      6  C   UNL     1     105.804 124.230  79.509  0.00  0.00    +0.000 A 
ATOM      7  C   UNL     1     105.268 125.509  79.593  0.00  0.00    +0.000 A 
ATOM      8  C   UNL     1     104.305 125.787  80.568  0.00  0.00    +0.000 A 
ATOM      9  F   UNL     1     106.727 123.964  78.575  0.00  0.00    +0.000 F 
ATOM     10  F   UNL     1     105.906 122.002  80.299  0.00  0.00    +0.000 F 
ENDBRANCH   1   3
BRANCH   1  11
ATOM     11  O   UNL     1     101.771 125.744  81.852  0.00  0.00    +0.000 OA
BRANCH  11  16
ATOM     12  C   UNL     1      99.354 130.283  84.285  0.00  0.00    +0.000 C 
ATOM     13  C   UNL     1     100.003 129.073  83.681  0.00  0.00    +0.000 A 
ATOM     14  C   UNL     1     101.401 128.986  83.599  0.00  0.00    +0.000 A 
ATOM     15  C   UNL     1     102.008 127.877  83.009  0.00  0.00    +0.000 A 
ATOM     16  C   UNL     1     101.213 126.849  82.508  0.00  0.00    +0.000 A 
ATOM     17  C   UNL     1      99.823 126.932  82.549  0.00  0.00    +0.000 A 
ATOM     18  C   UNL     1      99.220 128.044  83.138  0.00  0.00    +0.000 A 
ENDBRANCH  11  16
ENDBRANCH   1  11
TORSDOF 3
ENDMDL
