MODEL 1
REMARK VINA RESULT:      -4.5      0.000      0.000
REMARK  Name = *****
REMARK  5 active torsions:
REMARK  status: ('A' for Active; 'I' for Inactive)
REMARK    1  A    between atoms: C_1  and  C_2
REMARK    2  A    between atoms: C_7  and  C_8
REMARK    3  A    between atoms: C_8  and  C_9
REMARK    4  A    between atoms: C_8  and  C_10
REMARK    5  A    between atoms: C_10  and  C_12
REMARK                            x       y       z     vdW  Elec       q    Type
REMARK                         _______ _______ _______ _____ _____    ______ ____
ROOT
ATOM      1  C   UNL     1      88.819  70.293  86.429  0.00  0.00    +0.000 C 
ATOM      2  C   UNL     1      88.991  68.836  86.880  0.00  0.00    +0.000 C 
ATOM      3  F   UNL     1      89.929  70.924  86.938  0.00  0.00    +0.000 F 
ENDROOT
BRANCH   1  10
ATOM      4  C   UNL     1      88.206  70.636  89.422  0.00  0.00    +0.000 C 
ATOM      5  C   UNL     1      87.236  71.046  88.347  0.00  0.00    +0.000 A 
ATOM      6  C   UNL     1      86.007  71.600  88.752  0.00  0.00    +0.000 A 
ATOM      7  C   UNL     1      85.057  72.015  87.822  0.00  0.00    +0.000 A 
ATOM      8  C   UNL     1      85.322  71.890  86.467  0.00  0.00    +0.000 A 
ATOM      9  C   UNL     1      86.532  71.339  86.045  0.00  0.00    +0.000 A 
ATOM     10  C   UNL     1      87.506  70.891  86.966  0.00  0.00    +0.000 A 
ENDBRANCH   1  10
BRANCH   1  11
ATOM     11  C   UNL     1      88.813  70.344  84.887  0.00  0.00    +0.000 C 
ATOM     12  O   UNL     1      88.102  69.619  84.187  0.00  0.00    +0.000 OA
BRANCH  11  13
ATOM     13  C   UNL     1      89.604  71.399  84.207  0.00  0.00    +0.000 A 
ATOM     14  C   UNL     1      89.073  72.666  83.947  0.00  0.00    +0.000 A 
ATOM     15  C   UNL     1      89.860  73.633  83.317  0.00  0.00    +0.000 A 
ATOM     16  C   UNL     1      91.176  73.340  82.959  0.00  0.00    +0.000 A 
ATOM     17  C   UNL     1      91.713  72.083  83.236  0.00  0.00    +0.000 A 
ATOM     18  C   UNL     1      90.932  71.114  83.866  0.00  0.00    +0.000 A 
ENDBRANCH  11  13
ENDBRANCH   1  11
TORSDOF 3
ENDMDL
