MODEL 1
REMARK VINA RESULT:      -4.6      0.000      0.000
REMARK  Name = *****
REMARK  4 active torsions:
REMARK  status: ('A' for Active; 'I' for Inactive)
REMARK    1  A    between atoms: C_1  and  C_2
REMARK    2  A    between atoms: C_5  and  N_8
REMARK    3  A    between atoms: C_9  and  C_10
REMARK    4  A    between atoms: C_9  and  C_11
REMARK                            x       y       z     vdW  Elec       q    Type
REMARK                         _______ _______ _______ _____ _____    ______ ____
ROOT
ATOM      1  N   UNL     1     102.864 127.255  82.885  0.00  0.00    +0.000 NA
ATOM      2  C   UNL     1     101.582 127.476  82.949  0.00  0.00    +0.000 C 
ATOM      3  C   UNL     1     100.529 126.514  82.428  0.00  0.00    +0.000 C 
ENDROOT
BRANCH   1   8
ATOM      4  C   UNL     1     104.949 122.495  80.513  0.00  0.00    +0.000 C 
ATOM      5  C   UNL     1     104.370 123.732  81.132  0.00  0.00    +0.000 A 
ATOM      6  C   UNL     1     104.064 124.844  80.338  0.00  0.00    +0.000 A 
ATOM      7  C   UNL     1     103.558 126.010  80.920  0.00  0.00    +0.000 A 
ATOM      8  C   UNL     1     103.349 126.081  82.298  0.00  0.00    +0.000 A 
ATOM      9  C   UNL     1     103.689 124.987  83.096  0.00  0.00    +0.000 A 
ATOM     10  C   UNL     1     104.195 123.819  82.518  0.00  0.00    +0.000 A 
ENDBRANCH   1   8
BRANCH   2  11
ATOM     11  C   UNL     1     101.116 128.760  83.557  0.00  0.00    +0.000 A 
ATOM     12  C   UNL     1      99.780 129.171  83.468  0.00  0.00    +0.000 A 
ATOM     13  C   UNL     1      99.380 130.381  84.044  0.00  0.00    +0.000 A 
ATOM     14  C   UNL     1     100.308 131.184  84.704  0.00  0.00    +0.000 A 
ATOM     15  C   UNL     1     101.642 130.787  84.784  0.00  0.00    +0.000 A 
ATOM     16  C   UNL     1     102.047 129.581  84.208  0.00  0.00    +0.000 A 
ENDBRANCH   2  11
TORSDOF 2
ENDMDL
