MODEL 1
REMARK VINA RESULT:      -4.8      0.000      0.000
REMARK  Name = *****
REMARK  2 active torsions:
REMARK  status: ('A' for Active; 'I' for Inactive)
REMARK    1  A    between atoms: C_5  and  C_7
REMARK    2  A    between atoms: N_8  and  C_9
REMARK                            x       y       z     vdW  Elec       q    Type
REMARK                         _______ _______ _______ _____ _____    ______ ____
ROOT
ATOM      1  C   UNL     1     101.755 126.028  82.421  0.00  0.00    +0.000 C 
ATOM      2  N   UNL     1     102.941 126.221  81.933  0.00  0.00    +0.000 NA
ENDROOT
BRANCH   1   7
ATOM      3  C   UNL     1     100.529 129.325  83.794  0.00  0.00    +0.000 A 
ATOM      4  C   UNL     1      99.170 129.251  83.476  0.00  0.00    +0.000 A 
ATOM      5  C   UNL     1      98.667 128.128  82.818  0.00  0.00    +0.000 A 
ATOM      6  C   UNL     1      99.525 127.084  82.481  0.00  0.00    +0.000 A 
ATOM      7  C   UNL     1     100.881 127.151  82.794  0.00  0.00    +0.000 A 
ATOM      8  C   UNL     1     101.387 128.275  83.454  0.00  0.00    +0.000 A 
ATOM      9  F   UNL     1      99.022 126.015  81.848  0.00  0.00    +0.000 F 
ENDBRANCH   1   7
BRANCH   2  10
ATOM     10  C   UNL     1     103.669 125.066  81.620  0.00  0.00    +0.000 A 
ATOM     11  C   UNL     1     104.174 124.874  80.329  0.00  0.00    +0.000 A 
ATOM     12  C   UNL     1     104.915 123.731  80.024  0.00  0.00    +0.000 A 
ATOM     13  C   UNL     1     105.155 122.789  81.017  0.00  0.00    +0.000 A 
ATOM     14  C   UNL     1     104.673 122.970  82.309  0.00  0.00    +0.000 A 
ATOM     15  C   UNL     1     103.934 124.115  82.610  0.00  0.00    +0.000 A 
ATOM     16  F   UNL     1     105.867 121.691  80.727  0.00  0.00    +0.000 F 
ENDBRANCH   2  10
TORSDOF 2
ENDMDL
