MODEL 1
REMARK VINA RESULT:      -5.0      0.000      0.000
REMARK  Name = *****
REMARK  2 active torsions:
REMARK  status: ('A' for Active; 'I' for Inactive)
REMARK    1  A    between atoms: C_3  and  C_9
REMARK    2  A    between atoms: C_6  and  C_7
REMARK                            x       y       z     vdW  Elec       q    Type
REMARK                         _______ _______ _______ _____ _____    ______ ____
ROOT
ATOM      1  C   UNL     1     102.401 126.172  82.437  0.00  0.00    +0.000 A 
ATOM      2  N   UNL     1     102.649 127.307  83.070  0.00  0.00    +0.000 NA
ATOM      3  C   UNL     1     101.417 127.895  83.189  0.00  0.00    +0.000 A 
ATOM      4  C   UNL     1     100.453 127.081  82.620  0.00  0.00    +0.000 A 
ATOM      5  O   UNL     1     101.076 125.970  82.134  0.00  0.00    +0.000 OA
ATOM      6  C   UNL     1      99.096 127.375  82.568  0.00  0.00    +0.000 A 
ATOM      7  C   UNL     1      98.720 128.594  83.145  0.00  0.00    +0.000 A 
ATOM      8  C   UNL     1      99.670 129.443  83.729  0.00  0.00    +0.000 A 
ATOM      9  C   UNL     1     101.031 129.112  83.764  0.00  0.00    +0.000 A 
ATOM     10 CL   UNL     1      99.152 130.932  84.425  0.00  0.00    +0.000 Cl
ENDROOT
BRANCH   1  13
ATOM     11  C   UNL     1     104.663 124.081  80.271  0.00  0.00    +0.000 A 
ATOM     12  C   UNL     1     103.773 125.072  80.696  0.00  0.00    +0.000 A 
ATOM     13  C   UNL     1     103.335 125.126  82.027  0.00  0.00    +0.000 A 
ATOM     14  C   UNL     1     103.810 124.159  82.924  0.00  0.00    +0.000 A 
ATOM     15  C   UNL     1     104.701 123.166  82.502  0.00  0.00    +0.000 A 
ATOM     16  C   UNL     1     105.143 123.122  81.173  0.00  0.00    +0.000 A 
BRANCH  16  17
ATOM     17  C   UNL     1     106.087 122.045  80.715  0.00  0.00    +0.000 C 
ATOM     18 CL   UNL     1     105.857 120.569  81.673  0.00  0.00    +0.000 Cl
ENDBRANCH  16  17
ENDBRANCH   1  13
TORSDOF 2
ENDMDL
