MODEL 1
REMARK VINA RESULT:      -4.7      0.000      0.000
REMARK  Name = *****
REMARK  8 active torsions:
REMARK  status: ('A' for Active; 'I' for Inactive)
REMARK    1  A    between atoms: C_1  and  C_2
REMARK    2  A    between atoms: C_4  and  C_8
REMARK    3  A    between atoms: C_8  and  N_9
REMARK    4  A    between atoms: N_9  and  C_10
REMARK    5  A    between atoms: N_9  and  O_18
REMARK    6  A    between atoms: C_10  and  C_11
REMARK    7  A    between atoms: C_15  and  C_17
REMARK    8  A    between atoms: O_18  and  C_19
REMARK                            x       y       z     vdW  Elec       q    Type
REMARK                         _______ _______ _______ _____ _____    ______ ____
ROOT
ATOM      1  N   UNL     1      89.281  69.847  85.742  0.00  0.00    +0.000 NA
ENDROOT
BRANCH   1   2
ATOM      2  O   UNL     1      89.954  68.658  85.209  0.00  0.00    +0.000 OA
ATOM      3  C   UNL     1      89.824  67.603  86.159  0.00  0.00    +0.000 C 
ENDBRANCH   1   2
BRANCH   1   4
ATOM      4  C   UNL     1      89.416  69.715  87.204  0.00  0.00    +0.000 C 
BRANCH   4   8
ATOM      5  C   UNL     1      84.930  72.040  87.392  0.00  0.00    +0.000 C 
ATOM      6  C   UNL     1      86.168  71.549  88.084  0.00  0.00    +0.000 A 
ATOM      7  C   UNL     1      87.161  70.872  87.363  0.00  0.00    +0.000 A 
ATOM      8  C   UNL     1      88.349  70.454  87.985  0.00  0.00    +0.000 A 
ATOM      9  C   UNL     1      88.523  70.712  89.352  0.00  0.00    +0.000 A 
ATOM     10  C   UNL     1      87.543  71.393  90.073  0.00  0.00    +0.000 A 
ATOM     11  C   UNL     1      86.375  71.816  89.440  0.00  0.00    +0.000 A 
ENDBRANCH   4   8
ENDBRANCH   1   4
BRANCH   1  12
ATOM     12  C   UNL     1      90.061  70.995  85.238  0.00  0.00    +0.000 C 
BRANCH  12  13
ATOM     13  C   UNL     1      89.234  71.955  84.404  0.00  0.00    +0.000 A 
ATOM     14  C   UNL     1      89.844  73.029  83.738  0.00  0.00    +0.000 A 
ATOM     15  C   UNL     1      89.089  73.887  82.939  0.00  0.00    +0.000 A 
ATOM     16  C   UNL     1      87.719  73.676  82.786  0.00  0.00    +0.000 A 
ATOM     17  C   UNL     1      87.089  72.612  83.441  0.00  0.00    +0.000 A 
ATOM     18  C   UNL     1      87.856  71.750  84.238  0.00  0.00    +0.000 A 
ATOM     19  C   UNL     1      85.627  72.354  83.232  0.00  0.00    +0.000 C 
ENDBRANCH  12  13
ENDBRANCH   1  12
TORSDOF 5
ENDMDL
