MODEL 1
REMARK VINA RESULT:      -4.6      0.000      0.000
REMARK  Name = *****
REMARK  3 active torsions:
REMARK  status: ('A' for Active; 'I' for Inactive)
REMARK    1  A    between atoms: C_1  and  C_2
REMARK    2  A    between atoms: C_5  and  C_8
REMARK    3  A    between atoms: N_9  and  C_10
REMARK                            x       y       z     vdW  Elec       q    Type
REMARK                         _______ _______ _______ _____ _____    ______ ____
ROOT
ATOM      1  C   UNL     1     102.743 125.998  82.503  0.00  0.00    +0.000 C 
ATOM      2  N   UNL     1     101.459 125.999  82.320  0.00  0.00    +0.000 NA
ENDROOT
BRANCH   1   7
ATOM      3  C   UNL     1     106.076 121.516  81.030  0.00  0.00    +0.000 C 
ATOM      4  C   UNL     1     105.187 122.665  81.402  0.00  0.00    +0.000 A 
ATOM      5  C   UNL     1     104.787 123.593  80.432  0.00  0.00    +0.000 A 
ATOM      6  C   UNL     1     103.987 124.683  80.780  0.00  0.00    +0.000 A 
ATOM      7  C   UNL     1     103.589 124.855  82.108  0.00  0.00    +0.000 A 
ATOM      8  C   UNL     1     103.993 123.945  83.087  0.00  0.00    +0.000 A 
ATOM      9  C   UNL     1     104.794 122.857  82.734  0.00  0.00    +0.000 A 
ENDBRANCH   1   7
BRANCH   2  10
ATOM     10  C   UNL     1     100.781 127.149  82.741  0.00  0.00    +0.000 A 
ATOM     11  C   UNL     1      99.400 127.268  82.554  0.00  0.00    +0.000 A 
ATOM     12  C   UNL     1      98.724 128.409  82.991  0.00  0.00    +0.000 A 
ATOM     13  C   UNL     1      99.435 129.423  83.622  0.00  0.00    +0.000 A 
ATOM     14  C   UNL     1     100.806 129.315  83.830  0.00  0.00    +0.000 A 
ATOM     15  C   UNL     1     101.478 128.173  83.392  0.00  0.00    +0.000 A 
ATOM     16  F   UNL     1      98.789 130.518  84.041  0.00  0.00    +0.000 F 
ENDBRANCH   2  10
TORSDOF 2
ENDMDL
