MODEL 1
REMARK VINA RESULT:      -5.0      0.000      0.000
REMARK  Name = *****
REMARK  5 active torsions:
REMARK  status: ('A' for Active; 'I' for Inactive)
REMARK    1  A    between atoms: C_1  and  C_2
REMARK    2  A    between atoms: C_5  and  C_8
REMARK    3  A    between atoms: C_8  and  C_9
REMARK    4  A    between atoms: C_9  and  C_10
REMARK    5  A    between atoms: C_10  and  C_12
REMARK                            x       y       z     vdW  Elec       q    Type
REMARK                         _______ _______ _______ _____ _____    ______ ____
ROOT
ATOM      1  C   UNL     1      89.463  68.836  86.364  0.00  0.00    +0.000 C 
ENDROOT
BRANCH   1   2
ATOM      2  C   UNL     1      88.925  67.479  86.776  0.00  0.00    +0.000 C 
ATOM      3  O   UNL     1      87.922  67.356  87.478  0.00  0.00    +0.000 OA
BRANCH   2   4
ATOM      4  C   UNL     1      89.641  66.251  86.310  0.00  0.00    +0.000 A 
ATOM      5  C   UNL     1      89.114  64.963  86.484  0.00  0.00    +0.000 A 
ATOM      6  C   UNL     1      89.825  63.848  86.029  0.00  0.00    +0.000 A 
ATOM      7  C   UNL     1      91.055  64.020  85.403  0.00  0.00    +0.000 A 
ATOM      8  C   UNL     1      91.591  65.289  85.222  0.00  0.00    +0.000 A 
ATOM      9  C   UNL     1      90.885  66.405  85.675  0.00  0.00    +0.000 A 
ATOM     10  F   UNL     1      91.730  62.949  84.970  0.00  0.00    +0.000 F 
ENDBRANCH   2   4
ENDBRANCH   1   2
BRANCH   1  11
ATOM     11  C   UNL     1      89.294  69.874  87.472  0.00  0.00    +0.000 C 
BRANCH  11  16
ATOM     12  C   UNL     1      84.154  72.570  86.966  0.00  0.00    +0.000 C 
ATOM     13  C   UNL     1      85.480  71.883  87.107  0.00  0.00    +0.000 A 
ATOM     14  C   UNL     1      85.998  71.569  88.368  0.00  0.00    +0.000 A 
ATOM     15  C   UNL     1      87.235  70.928  88.486  0.00  0.00    +0.000 A 
ATOM     16  C   UNL     1      87.973  70.594  87.345  0.00  0.00    +0.000 A 
ATOM     17  C   UNL     1      87.452  70.905  86.084  0.00  0.00    +0.000 A 
ATOM     18  C   UNL     1      86.216  71.545  85.966  0.00  0.00    +0.000 A 
ENDBRANCH  11  16
ENDBRANCH   1  11
TORSDOF 4
ENDMDL
