REMARK  Name = *****
REMARK  6 active torsions:
REMARK  status: ('A' for Active; 'I' for Inactive)
REMARK    1  A    between atoms: C_1  and  C_2
REMARK    2  A    between atoms: C_3  and  C_19
REMARK    3  A    between atoms: C_4  and  C_8
REMARK    4  A    between atoms: C_8  and  C_10
REMARK    5  A    between atoms: C_10  and  C_11
REMARK    6  A    between atoms: C_11  and  C_12
REMARK                            x       y       z     vdW  Elec       q    Type
REMARK                         _______ _______ _______ _____ _____    ______ ____
ROOT
ATOM      1  C   UNL     1      -0.525  -2.934  -0.141  0.00  0.00    +0.000 C 
ATOM      2  O   UNL     1       0.532  -3.544  -0.281  0.00  0.00    +0.000 OA
ENDROOT
BRANCH   1   6
ATOM      3  C   UNL     1       1.458   1.526   1.306  0.00  0.00    +0.000 C 
ATOM      4  C   UNL     1       0.435   0.689   0.582  0.00  0.00    +0.000 A 
ATOM      5  C   UNL     1       0.448  -0.725   0.638  0.00  0.00    +0.000 A 
ATOM      6  C   UNL     1      -0.525  -1.442  -0.099  0.00  0.00    +0.000 A 
ATOM      7  C   UNL     1      -1.507  -0.763  -0.833  0.00  0.00    +0.000 A 
ATOM      8  C   UNL     1      -1.531   0.628  -0.851  0.00  0.00    +0.000 A 
ATOM      9  C   UNL     1      -0.567   1.347  -0.151  0.00  0.00    +0.000 A 
ATOM     10  C   UNL     1       1.502  -1.455   1.434  0.00  0.00    +0.000 C 
ENDBRANCH   1   6
BRANCH   1  11
ATOM     11  C   UNL     1      -1.864  -3.640  -0.042  0.00  0.00    +0.000 C 
BRANCH  11  12
ATOM     12  C   UNL     1      -1.705  -5.033   0.564  0.00  0.00    +0.000 C 
BRANCH  12  13
ATOM     13  C   UNL     1      -3.034  -5.736   0.686  0.00  0.00    +0.000 A 
ATOM     14  C   UNL     1      -3.831  -5.559   1.825  0.00  0.00    +0.000 A 
ATOM     15  C   UNL     1      -5.065  -6.196   1.914  0.00  0.00    +0.000 A 
ATOM     16  C   UNL     1      -5.529  -7.008   0.886  0.00  0.00    +0.000 A 
ATOM     17  C   UNL     1      -4.746  -7.187  -0.253  0.00  0.00    +0.000 A 
ATOM     18  C   UNL     1      -3.506  -6.552  -0.354  0.00  0.00    +0.000 A 
ATOM     19  F   UNL     1      -5.819  -6.020   3.007  0.00  0.00    +0.000 F 
ENDBRANCH  12  13
ENDBRANCH  11  12
ENDBRANCH   1  11
TORSDOF 4
