MODEL 1
REMARK VINA RESULT:      -4.2      0.000      0.000
REMARK  Name = *****
REMARK  3 active torsions:
REMARK  status: ('A' for Active; 'I' for Inactive)
REMARK    1  A    between atoms: C_4  and  C_6
REMARK    2  A    between atoms: C_6  and  O_8
REMARK    3  A    between atoms: O_8  and  C_9
REMARK                            x       y       z     vdW  Elec       q    Type
REMARK                         _______ _______ _______ _____ _____    ______ ____
ROOT
ATOM      1  O   UNL     1     102.024 126.798  81.669  0.00  0.00    +0.000 OA
ENDROOT
BRANCH   1   2
ATOM      2  C   UNL     1     102.955 125.754  81.651  0.00  0.00    +0.000 A 
ATOM      3  C   UNL     1     103.224 125.011  82.800  0.00  0.00    +0.000 A 
ATOM      4  C   UNL     1     104.120 123.943  82.729  0.00  0.00    +0.000 A 
ATOM      5  C   UNL     1     104.720 123.622  81.510  0.00  0.00    +0.000 A 
ATOM      6  C   UNL     1     104.429 124.356  80.359  0.00  0.00    +0.000 A 
ATOM      7  C   UNL     1     103.535 125.426  80.426  0.00  0.00    +0.000 A 
ATOM      8 CL   UNL     1     105.820 122.302  81.424  0.00  0.00    +0.000 Cl
ENDBRANCH   1   2
BRANCH   1   9
ATOM      9  C   UNL     1     102.145 127.683  82.740  0.00  0.00    +0.000 C 
ATOM     10  O   UNL     1     103.084 128.436  82.956  0.00  0.00    +0.000 OA
BRANCH   9  14
ATOM     11  C   UNL     1      99.370 129.424  83.236  0.00  0.00    +0.000 C 
ATOM     12  C   UNL     1      98.613 128.150  82.905  0.00  0.00    +0.000 C 
ATOM     13  C   UNL     1      99.705 127.100  82.737  0.00  0.00    +0.000 C 
ATOM     14  C   UNL     1     100.889 127.579  83.588  0.00  0.00    +0.000 C 
ATOM     15  C   UNL     1     100.466 128.934  84.169  0.00  0.00    +0.000 C 
ENDBRANCH   9  14
ENDBRANCH   1   9
TORSDOF 3
ENDMDL
