MODEL 1
REMARK VINA RESULT:      -4.9      0.000      0.000
REMARK  Name = *****
REMARK  5 active torsions:
REMARK  status: ('A' for Active; 'I' for Inactive)
REMARK    1  A    between atoms: C_1  and  N_2
REMARK    2  A    between atoms: N_2  and  C_3
REMARK    3  A    between atoms: N_2  and  C_4
REMARK    4  A    between atoms: C_8  and  C_10
REMARK    5  A    between atoms: C_11  and  C_12
REMARK                            x       y       z     vdW  Elec       q    Type
REMARK                         _______ _______ _______ _____ _____    ______ ____
ROOT
ATOM      1  C   UNL     1     105.867 124.698  79.262  0.00  0.00    +0.000 A 
ATOM      2  C   UNL     1     105.929 123.439  79.887  0.00  0.00    +0.000 A 
ATOM      3  C   UNL     1     105.047 123.070  80.909  0.00  0.00    +0.000 A 
ATOM      4  C   UNL     1     104.078 123.961  81.354  0.00  0.00    +0.000 A 
ATOM      5  C   UNL     1     103.997 125.234  80.792  0.00  0.00    +0.000 A 
ATOM      6  C   UNL     1     104.884 125.580  79.754  0.00  0.00    +0.000 A 
ENDROOT
BRANCH   1   8
ATOM      7  C   UNL     1     106.515 124.593  76.883  0.00  0.00    +0.000 C 
ATOM      8  N   UNL     1     106.757 125.066  78.243  0.00  0.00    +0.000 N 
ATOM      9  C   UNL     1     108.154 125.329  78.583  0.00  0.00    +0.000 C 
ENDBRANCH   1   8
BRANCH   5  10
ATOM     10  C   UNL     1     102.976 126.208  81.208  0.00  0.00    +0.000 C 
ATOM     11  C   UNL     1     102.101 125.996  82.205  0.00  0.00    +0.000 C 
BRANCH  11  12
ATOM     12  C   UNL     1     101.091 126.974  82.633  0.00  0.00    +0.000 A 
ATOM     13  C   UNL     1     101.433 128.172  83.276  0.00  0.00    +0.000 A 
ATOM     14  C   UNL     1     100.445 129.091  83.639  0.00  0.00    +0.000 A 
ATOM     15  C   UNL     1      99.107 128.829  83.352  0.00  0.00    +0.000 A 
ATOM     16  C   UNL     1      98.756 127.650  82.698  0.00  0.00    +0.000 A 
ATOM     17  C   UNL     1      99.743 126.730  82.335  0.00  0.00    +0.000 A 
ENDBRANCH  11  12
ENDBRANCH   5  10
TORSDOF 3
ENDMDL
