MODEL 1
REMARK VINA RESULT:      -5.0      0.000      0.000
REMARK  Name = *****
REMARK  4 active torsions:
REMARK  status: ('A' for Active; 'I' for Inactive)
REMARK    1  A    between atoms: C_5  and  C_6
REMARK    2  A    between atoms: C_6  and  C_7
REMARK    3  A    between atoms: C_7  and  C_11
REMARK    4  A    between atoms: C_8  and  C_9
REMARK                            x       y       z     vdW  Elec       q    Type
REMARK                         _______ _______ _______ _____ _____    ______ ____
ROOT
ATOM      1  C   UNL     1      88.393  70.197  86.310  0.00  0.00    +0.000 C 
ATOM      2  C   UNL     1      88.375  68.868  86.536  0.00  0.00    +0.000 C 
ENDROOT
BRANCH   1   3
ATOM      3  C   UNL     1      87.133  70.926  86.581  0.00  0.00    +0.000 A 
ATOM      4  C   UNL     1      86.335  71.393  85.527  0.00  0.00    +0.000 A 
ATOM      5  C   UNL     1      85.144  72.071  85.791  0.00  0.00    +0.000 A 
ATOM      6  C   UNL     1      84.738  72.283  87.109  0.00  0.00    +0.000 A 
ATOM      7  C   UNL     1      85.520  71.813  88.162  0.00  0.00    +0.000 A 
ATOM      8  C   UNL     1      86.712  71.134  87.901  0.00  0.00    +0.000 A 
ENDBRANCH   1   3
BRANCH   2   9
ATOM      9  C   UNL     1      89.499  68.003  86.420  0.00  0.00    +0.000 C 
ATOM     10  N   UNL     1      90.425  67.305  86.383  0.00  0.00    +0.000 NA
ENDBRANCH   2   9
BRANCH   1  11
ATOM     11  C   UNL     1      89.578  70.938  85.887  0.00  0.00    +0.000 C 
BRANCH  11  16
ATOM     12  C   UNL     1      91.251  73.203  82.599  0.00  0.00    +0.000 C 
ATOM     13  C   UNL     1      91.861  72.035  82.358  0.00  0.00    +0.000 C 
ATOM     14  C   UNL     1      91.397  70.714  82.710  0.00  0.00    +0.000 C 
ATOM     15  C   UNL     1      90.580  70.385  83.720  0.00  0.00    +0.000 C 
ATOM     16  C   UNL     1      89.925  71.318  84.635  0.00  0.00    +0.000 C 
ATOM     17  C   UNL     1      89.419  72.616  84.183  0.00  0.00    +0.000 C 
ATOM     18  C   UNL     1      89.989  73.413  83.268  0.00  0.00    +0.000 C 
ENDBRANCH  11  16
ENDBRANCH   1  11
TORSDOF 4
ENDMDL
