MODEL 1
REMARK VINA RESULT:      -4.9      0.000      0.000
REMARK  Name = *****
REMARK  2 active torsions:
REMARK  status: ('A' for Active; 'I' for Inactive)
REMARK    1  A    between atoms: C_8  and  C_9
REMARK    2  A    between atoms: C_10  and  C_11
REMARK                            x       y       z     vdW  Elec       q    Type
REMARK                         _______ _______ _______ _____ _____    ______ ____
ROOT
ATOM      1  C   UNL     1     102.990 126.399  81.784  0.00  0.00    +0.000 C 
ATOM      2  C   UNL     1     102.176 126.398  82.852  0.00  0.00    +0.000 C 
ENDROOT
BRANCH   1  10
ATOM      3  C   UNL     1     106.326 123.718  81.287  0.00  0.00    +0.000 C 
ATOM      4  C   UNL     1     105.360 123.234  82.387  0.00  0.00    +0.000 C 
ATOM      5  C   UNL     1     105.048 121.879  81.766  0.00  0.00    +0.000 C 
ATOM      6  C   UNL     1     104.993 122.063  80.433  0.00  0.00    +0.000 C 
ATOM      7  C   UNL     1     105.271 123.539  80.177  0.00  0.00    +0.000 C 
ATOM      8  C   UNL     1     104.079 124.356  80.700  0.00  0.00    +0.000 C 
ATOM      9  C   UNL     1     104.140 124.149  82.200  0.00  0.00    +0.000 C 
ATOM     10  C   UNL     1     104.180 125.551  81.627  0.00  0.00    +0.000 C 
ENDBRANCH   1  10
BRANCH   2  11
ATOM     11  C   UNL     1     100.987 127.256  82.959  0.00  0.00    +0.000 A 
ATOM     12  C   UNL     1      99.761 126.786  82.460  0.00  0.00    +0.000 A 
ATOM     13  C   UNL     1      98.612 127.579  82.520  0.00  0.00    +0.000 A 
ATOM     14  C   UNL     1      98.674 128.854  83.074  0.00  0.00    +0.000 A 
ATOM     15  C   UNL     1      99.884 129.340  83.568  0.00  0.00    +0.000 A 
ATOM     16  C   UNL     1     101.037 128.549  83.507  0.00  0.00    +0.000 A 
ATOM     17 BR   UNL     1     102.639 129.289  84.217  0.00  0.00    +0.000 Br
ENDBRANCH   2  11
TORSDOF 2
ENDMDL
