REMARK  Name = *****
REMARK  3 active torsions:
REMARK  status: ('A' for Active; 'I' for Inactive)
REMARK    1  A    between atoms: C_3  and  O_6
REMARK    2  A    between atoms: O_6  and  C_7
REMARK    3  A    between atoms: C_7  and  C_9
REMARK                            x       y       z     vdW  Elec       q    Type
REMARK                         _______ _______ _______ _____ _____    ______ ____
ROOT
ATOM      1  C   UNL     1      -2.577  -2.229   0.958  0.00  0.00    +0.000 C 
ATOM      2  O   UNL     1      -2.330  -3.022   0.064  0.00  0.00    +0.000 OA
ENDROOT
BRANCH   1   3
ATOM      3  C   UNL     1      -3.509  -2.520   2.080  0.00  0.00    +0.000 A 
ATOM      4  C   UNL     1      -3.555  -1.731   3.238  0.00  0.00    +0.000 A 
ATOM      5  C   UNL     1      -4.445  -2.048   4.269  0.00  0.00    +0.000 A 
ATOM      6  C   UNL     1      -5.289  -3.151   4.143  0.00  0.00    +0.000 A 
ATOM      7  C   UNL     1      -5.249  -3.944   2.997  0.00  0.00    +0.000 A 
ATOM      8  C   UNL     1      -4.357  -3.631   1.967  0.00  0.00    +0.000 A 
ATOM      9 CL   UNL     1      -6.385  -3.536   5.411  0.00  0.00    +0.000 Cl
ENDBRANCH   1   3
BRANCH   1  10
ATOM     10  O   UNL     1      -2.088  -0.971   1.071  0.00  0.00    +0.000 OA
BRANCH  10  13
ATOM     11  C   UNL     1       1.168   0.073  -0.033  0.00  0.00    +0.000 C 
ATOM     12  C   UNL     1       0.234  -1.085   0.318  0.00  0.00    +0.000 C 
ATOM     13  C   UNL     1      -1.187  -0.586   0.034  0.00  0.00    +0.000 C 
ATOM     14  C   UNL     1      -1.019   0.900   0.078  0.00  0.00    +0.000 C 
ATOM     15  C   UNL     1       0.267   1.261   0.035  0.00  0.00    +0.000 C 
ENDBRANCH  10  13
ENDBRANCH   1  10
TORSDOF 3
