MODEL 1
REMARK VINA RESULT:      -3.7      0.000      0.000
REMARK  Name = *****
REMARK  4 active torsions:
REMARK  status: ('A' for Active; 'I' for Inactive)
REMARK    1  A    between atoms: C_1  and  C_2
REMARK    2  A    between atoms: C_5  and  S_8
REMARK    3  A    between atoms: S_8  and  C_9
REMARK    4  A    between atoms: C_9  and  C_10
REMARK                            x       y       z     vdW  Elec       q    Type
REMARK                         _______ _______ _______ _____ _____    ______ ____
ROOT
ATOM      1  C   UNL     1      83.826  72.657  86.237  0.00  0.00    +0.000 C 
ATOM      2  C   UNL     1      85.131  72.015  86.602  0.00  0.00    +0.000 A 
ATOM      3  C   UNL     1      85.471  71.811  87.944  0.00  0.00    +0.000 A 
ATOM      4  C   UNL     1      86.702  71.245  88.286  0.00  0.00    +0.000 A 
ATOM      5  C   UNL     1      87.612  70.879  87.290  0.00  0.00    +0.000 A 
ATOM      6  C   UNL     1      87.289  71.111  85.951  0.00  0.00    +0.000 A 
ATOM      7  C   UNL     1      86.058  71.675  85.609  0.00  0.00    +0.000 A 
ENDROOT
BRANCH   5   8
ATOM      8  S   UNL     1      89.193  70.164  87.696  0.00  0.00    +0.000 S 
BRANCH   8   9
ATOM      9  C   UNL     1      89.467  69.170  86.190  0.00  0.00    +0.000 C 
BRANCH   9  10
ATOM     10  C   UNL     1      89.165  67.726  86.451  0.00  0.00    +0.000 A 
ATOM     11  C   UNL     1      88.083  67.183  87.119  0.00  0.00    +0.000 A 
ATOM     12  C   UNL     1      88.138  65.761  87.179  0.00  0.00    +0.000 A 
ATOM     13  C   UNL     1      89.262  65.262  86.558  0.00  0.00    +0.000 A 
ATOM     14  S   UNL     1      90.242  66.504  85.912  0.00  0.00    +0.000 S 
ENDBRANCH   9  10
ENDBRANCH   8   9
ENDBRANCH   5   8
TORSDOF 3
ENDMDL
