REMARK  Name = *****
REMARK  2 active torsions:
REMARK  status: ('A' for Active; 'I' for Inactive)
REMARK    1  A    between atoms: C_4  and  C_7
REMARK    2  A    between atoms: C_8  and  C_9
REMARK                            x       y       z     vdW  Elec       q    Type
REMARK                         _______ _______ _______ _____ _____    ______ ____
ROOT
ATOM      1  C   UNL     1       2.938   0.193  -0.210  0.00  0.00    +0.000 C 
ATOM      2  C   UNL     1       4.129   0.269  -0.347  0.00  0.00    +0.000 C 
ENDROOT
BRANCH   2   3
ATOM      3  C   UNL     1       5.542   0.364  -0.552  0.00  0.00    +0.000 A 
ATOM      4  C   UNL     1       6.147   1.618  -0.670  0.00  0.00    +0.000 A 
ATOM      5  C   UNL     1       7.520   1.699  -0.901  0.00  0.00    +0.000 A 
ATOM      6  C   UNL     1       8.292   0.543  -1.014  0.00  0.00    +0.000 A 
ATOM      7  C   UNL     1       7.686  -0.707  -0.891  0.00  0.00    +0.000 A 
ATOM      8  C   UNL     1       6.312  -0.797  -0.660  0.00  0.00    +0.000 A 
ATOM      9 BR   UNL     1       8.341   3.394  -1.072  0.00  0.00    +0.000 Br
ENDBRANCH   2   3
BRANCH   1  13
ATOM     10  C   UNL     1      -1.266  -0.067   0.087  0.00  0.00    +0.000 A 
ATOM     11  C   UNL     1      -0.646   1.181   0.044  0.00  0.00    +0.000 A 
ATOM     12  C   UNL     1       0.744   1.268  -0.044  0.00  0.00    +0.000 A 
ATOM     13  C   UNL     1       1.516   0.104  -0.089  0.00  0.00    +0.000 A 
ATOM     14  C   UNL     1       0.894  -1.145  -0.041  0.00  0.00    +0.000 A 
ATOM     15  C   UNL     1      -0.497  -1.230   0.047  0.00  0.00    +0.000 A 
ENDBRANCH   1  13
TORSDOF 2
