MODEL 1
REMARK VINA RESULT:      -4.7      0.000      0.000
REMARK  Name = *****
REMARK  2 active torsions:
REMARK  status: ('A' for Active; 'I' for Inactive)
REMARK    1  A    between atoms: C_5  and  C_7
REMARK    2  A    between atoms: C_9  and  C_10
REMARK                            x       y       z     vdW  Elec       q    Type
REMARK                         _______ _______ _______ _____ _____    ______ ____
ROOT
ATOM      1  C   UNL     1      87.902  69.831  87.284  0.00  0.00    +0.000 C 
ATOM      2  C   UNL     1      87.456  69.428  88.663  0.00  0.00    +0.000 C 
ATOM      3  C   UNL     1      87.395  70.883  88.255  0.00  0.00    +0.000 C 
ENDROOT
BRANCH   1   8
ATOM      4  C   UNL     1      89.431  68.136  84.972  0.00  0.00    +0.000 C 
ATOM      5  C   UNL     1      90.091  69.168  84.057  0.00  0.00    +0.000 C 
ATOM      6  C   UNL     1      90.038  70.563  84.604  0.00  0.00    +0.000 C 
ATOM      7  C   UNL     1      89.702  70.846  85.872  0.00  0.00    +0.000 C 
ATOM      8  C   UNL     1      89.365  69.797  86.906  0.00  0.00    +0.000 C 
ATOM      9  C   UNL     1      89.777  68.384  86.441  0.00  0.00    +0.000 C 
ENDBRANCH   1   8
BRANCH   3  10
ATOM     10  C   UNL     1      86.062  71.547  88.008  0.00  0.00    +0.000 A 
ATOM     11  C   UNL     1      85.616  71.830  86.706  0.00  0.00    +0.000 A 
ATOM     12  C   UNL     1      84.375  72.429  86.475  0.00  0.00    +0.000 A 
ATOM     13  C   UNL     1      83.549  72.755  87.547  0.00  0.00    +0.000 A 
ATOM     14  C   UNL     1      83.964  72.479  88.846  0.00  0.00    +0.000 A 
ATOM     15  C   UNL     1      85.205  71.879  89.070  0.00  0.00    +0.000 A 
ENDBRANCH   3  10
TORSDOF 2
ENDMDL
