REMARK  Name = *****
REMARK  2 active torsions:
REMARK  status: ('A' for Active; 'I' for Inactive)
REMARK    1  A    between atoms: C_4  and  C_7
REMARK    2  A    between atoms: C_8  and  C_10
REMARK                            x       y       z     vdW  Elec       q    Type
REMARK                         _______ _______ _______ _____ _____    ______ ____
ROOT
ATOM      1  C   UNL     1      -2.886   0.382  -0.181  0.00  0.00    +0.000 C 
ATOM      2  C   UNL     1      -3.765  -0.010   0.997  0.00  0.00    +0.000 C 
ATOM      3  O   UNL     1      -3.729  -0.781  -0.214  0.00  0.00    +0.000 OA
ENDROOT
BRANCH   2   4
ATOM      4  C   UNL     1      -5.012   0.783   1.289  0.00  0.00    +0.000 A 
ATOM      5  C   UNL     1      -4.935   2.069   1.852  0.00  0.00    +0.000 A 
ATOM      6  C   UNL     1      -6.089   2.802   2.133  0.00  0.00    +0.000 A 
ATOM      7  C   UNL     1      -7.347   2.271   1.864  0.00  0.00    +0.000 A 
ATOM      8  C   UNL     1      -7.449   0.997   1.311  0.00  0.00    +0.000 A 
ATOM      9  C   UNL     1      -6.292   0.264   1.031  0.00  0.00    +0.000 A 
ATOM     10 CL   UNL     1      -5.954   4.374   2.819  0.00  0.00    +0.000 Cl
ENDBRANCH   2   4
BRANCH   1  14
ATOM     11  C   UNL     1       1.401  -0.182   0.076  0.00  0.00    +0.000 A 
ATOM     12  C   UNL     1       0.631  -1.046  -0.697  0.00  0.00    +0.000 A 
ATOM     13  C   UNL     1      -0.752  -0.865  -0.778  0.00  0.00    +0.000 A 
ATOM     14  C   UNL     1      -1.396   0.177  -0.090  0.00  0.00    +0.000 A 
ATOM     15  C   UNL     1      -0.594   1.037   0.679  0.00  0.00    +0.000 A 
ATOM     16  C   UNL     1       0.789   0.861   0.764  0.00  0.00    +0.000 A 
ENDBRANCH   1  14
TORSDOF 2
