MODEL 1
REMARK VINA RESULT:      -4.6      0.000      0.000
REMARK  Name = *****
REMARK  3 active torsions:
REMARK  status: ('A' for Active; 'I' for Inactive)
REMARK    1  A    between atoms: C_2  and  C_3
REMARK    2  A    between atoms: C_3  and  C_12
REMARK    3  A    between atoms: C_5  and  C_6
REMARK                            x       y       z     vdW  Elec       q    Type
REMARK                         _______ _______ _______ _____ _____    ______ ____
ROOT
ATOM      1  C   UNL     1      88.159  70.225  86.473  0.00  0.00    +0.000 C 
ATOM      2  C   UNL     1      88.692  69.570  87.741  0.00  0.00    +0.000 C 
ATOM      3  C   UNL     1      88.053  68.701  86.694  0.00  0.00    +0.000 C 
ENDROOT
BRANCH   3   4
ATOM      4  C   UNL     1      88.875  67.711  85.897  0.00  0.00    +0.000 A 
ATOM      5  C   UNL     1      90.092  67.203  86.382  0.00  0.00    +0.000 A 
ATOM      6  C   UNL     1      90.835  66.268  85.655  0.00  0.00    +0.000 A 
ATOM      7  C   UNL     1      90.368  65.812  84.426  0.00  0.00    +0.000 A 
ATOM      8  C   UNL     1      89.159  66.288  83.928  0.00  0.00    +0.000 A 
ATOM      9  C   UNL     1      88.422  67.222  84.659  0.00  0.00    +0.000 A 
ENDBRANCH   3   4
BRANCH   1  10
ATOM     10  C   UNL     1      86.847  71.014  86.587  0.00  0.00    +0.000 A 
ATOM     11  C   UNL     1      86.150  71.442  85.442  0.00  0.00    +0.000 A 
ATOM     12  C   UNL     1      84.962  72.170  85.540  0.00  0.00    +0.000 A 
ATOM     13  C   UNL     1      84.446  72.493  86.792  0.00  0.00    +0.000 A 
ATOM     14  C   UNL     1      85.120  72.093  87.942  0.00  0.00    +0.000 A 
ATOM     15  C   UNL     1      86.308  71.365  87.838  0.00  0.00    +0.000 A 
ENDBRANCH   1  10
BRANCH   1  17
ATOM     16  C   UNL     1      90.039  71.134  84.837  0.00  0.00    +0.000 C 
ATOM     17  C   UNL     1      89.189  70.720  85.577  0.00  0.00    +0.000 C 
ENDBRANCH   1  17
TORSDOF 3
ENDMDL
