REMARK  Name = *****
REMARK  5 active torsions:
REMARK  status: ('A' for Active; 'I' for Inactive)
REMARK    1  A    between atoms: C_1  and  C_2
REMARK    2  A    between atoms: C_5  and  C_8
REMARK    3  A    between atoms: C_8  and  N_9
REMARK    4  A    between atoms: N_9  and  N_18
REMARK    5  A    between atoms: C_10  and  C_12
REMARK                            x       y       z     vdW  Elec       q    Type
REMARK                         _______ _______ _______ _____ _____    ______ ____
ROOT
ATOM      1  N   UNL     1      -3.880   1.321  -0.144  0.00  0.00    +0.000 N 
ATOM      2  C   UNL     1      -3.933   2.136  -1.277  0.00  0.00    +0.000 C 
ATOM      3  O   UNL     1      -3.490   1.806  -2.379  0.00  0.00    +0.000 OA
ENDROOT
BRANCH   2   4
ATOM      4  C   UNL     1      -4.562   3.477  -1.183  0.00  0.00    +0.000 A 
ATOM      5  C   UNL     1      -4.112   4.425  -0.257  0.00  0.00    +0.000 A 
ATOM      6  C   UNL     1      -4.704   5.688  -0.218  0.00  0.00    +0.000 A 
ATOM      7  C   UNL     1      -5.728   6.009  -1.111  0.00  0.00    +0.000 A 
ATOM      8  C   UNL     1      -6.158   5.072  -2.052  0.00  0.00    +0.000 A 
ATOM      9  C   UNL     1      -5.570   3.808  -2.096  0.00  0.00    +0.000 A 
ENDBRANCH   2   4
BRANCH   1  10
ATOM     10  N   UNL     1      -4.600   1.678   1.003  0.00  0.00    +0.000 NA
ATOM     11  O   UNL     1      -4.513   0.872   1.934  0.00  0.00    +0.000 OA
ENDBRANCH   1  10
BRANCH   1  12
ATOM     12  C   UNL     1      -3.161   0.051  -0.215  0.00  0.00    +0.000 C 
BRANCH  12  17
ATOM     13  C   UNL     1       2.393   0.565   1.491  0.00  0.00    +0.000 C 
ATOM     14  C   UNL     1       0.959   0.459   1.063  0.00  0.00    +0.000 A 
ATOM     15  C   UNL     1      -0.017  -0.003   1.953  0.00  0.00    +0.000 A 
ATOM     16  C   UNL     1      -1.346  -0.134   1.542  0.00  0.00    +0.000 A 
ATOM     17  C   UNL     1      -1.720   0.179   0.229  0.00  0.00    +0.000 A 
ATOM     18  C   UNL     1      -0.739   0.635  -0.662  0.00  0.00    +0.000 A 
ATOM     19  C   UNL     1       0.589   0.767  -0.251  0.00  0.00    +0.000 A 
ENDBRANCH  12  17
ENDBRANCH   1  12
TORSDOF 4
