MODEL 1
REMARK VINA RESULT:      -4.1      0.000      0.000
REMARK  Name = *****
REMARK  3 active torsions:
REMARK  status: ('A' for Active; 'I' for Inactive)
REMARK    1  A    between atoms: S_4  and  C_6
REMARK    2  A    between atoms: C_6  and  C_7
REMARK    3  A    between atoms: C_7  and  C_9
REMARK                            x       y       z     vdW  Elec       q    Type
REMARK                         _______ _______ _______ _____ _____    ______ ____
ROOT
ATOM      1  C   UNL     1     102.099 125.877  82.799  0.00  0.00    +0.000 C 
ATOM      2  O   UNL     1     102.411 125.217  83.787  0.00  0.00    +0.000 OA
ENDROOT
BRANCH   1   3
ATOM      3  C   UNL     1     101.071 126.955  82.952  0.00  0.00    +0.000 A 
ATOM      4  C   UNL     1     101.354 128.181  83.567  0.00  0.00    +0.000 A 
ATOM      5  C   UNL     1     100.356 129.154  83.683  0.00  0.00    +0.000 A 
ATOM      6  C   UNL     1      99.076 128.911  83.189  0.00  0.00    +0.000 A 
ATOM      7  C   UNL     1      98.787 127.694  82.577  0.00  0.00    +0.000 A 
ATOM      8  C   UNL     1      99.779 126.719  82.460  0.00  0.00    +0.000 A 
ENDBRANCH   1   3
BRANCH   1   9
ATOM      9  C   UNL     1     102.702 125.660  81.430  0.00  0.00    +0.000 C 
BRANCH   9  13
ATOM     10  C   UNL     1     105.801 123.737  79.716  0.00  0.00    +0.000 C 
ATOM     11  C   UNL     1     104.982 122.715  80.513  0.00  0.00    +0.000 C 
ATOM     12  C   UNL     1     104.527 123.393  81.808  0.00  0.00    +0.000 C 
ATOM     13  S   UNL     1     104.386 125.113  81.402  0.00  0.00    +0.000 S 
ATOM     14  C   UNL     1     105.027 125.053  79.754  0.00  0.00    +0.000 C 
ATOM     15 BR   UNL     1     105.617 126.310  82.666  0.00  0.00    +0.000 Br
ENDBRANCH   9  13
ENDBRANCH   1   9
TORSDOF 3
ENDMDL
