REMARK  Name = *****
REMARK  6 active torsions:
REMARK  status: ('A' for Active; 'I' for Inactive)
REMARK    1  A    between atoms: C_1  and  C_2
REMARK    2  A    between atoms: C_2  and  O_3
REMARK    3  A    between atoms: O_3  and  C_4
REMARK    4  A    between atoms: C_4  and  C_13
REMARK    5  A    between atoms: N_5  and  C_6
REMARK    6  A    between atoms: C_9  and  C_12
REMARK                            x       y       z     vdW  Elec       q    Type
REMARK                         _______ _______ _______ _____ _____    ______ ____
ROOT
ATOM      1  C   UNL     1       4.626   1.832  -0.187  0.00  0.00    +0.000 C 
ATOM      2  N   UNL     1       4.988   2.755   0.646  0.00  0.00    +0.000 NA
ENDROOT
BRANCH   2   3
ATOM      3  C   UNL     1       6.345   3.010   0.879  0.00  0.00    +0.000 A 
ATOM      4  C   UNL     1       7.157   3.597  -0.096  0.00  0.00    +0.000 A 
ATOM      5  C   UNL     1       8.503   3.864   0.167  0.00  0.00    +0.000 A 
ATOM      6  C   UNL     1       9.055   3.556   1.416  0.00  0.00    +0.000 A 
ATOM      7  C   UNL     1       8.232   3.008   2.406  0.00  0.00    +0.000 A 
ATOM      8  C   UNL     1       6.887   2.741   2.137  0.00  0.00    +0.000 A 
ATOM      9  C   UNL     1      10.490   3.879   1.711  0.00  0.00    +0.000 C 
ENDBRANCH   2   3
BRANCH   1  10
ATOM     10  C   UNL     1       5.441   0.873  -0.959  0.00  0.00    +0.000 A 
ATOM     11  C   UNL     1       5.303   0.814  -2.351  0.00  0.00    +0.000 A 
ATOM     12  C   UNL     1       6.071  -0.089  -3.087  0.00  0.00    +0.000 A 
ATOM     13  C   UNL     1       6.972  -0.932  -2.435  0.00  0.00    +0.000 A 
ATOM     14  C   UNL     1       7.104  -0.879  -1.046  0.00  0.00    +0.000 A 
ATOM     15  C   UNL     1       6.337   0.021  -0.305  0.00  0.00    +0.000 A 
ENDBRANCH   1  10
BRANCH   1  16
ATOM     16  O   UNL     1       3.321   1.579  -0.475  0.00  0.00    +0.000 OA
BRANCH  16  18
ATOM     17  C   UNL     1       0.973   1.969  -0.263  0.00  0.00    +0.000 C 
ATOM     18  C   UNL     1       2.353   2.399   0.196  0.00  0.00    +0.000 C 
ENDBRANCH  16  18
ENDBRANCH   1  16
TORSDOF 4
