MODEL 1
REMARK VINA RESULT:      -4.8      0.000      0.000
REMARK  Name = *****
REMARK  5 active torsions:
REMARK  status: ('A' for Active; 'I' for Inactive)
REMARK    1  A    between atoms: C_1  and  C_2
REMARK    2  A    between atoms: C_3  and  C_19
REMARK    3  A    between atoms: C_5  and  O_8
REMARK    4  A    between atoms: O_8  and  C_9
REMARK    5  A    between atoms: C_9  and  C_11
REMARK                            x       y       z     vdW  Elec       q    Type
REMARK                         _______ _______ _______ _____ _____    ______ ____
ROOT
ATOM      1  C   UNL     1     101.772 126.000  82.948  0.00  0.00    +0.000 C 
ATOM      2  O   UNL     1     102.185 125.320  83.875  0.00  0.00    +0.000 OA
ENDROOT
BRANCH   1   3
ATOM      3  C   UNL     1     100.974 127.229  83.166  0.00  0.00    +0.000 A 
ATOM      4  C   UNL     1      99.644 127.355  82.754  0.00  0.00    +0.000 A 
ATOM      5  C   UNL     1      98.936 128.533  82.978  0.00  0.00    +0.000 A 
ATOM      6  C   UNL     1      99.566 129.595  83.611  0.00  0.00    +0.000 A 
ATOM      7  C   UNL     1     100.892 129.501  84.020  0.00  0.00    +0.000 A 
ATOM      8  C   UNL     1     101.601 128.319  83.794  0.00  0.00    +0.000 A 
ATOM      9  F   UNL     1      98.890 130.730  83.827  0.00  0.00    +0.000 F 
ATOM     10  F   UNL     1      99.015 126.362  82.110  0.00  0.00    +0.000 F 
ENDBRANCH   1   3
BRANCH   1  11
ATOM     11  O   UNL     1     101.883 125.739  81.597  0.00  0.00    +0.000 OA
BRANCH  11  16
ATOM     12  C   UNL     1     107.113 126.596  79.506  0.00  0.00    +0.000 C 
ATOM     13  C   UNL     1     105.726 126.385  80.051  0.00  0.00    +0.000 A 
ATOM     14  C   UNL     1     104.891 127.476  80.377  0.00  0.00    +0.000 A 
ATOM     15  C   UNL     1     103.605 127.228  80.882  0.00  0.00    +0.000 A 
ATOM     16  C   UNL     1     103.153 125.919  81.034  0.00  0.00    +0.000 A 
ATOM     17  C   UNL     1     103.973 124.838  80.732  0.00  0.00    +0.000 A 
ATOM     18  C   UNL     1     105.253 125.074  80.233  0.00  0.00    +0.000 A 
ATOM     19  C   UNL     1     105.357 128.897  80.214  0.00  0.00    +0.000 C 
ENDBRANCH  11  16
ENDBRANCH   1  11
TORSDOF 3
ENDMDL
