MODEL 1
REMARK VINA RESULT:      -4.7      0.000      0.000
REMARK  Name = *****
REMARK  4 active torsions:
REMARK  status: ('A' for Active; 'I' for Inactive)
REMARK    1  A    between atoms: C_1  and  O_2
REMARK    2  A    between atoms: O_2  and  C_3
REMARK    3  A    between atoms: C_8  and  C_9
REMARK    4  A    between atoms: C_10  and  C_11
REMARK                            x       y       z     vdW  Elec       q    Type
REMARK                         _______ _______ _______ _____ _____    ______ ____
ROOT
ATOM      1  C   UNL     1     103.040 125.381  82.652  0.00  0.00    +0.000 C 
ATOM      2  C   UNL     1     102.022 125.939  81.975  0.00  0.00    +0.000 C 
ENDROOT
BRANCH   2   3
ATOM      3  C   UNL     1     101.145 126.983  82.519  0.00  0.00    +0.000 A 
ATOM      4  C   UNL     1      99.746 126.893  82.457  0.00  0.00    +0.000 A 
ATOM      5  C   UNL     1      98.946 127.894  83.014  0.00  0.00    +0.000 A 
ATOM      6  C   UNL     1      99.543 128.978  83.642  0.00  0.00    +0.000 A 
ATOM      7  C   UNL     1     100.926 129.080  83.729  0.00  0.00    +0.000 A 
ATOM      8  C   UNL     1     101.727 128.080  83.173  0.00  0.00    +0.000 A 
ATOM      9  F   UNL     1      98.776 129.937  84.177  0.00  0.00    +0.000 F 
ENDBRANCH   2   3
BRANCH   1  15
ATOM     10  C   UNL     1     104.289 123.174  82.810  0.00  0.00    +0.000 A 
ATOM     11  C   UNL     1     105.082 122.207  82.178  0.00  0.00    +0.000 A 
ATOM     12  C   UNL     1     105.464 122.363  80.843  0.00  0.00    +0.000 A 
ATOM     13  C   UNL     1     105.055 123.481  80.124  0.00  0.00    +0.000 A 
ATOM     14  C   UNL     1     104.266 124.451  80.741  0.00  0.00    +0.000 A 
ATOM     15  C   UNL     1     103.885 124.315  82.086  0.00  0.00    +0.000 A 
BRANCH  10  17
ATOM     16  C   UNL     1     104.833 123.036  85.134  0.00  0.00    +0.000 C 
ATOM     17  O   UNL     1     103.851 123.082  84.108  0.00  0.00    +0.000 OA
ENDBRANCH  10  17
ENDBRANCH   1  15
TORSDOF 3
ENDMDL
