MODEL 1
REMARK VINA RESULT:      -4.5      0.000      0.000
REMARK  Name = *****
REMARK  3 active torsions:
REMARK  status: ('A' for Active; 'I' for Inactive)
REMARK    1  A    between atoms: N_5  and  C_8
REMARK    2  A    between atoms: C_8  and  C_16
REMARK    3  A    between atoms: C_9  and  C_10
REMARK                            x       y       z     vdW  Elec       q    Type
REMARK                         _______ _______ _______ _____ _____    ______ ____
ROOT
ATOM      1  C   UNL     1      87.743  63.908  86.962  0.00  0.00    +0.000 C 
ATOM      2  C   UNL     1      86.676  63.079  86.853  0.00  0.00    +0.000 C 
ENDROOT
BRANCH   1   7
ATOM      3  C   UNL     1      90.728  66.162  85.114  0.00  0.00    +0.000 C 
ATOM      4  C   UNL     1      91.529  64.866  84.983  0.00  0.00    +0.000 C 
ATOM      5  C   UNL     1      90.884  63.641  85.627  0.00  0.00    +0.000 C 
ATOM      6  C   UNL     1      89.460  63.363  85.148  0.00  0.00    +0.000 C 
ATOM      7  N   UNL     1      88.513  64.280  85.801  0.00  0.00    +0.000 N 
ATOM      8  C   UNL     1      88.233  65.541  85.084  0.00  0.00    +0.000 C 
ATOM      9  C   UNL     1      89.422  66.133  84.322  0.00  0.00    +0.000 C 
ENDBRANCH   1   7
BRANCH   2  10
ATOM     10  C   UNL     1      85.850  62.555  87.944  0.00  0.00    +0.000 A 
ATOM     11  C   UNL     1      84.533  63.000  88.096  0.00  0.00    +0.000 A 
ATOM     12  C   UNL     1      83.737  62.494  89.124  0.00  0.00    +0.000 A 
ATOM     13  C   UNL     1      84.251  61.538  90.001  0.00  0.00    +0.000 A 
ATOM     14  C   UNL     1      85.562  61.087  89.849  0.00  0.00    +0.000 A 
ATOM     15  C   UNL     1      86.361  61.591  88.821  0.00  0.00    +0.000 A 
ENDBRANCH   2  10
BRANCH   1  16
ATOM     16  C   UNL     1      88.163  64.464  88.352  0.00  0.00    +0.000 C 
ATOM     17  F   UNL     1      88.996  65.538  88.238  0.00  0.00    +0.000 F 
ATOM     18  F   UNL     1      87.135  64.890  89.130  0.00  0.00    +0.000 F 
ATOM     19  F   UNL     1      88.841  63.528  89.072  0.00  0.00    +0.000 F 
ENDBRANCH   1  16
TORSDOF 3
ENDMDL
