MODEL 1
REMARK VINA RESULT:      -4.2      0.000      0.000
REMARK  Name = *****
REMARK  4 active torsions:
REMARK  status: ('A' for Active; 'I' for Inactive)
REMARK    1  A    between atoms: C_4  and  C_7
REMARK    2  A    between atoms: C_7  and  O_9
REMARK    3  A    between atoms: O_9  and  C_10
REMARK    4  A    between atoms: C_13  and  S_16
REMARK                            x       y       z     vdW  Elec       q    Type
REMARK                         _______ _______ _______ _____ _____    ______ ____
ROOT
ATOM      1  O   UNL     1      88.627  70.085  87.017  0.00  0.00    +0.000 OA
ENDROOT
BRANCH   1   2
ATOM      2  C   UNL     1      88.742  68.703  86.829  0.00  0.00    +0.000 A 
ATOM      3  C   UNL     1      87.741  67.829  87.253  0.00  0.00    +0.000 A 
ATOM      4  C   UNL     1      87.925  66.453  87.100  0.00  0.00    +0.000 A 
ATOM      5  C   UNL     1      89.111  65.956  86.546  0.00  0.00    +0.000 A 
ATOM      6  C   UNL     1      90.111  66.847  86.141  0.00  0.00    +0.000 A 
ATOM      7  C   UNL     1      89.933  68.224  86.290  0.00  0.00    +0.000 A 
BRANCH   5   8
ATOM      8  S   UNL     1      89.356  64.205  86.338  0.00  0.00    +0.000 S 
ATOM      9  H   UNL     1      88.919  63.552  87.447  0.00  0.00    +0.000 HD
ENDBRANCH   5   8
ENDBRANCH   1   2
BRANCH   1  10
ATOM     10  C   UNL     1      87.845  70.756  86.094  0.00  0.00    +0.000 C 
ATOM     11  O   UNL     1      88.070  70.900  84.901  0.00  0.00    +0.000 OA
BRANCH  10  15
ATOM     12  C   UNL     1      84.323  72.385  87.927  0.00  0.00    +0.000 A 
ATOM     13  C   UNL     1      85.322  71.845  88.736  0.00  0.00    +0.000 A 
ATOM     14  C   UNL     1      86.478  71.309  88.161  0.00  0.00    +0.000 A 
ATOM     15  C   UNL     1      86.638  71.313  86.768  0.00  0.00    +0.000 A 
ATOM     16  C   UNL     1      85.627  71.857  85.963  0.00  0.00    +0.000 A 
ATOM     17  C   UNL     1      84.474  72.391  86.542  0.00  0.00    +0.000 A 
ENDBRANCH  10  15
ENDBRANCH   1  10
TORSDOF 4
ENDMDL
