MODEL 1
REMARK VINA RESULT:      -4.8      0.000      0.000
REMARK  Name = *****
REMARK  4 active torsions:
REMARK  status: ('A' for Active; 'I' for Inactive)
REMARK    1  A    between atoms: C_1  and  C_2
REMARK    2  A    between atoms: C_2  and  C_5
REMARK    3  A    between atoms: C_6  and  C_10
REMARK    4  A    between atoms: C_11  and  C_12
REMARK                            x       y       z     vdW  Elec       q    Type
REMARK                         _______ _______ _______ _____ _____    ______ ____
ROOT
ATOM      1  C   UNL     1      84.509  58.040  91.336  0.00  0.00    +0.000 C 
ATOM      2  C   UNL     1      84.091  59.226  90.853  0.00  0.00    +0.000 C 
ATOM      3  C   UNL     1      82.594  59.301  90.766  0.00  0.00    +0.000 C 
ATOM      4  C   UNL     1      82.174  57.845  90.896  0.00  0.00    +0.000 C 
ATOM      5  C   UNL     1      83.320  57.153  91.625  0.00  0.00    +0.000 C 
ENDROOT
BRANCH   1   7
ATOM      6  C   UNL     1      86.275  57.265  93.023  0.00  0.00    +0.000 C 
ATOM      7  C   UNL     1      85.860  57.566  91.611  0.00  0.00    +0.000 C 
ATOM      8  C   UNL     1      86.692  57.366  90.624  0.00  0.00    +0.000 C 
ATOM      9  O   UNL     1      87.438  57.180  89.735  0.00  0.00    +0.000 OA
ENDBRANCH   1   7
BRANCH   2  10
ATOM     10  C   UNL     1      84.906  60.308  90.434  0.00  0.00    +0.000 C 
ATOM     11  C   UNL     1      85.606  61.209  90.059  0.00  0.00    +0.000 C 
BRANCH  11  12
ATOM     12  C   UNL     1      86.442  62.280  89.610  0.00  0.00    +0.000 A 
ATOM     13  C   UNL     1      86.863  62.331  88.279  0.00  0.00    +0.000 A 
ATOM     14  C   UNL     1      87.677  63.377  87.843  0.00  0.00    +0.000 A 
ATOM     15  C   UNL     1      88.071  64.373  88.736  0.00  0.00    +0.000 A 
ATOM     16  C   UNL     1      87.652  64.325  90.065  0.00  0.00    +0.000 A 
ATOM     17  C   UNL     1      86.837  63.279  90.503  0.00  0.00    +0.000 A 
ENDBRANCH  11  12
ENDBRANCH   2  10
TORSDOF 3
ENDMDL
