MODEL 1
REMARK VINA RESULT:      -4.9      0.000      0.000
REMARK  Name = *****
REMARK  4 active torsions:
REMARK  status: ('A' for Active; 'I' for Inactive)
REMARK    1  A    between atoms: C_1  and  O_2
REMARK    2  A    between atoms: O_2  and  C_3
REMARK    3  A    between atoms: C_6  and  C_9
REMARK    4  A    between atoms: C_10  and  C_11
REMARK                            x       y       z     vdW  Elec       q    Type
REMARK                         _______ _______ _______ _____ _____    ______ ____
ROOT
ATOM      1  C   UNL     1     102.662 125.821  82.003  0.00  0.00    +0.000 C 
ATOM      2  C   UNL     1     103.477 126.021  80.953  0.00  0.00    +0.000 C 
ATOM      3 CL   UNL     1     103.477 127.502  80.047  0.00  0.00    +0.000 Cl
ENDROOT
BRANCH   1   7
ATOM      4  C   UNL     1      99.833 128.633  83.538  0.00  0.00    +0.000 A 
ATOM      5  C   UNL     1      99.393 127.509  82.839  0.00  0.00    +0.000 A 
ATOM      6  C   UNL     1     100.318 126.588  82.333  0.00  0.00    +0.000 A 
ATOM      7  C   UNL     1     101.689 126.784  82.524  0.00  0.00    +0.000 A 
ATOM      8  C   UNL     1     102.130 127.909  83.225  0.00  0.00    +0.000 A 
ATOM      9  C   UNL     1     101.203 128.826  83.727  0.00  0.00    +0.000 A 
BRANCH   4  11
ATOM     10  C   UNL     1      99.441 130.954  83.874  0.00  0.00    +0.000 C 
ATOM     11  O   UNL     1      99.039 129.605  84.082  0.00  0.00    +0.000 OA
ENDBRANCH   4  11
ENDBRANCH   1   7
BRANCH   2  12
ATOM     12  C   UNL     1     104.406 124.995  80.503  0.00  0.00    +0.000 C 
ATOM     13  C   UNL     1     104.296 123.719  80.918  0.00  0.00    +0.000 C 
ATOM     14  C   UNL     1     105.241 122.627  80.509  0.00  0.00    +0.000 C 
ATOM     15  C   UNL     1     106.516 123.148  79.847  0.00  0.00    +0.000 C 
ATOM     16  C   UNL     1     106.205 124.268  78.861  0.00  0.00    +0.000 C 
ATOM     17  C   UNL     1     105.496 125.436  79.553  0.00  0.00    +0.000 C 
ENDBRANCH   2  12
TORSDOF 3
ENDMDL
