MODEL 1
REMARK VINA RESULT:      -4.9      0.000      0.000
REMARK  Name = *****
REMARK  5 active torsions:
REMARK  status: ('A' for Active; 'I' for Inactive)
REMARK    1  A    between atoms: C_1  and  C_2
REMARK    2  A    between atoms: C_5  and  C_8
REMARK    3  A    between atoms: C_10  and  C_11
REMARK    4  A    between atoms: C_14  and  O_17
REMARK    5  A    between atoms: O_17  and  C_18
REMARK                            x       y       z     vdW  Elec       q    Type
REMARK                         _______ _______ _______ _____ _____    ______ ____
ROOT
ATOM      1  C   UNL     1      88.358  64.461  88.444  0.00  0.00    +0.000 C 
ATOM      2  C   UNL     1      88.852  64.155  87.053  0.00  0.00    +0.000 C 
ATOM      3  C   UNL     1      87.873  65.282  87.257  0.00  0.00    +0.000 C 
ENDROOT
BRANCH   1   8
ATOM      4  C   UNL     1      84.649  60.807  91.112  0.00  0.00    +0.000 C 
ATOM      5  C   UNL     1      85.581  61.757  90.419  0.00  0.00    +0.000 A 
ATOM      6  C   UNL     1      85.994  62.934  91.047  0.00  0.00    +0.000 A 
ATOM      7  C   UNL     1      86.887  63.801  90.408  0.00  0.00    +0.000 A 
ATOM      8  C   UNL     1      87.408  63.513  89.138  0.00  0.00    +0.000 A 
ATOM      9  C   UNL     1      86.986  62.323  88.525  0.00  0.00    +0.000 A 
ATOM     10  C   UNL     1      86.092  61.452  89.157  0.00  0.00    +0.000 A 
ENDBRANCH   1   8
BRANCH   3  11
ATOM     11  C   UNL     1      88.323  66.716  87.108  0.00  0.00    +0.000 A 
ATOM     12  C   UNL     1      87.612  67.771  87.700  0.00  0.00    +0.000 A 
ATOM     13  C   UNL     1      88.031  69.103  87.579  0.00  0.00    +0.000 A 
ATOM     14  C   UNL     1      89.184  69.410  86.860  0.00  0.00    +0.000 A 
ATOM     15  C   UNL     1      89.910  68.374  86.274  0.00  0.00    +0.000 A 
ATOM     16  C   UNL     1      89.487  67.047  86.399  0.00  0.00    +0.000 A 
BRANCH  14  17
ATOM     17  O   UNL     1      89.703  70.659  86.663  0.00  0.00    +0.000 OA
ATOM     18  C   UNL     1      89.911  71.062  85.315  0.00  0.00    +0.000 C 
ENDBRANCH  14  17
ENDBRANCH   3  11
TORSDOF 3
ENDMDL
