MODEL 1
REMARK VINA RESULT:      -3.8      0.000      0.000
REMARK  Name = *****
REMARK  3 active torsions:
REMARK  status: ('A' for Active; 'I' for Inactive)
REMARK    1  A    between atoms: N_6  and  C_7
REMARK    2  A    between atoms: C_7  and  C_9
REMARK    3  A    between atoms: C_9  and  C_10
REMARK                            x       y       z     vdW  Elec       q    Type
REMARK                         _______ _______ _______ _____ _____    ______ ____
ROOT
ATOM      1  C   UNL     1      88.016  69.435  87.853  0.00  0.00    +0.000 C 
ATOM      2  S   UNL     1      86.985  68.106  88.046  0.00  0.00    +0.000 S 
ENDROOT
BRANCH   1   8
ATOM      3  C   UNL     1      89.682  68.215  86.394  0.00  0.00    +0.000 C 
ATOM      4  C   UNL     1      89.265  68.179  84.922  0.00  0.00    +0.000 C 
ATOM      5  S   UNL     1      89.943  69.601  83.989  0.00  0.00    +0.000 S 
ATOM      6  C   UNL     1      89.437  70.943  85.121  0.00  0.00    +0.000 C 
ATOM      7  C   UNL     1      89.826  70.655  86.574  0.00  0.00    +0.000 C 
ATOM      8  N   UNL     1      89.181  69.428  87.073  0.00  0.00    +0.000 N 
ENDBRANCH   1   8
BRANCH   1   9
ATOM      9  C   UNL     1      87.624  70.729  88.585  0.00  0.00    +0.000 C 
BRANCH   9  10
ATOM     10  C   UNL     1      86.364  71.407  88.077  0.00  0.00    +0.000 A 
ATOM     11  C   UNL     1      85.346  71.837  88.940  0.00  0.00    +0.000 A 
ATOM     12  C   UNL     1      84.186  72.429  88.433  0.00  0.00    +0.000 A 
ATOM     13  C   UNL     1      84.027  72.579  87.059  0.00  0.00    +0.000 A 
ATOM     14  C   UNL     1      85.015  72.136  86.184  0.00  0.00    +0.000 A 
ATOM     15  C   UNL     1      86.176  71.546  86.692  0.00  0.00    +0.000 A 
ATOM     16 CL   UNL     1      82.597  73.306  86.435  0.00  0.00    +0.000 Cl
ENDBRANCH   9  10
ENDBRANCH   1   9
TORSDOF 3
ENDMDL
