MODEL 1
REMARK VINA RESULT:      -4.7      0.000      0.000
REMARK  Name = *****
REMARK  3 active torsions:
REMARK  status: ('A' for Active; 'I' for Inactive)
REMARK    1  A    between atoms: C_2  and  C_3
REMARK    2  A    between atoms: C_2  and  O_9
REMARK    3  A    between atoms: O_9  and  N_10
REMARK                            x       y       z     vdW  Elec       q    Type
REMARK                         _______ _______ _______ _____ _____    ______ ____
ROOT
ATOM      1  O   UNL     1     102.368 125.932  81.754  0.00  0.00    +0.000 OA
ENDROOT
BRANCH   1   2
ATOM      2  N   UNL     1     103.175 124.984  82.380  0.00  0.00    +0.000 N 
ATOM      3  C   UNL     1     104.056 124.133  81.773  0.00  0.00    +0.000 A 
ATOM      4  C   UNL     1     104.521 123.985  80.462  0.00  0.00    +0.000 A 
ATOM      5  C   UNL     1     105.461 122.971  80.245  0.00  0.00    +0.000 A 
ATOM      6  C   UNL     1     105.903 122.154  81.291  0.00  0.00    +0.000 A 
ATOM      7  C   UNL     1     105.415 122.322  82.594  0.00  0.00    +0.000 A 
ATOM      8  C   UNL     1     104.472 123.330  82.828  0.00  0.00    +0.000 A 
ATOM      9  N   UNL     1     103.826 123.704  83.980  0.00  0.00    +0.000 NA
ATOM     10  N   UNL     1     103.001 124.703  83.684  0.00  0.00    +0.000 NA
ENDBRANCH   1   2
BRANCH   1  12
ATOM     11  C   UNL     1     103.564 127.934  82.484  0.00  0.00    +0.000 C 
ATOM     12  C   UNL     1     102.452 127.190  82.335  0.00  0.00    +0.000 C 
BRANCH  12  13
ATOM     13  C   UNL     1     101.159 127.654  82.831  0.00  0.00    +0.000 C 
ATOM     14  C   UNL     1     101.035 128.757  83.594  0.00  0.00    +0.000 C 
ATOM     15  C   UNL     1      99.727 129.248  84.147  0.00  0.00    +0.000 C 
ATOM     16  C   UNL     1      98.596 128.228  84.029  0.00  0.00    +0.000 C 
ATOM     17  C   UNL     1      98.624 127.532  82.672  0.00  0.00    +0.000 C 
ATOM     18  C   UNL     1      99.959 126.816  82.450  0.00  0.00    +0.000 C 
ENDBRANCH  12  13
ENDBRANCH   1  12
TORSDOF 3
ENDMDL
