REMARK  Name = *****
REMARK  5 active torsions:
REMARK  status: ('A' for Active; 'I' for Inactive)
REMARK    1  A    between atoms: C_4  and  N_17
REMARK    2  A    between atoms: C_5  and  C_7
REMARK    3  A    between atoms: C_8  and  C_9
REMARK    4  A    between atoms: C_14  and  N_15
REMARK    5  A    between atoms: N_17  and  O_18
REMARK                            x       y       z     vdW  Elec       q    Type
REMARK                         _______ _______ _______ _____ _____    ______ ____
ROOT
ATOM      1  C   UNL     1      -0.475  -0.646  -1.481  0.00  0.00    +0.000 A 
ATOM      2  C   UNL     1       0.355  -1.330  -0.598  0.00  0.00    +0.000 A 
ATOM      3  C   UNL     1       0.660  -0.774   0.647  0.00  0.00    +0.000 A 
ATOM      4  C   UNL     1       0.120   0.460   1.040  0.00  0.00    +0.000 A 
ATOM      5  C   UNL     1      -0.700   1.163   0.128  0.00  0.00    +0.000 A 
ATOM      6  C   UNL     1      -0.995   0.597  -1.124  0.00  0.00    +0.000 A 
ENDROOT
BRANCH   5   7
ATOM      7  C   UNL     1      -1.217   2.504   0.447  0.00  0.00    +0.000 C 
ATOM      8  C   UNL     1      -2.529   2.786   0.465  0.00  0.00    +0.000 C 
BRANCH   8   9
ATOM      9  C   UNL     1      -3.059   4.120   0.809  0.00  0.00    +0.000 A 
ATOM     10  C   UNL     1      -2.551   5.248   0.135  0.00  0.00    +0.000 A 
ATOM     11  C   UNL     1      -3.043   6.526   0.405  0.00  0.00    +0.000 A 
ATOM     12  C   UNL     1      -4.056   6.699   1.342  0.00  0.00    +0.000 A 
ATOM     13  C   UNL     1      -4.578   5.590   2.011  0.00  0.00    +0.000 A 
ATOM     14  C   UNL     1      -4.089   4.293   1.762  0.00  0.00    +0.000 A 
BRANCH  14  15
ATOM     15  N   UNL     1      -4.633   3.200   2.416  0.00  0.00    +0.000 NA
ATOM     16  O   UNL     1      -4.808   3.393   3.626  0.00  0.00    +0.000 OA
ENDBRANCH  14  15
ENDBRANCH   8   9
ENDBRANCH   5   7
BRANCH   4  17
ATOM     17  N   UNL     1       0.477   1.043   2.287  0.00  0.00    +0.000 N 
ATOM     18  H   UNL     1       0.271   1.988   2.471  0.00  0.00    +0.000 HD
BRANCH  17  19
ATOM     19  O   UNL     1       1.123   0.265   3.249  0.00  0.00    +0.000 OA
ATOM     20  H   UNL     1       1.248  -0.634   2.907  0.00  0.00    +0.000 HD
ENDBRANCH  17  19
ENDBRANCH   4  17
TORSDOF 5
