REMARK  Name = *****
REMARK  9 active torsions:
REMARK  status: ('A' for Active; 'I' for Inactive)
REMARK    1  A    between atoms: C_1  and  C_2
REMARK    2  A    between atoms: C_5  and  C_8
REMARK    3  A    between atoms: C_8  and  C_9
REMARK    4  A    between atoms: C_8  and  O_19
REMARK    5  A    between atoms: C_9  and  C_10
REMARK    6  A    between atoms: C_9  and  O_17
REMARK    7  A    between atoms: C_13  and  C_16
REMARK    8  A    between atoms: O_17  and  C_18
REMARK    9  A    between atoms: O_19  and  C_20
REMARK                            x       y       z     vdW  Elec       q    Type
REMARK                         _______ _______ _______ _____ _____    ______ ____
ROOT
ATOM      1  C   UNL     1      -3.461   0.087   0.095  0.00  0.00    +0.000 C 
ENDROOT
BRANCH   1   6
ATOM      2  C   UNL     1       2.384  -0.021   0.021  0.00  0.00    +0.000 C 
ATOM      3  C   UNL     1       0.885   0.001   0.061  0.00  0.00    +0.000 A 
ATOM      4  C   UNL     1       0.145  -1.066  -0.459  0.00  0.00    +0.000 A 
ATOM      5  C   UNL     1      -1.252  -1.031  -0.452  0.00  0.00    +0.000 A 
ATOM      6  C   UNL     1      -1.938   0.080   0.062  0.00  0.00    +0.000 A 
ATOM      7  C   UNL     1      -1.190   1.152   0.569  0.00  0.00    +0.000 A 
ATOM      8  C   UNL     1       0.207   1.116   0.563  0.00  0.00    +0.000 A 
ENDBRANCH   1   6
BRANCH   1   9
ATOM      9  O   UNL     1      -3.926   1.433  -0.119  0.00  0.00    +0.000 OA
ATOM     10  C   UNL     1      -5.165   1.500  -0.810  0.00  0.00    +0.000 C 
ENDBRANCH   1   9
BRANCH   1  11
ATOM     11  C   UNL     1      -4.018  -0.582   1.398  0.00  0.00    +0.000 C 
BRANCH  11  12
ATOM     12  C   UNL     1      -3.806   0.241   2.661  0.00  0.00    +0.000 A 
ATOM     13  C   UNL     1      -4.635   1.327   2.974  0.00  0.00    +0.000 A 
ATOM     14  C   UNL     1      -4.425   2.076   4.134  0.00  0.00    +0.000 A 
ATOM     15  C   UNL     1      -3.372   1.764   5.000  0.00  0.00    +0.000 A 
ATOM     16  C   UNL     1      -2.548   0.674   4.700  0.00  0.00    +0.000 A 
ATOM     17  C   UNL     1      -2.759  -0.076   3.540  0.00  0.00    +0.000 A 
ATOM     18  C   UNL     1      -3.165   2.550   6.260  0.00  0.00    +0.000 C 
ENDBRANCH  11  12
BRANCH  11  19
ATOM     19  O   UNL     1      -5.419  -0.887   1.208  0.00  0.00    +0.000 OA
ATOM     20  C   UNL     1      -5.896  -1.888   2.099  0.00  0.00    +0.000 C 
ENDBRANCH  11  19
ENDBRANCH   1  11
TORSDOF 5
