MODEL 1
REMARK VINA RESULT:      -4.8      0.000      0.000
REMARK  Name = *****
REMARK  4 active torsions:
REMARK  status: ('A' for Active; 'I' for Inactive)
REMARK    1  A    between atoms: C_1  and  C_2
REMARK    2  A    between atoms: C_5  and  C_8
REMARK    3  A    between atoms: C_8  and  C_9
REMARK    4  A    between atoms: C_9  and  C_11
REMARK                            x       y       z     vdW  Elec       q    Type
REMARK                         _______ _______ _______ _____ _____    ______ ____
ROOT
ATOM      1  C   UNL     1     102.742 125.678  82.055  0.00  0.00    +0.000 C 
ENDROOT
BRANCH   1   6
ATOM      2  C   UNL     1      99.254 129.852  84.140  0.00  0.00    +0.000 C 
ATOM      3  C   UNL     1     100.154 128.792  83.581  0.00  0.00    +0.000 A 
ATOM      4  C   UNL     1      99.617 127.682  82.921  0.00  0.00    +0.000 A 
ATOM      5  C   UNL     1     100.453 126.679  82.424  0.00  0.00    +0.000 A 
ATOM      6  C   UNL     1     101.841 126.760  82.593  0.00  0.00    +0.000 A 
ATOM      7  C   UNL     1     102.377 127.871  83.258  0.00  0.00    +0.000 A 
ATOM      8  C   UNL     1     101.541 128.873  83.754  0.00  0.00    +0.000 A 
ENDBRANCH   1   6
BRANCH   1   9
ATOM      9  C   UNL     1     103.426 126.017  80.738  0.00  0.00    +0.000 C 
ATOM     10  O   UNL     1     103.346 127.124  80.205  0.00  0.00    +0.000 OA
BRANCH   9  11
ATOM     11  C   UNL     1     104.209 124.878  80.084  0.00  0.00    +0.000 C 
ATOM     12  C   UNL     1     104.379 123.728  81.079  0.00  0.00    +0.000 C 
ATOM     13  C   UNL     1     105.198 122.584  80.484  0.00  0.00    +0.000 C 
ATOM     14  C   UNL     1     106.544 123.069  79.952  0.00  0.00    +0.000 C 
ATOM     15  C   UNL     1     106.377 124.217  78.962  0.00  0.00    +0.000 C 
ATOM     16  C   UNL     1     105.569 125.363  79.564  0.00  0.00    +0.000 C 
ENDBRANCH   9  11
ENDBRANCH   1   9
TORSDOF 3
ENDMDL
