MODEL 1
REMARK VINA RESULT:      -4.8      0.000      0.000
REMARK  Name = *****
REMARK  4 active torsions:
REMARK  status: ('A' for Active; 'I' for Inactive)
REMARK    1  A    between atoms: C_1  and  C_2
REMARK    2  A    between atoms: C_4  and  C_8
REMARK    3  A    between atoms: C_8  and  C_10
REMARK    4  A    between atoms: C_10  and  C_11
REMARK                            x       y       z     vdW  Elec       q    Type
REMARK                         _______ _______ _______ _____ _____    ______ ____
ROOT
ATOM      1  C   UNL     1      87.788  70.743  86.029  0.00  0.00    +0.000 C 
ATOM      2  O   UNL     1      87.859  70.773  84.799  0.00  0.00    +0.000 OA
ENDROOT
BRANCH   1   6
ATOM      3  C   UNL     1      83.272  73.041  85.923  0.00  0.00    +0.000 C 
ATOM      4  C   UNL     1      84.421  72.440  86.678  0.00  0.00    +0.000 A 
ATOM      5  C   UNL     1      85.526  71.906  85.997  0.00  0.00    +0.000 A 
ATOM      6  C   UNL     1      86.587  71.325  86.705  0.00  0.00    +0.000 A 
ATOM      7  C   UNL     1      86.532  71.280  88.105  0.00  0.00    +0.000 A 
ATOM      8  C   UNL     1      85.430  71.794  88.786  0.00  0.00    +0.000 A 
ATOM      9  C   UNL     1      84.376  72.366  88.075  0.00  0.00    +0.000 A 
ENDBRANCH   1   6
BRANCH   1  10
ATOM     10  C   UNL     1      88.905  70.135  86.858  0.00  0.00    +0.000 C 
BRANCH  10  11
ATOM     11  C   UNL     1      88.946  68.625  86.828  0.00  0.00    +0.000 A 
ATOM     12  C   UNL     1      90.047  67.944  86.281  0.00  0.00    +0.000 A 
ATOM     13  C   UNL     1      90.090  66.549  86.285  0.00  0.00    +0.000 A 
ATOM     14  C   UNL     1      89.042  65.833  86.846  0.00  0.00    +0.000 A 
ATOM     15  C   UNL     1      87.951  66.485  87.409  0.00  0.00    +0.000 A 
ATOM     16  C   UNL     1      87.906  67.880  87.406  0.00  0.00    +0.000 A 
ATOM     17  F   UNL     1      89.085  64.494  86.853  0.00  0.00    +0.000 F 
ENDBRANCH  10  11
ENDBRANCH   1  10
TORSDOF 3
ENDMDL
