MODEL 1
REMARK VINA RESULT:      -4.6      0.000      0.000
REMARK  Name = *****
REMARK  3 active torsions:
REMARK  status: ('A' for Active; 'I' for Inactive)
REMARK    1  A    between atoms: C_4  and  C_7
REMARK    2  A    between atoms: C_7  and  C_8
REMARK    3  A    between atoms: C_8  and  C_12
REMARK                            x       y       z     vdW  Elec       q    Type
REMARK                         _______ _______ _______ _____ _____    ______ ____
ROOT
ATOM      1  C   UNL     1     104.811 124.682  80.668  0.00  0.00    +0.000 C 
ATOM      2  C   UNL     1     106.025 125.144  80.330  0.00  0.00    +0.000 C 
ATOM      3  F   UNL     1     107.145 124.467  80.666  0.00  0.00    +0.000 F 
ATOM      4  F   UNL     1     106.139 126.300  79.640  0.00  0.00    +0.000 F 
ENDROOT
BRANCH   1   5
ATOM      5  C   UNL     1     104.680 123.412  81.404  0.00  0.00    +0.000 A 
ATOM      6  C   UNL     1     104.700 122.188  80.716  0.00  0.00    +0.000 A 
ATOM      7  C   UNL     1     104.589 120.984  81.413  0.00  0.00    +0.000 A 
ATOM      8  C   UNL     1     104.459 121.002  82.796  0.00  0.00    +0.000 A 
ATOM      9  C   UNL     1     104.436 122.203  83.496  0.00  0.00    +0.000 A 
ATOM     10  C   UNL     1     104.547 123.408  82.801  0.00  0.00    +0.000 A 
ATOM     11  F   UNL     1     104.354 119.847  83.465  0.00  0.00    +0.000 F 
ENDBRANCH   1   5
BRANCH   1  12
ATOM     12  C   UNL     1     103.543 125.400  80.276  0.00  0.00    +0.000 C 
BRANCH  12  16
ATOM     13  C   UNL     1     102.019 128.017  83.353  0.00  0.00    +0.000 A 
ATOM     14  C   UNL     1     101.375 126.811  83.080  0.00  0.00    +0.000 A 
ATOM     15  C   UNL     1     101.871 125.963  82.089  0.00  0.00    +0.000 A 
ATOM     16  C   UNL     1     103.022 126.309  81.367  0.00  0.00    +0.000 A 
ATOM     17  C   UNL     1     103.658 127.528  81.645  0.00  0.00    +0.000 A 
ATOM     18  C   UNL     1     103.159 128.376  82.636  0.00  0.00    +0.000 A 
ENDBRANCH  12  16
ENDBRANCH   1  12
TORSDOF 3
ENDMDL
