MODEL 1
REMARK VINA RESULT:      -4.3      0.000      0.000
REMARK  Name = *****
REMARK  9 active torsions:
REMARK  status: ('A' for Active; 'I' for Inactive)
REMARK    1  A    between atoms: C_1  and  C_2
REMARK    2  A    between atoms: C_5  and  O_8
REMARK    3  A    between atoms: C_5  and  O_10
REMARK    4  A    between atoms: O_8  and  O_9
REMARK    5  A    between atoms: O_10  and  O_11
REMARK    6  A    between atoms: O_11  and  C_12
REMARK    7  A    between atoms: C_12  and  O_19
REMARK    8  A    between atoms: C_15  and  C_18
REMARK    9  A    between atoms: O_19  and  O_20
REMARK                            x       y       z     vdW  Elec       q    Type
REMARK                         _______ _______ _______ _____ _____    ______ ____
ROOT
ATOM      1  O   UNL     1      88.283  63.827  87.446  0.00  0.00    +0.000 OA
ENDROOT
BRANCH   1   6
ATOM      2  C   UNL     1      83.597  63.384  87.140  0.00  0.00    +0.000 C 
ATOM      3  C   UNL     1      84.758  63.513  88.124  0.00  0.00    +0.000 C 
ATOM      4  C   UNL     1      85.736  62.343  87.964  0.00  0.00    +0.000 C 
ATOM      5  C   UNL     1      86.926  62.476  88.913  0.00  0.00    +0.000 C 
ATOM      6  C   UNL     1      87.667  63.813  88.752  0.00  0.00    +0.000 C 
ATOM      7  C   UNL     1      86.678  64.983  88.876  0.00  0.00    +0.000 C 
ATOM      8  C   UNL     1      85.480  64.851  87.937  0.00  0.00    +0.000 C 
BRANCH   6   9
ATOM      9  O   UNL     1      88.623  63.940  89.826  0.00  0.00    +0.000 OA
BRANCH   9  10
ATOM     10  O   UNL     1      89.834  63.228  89.413  0.00  0.00    +0.000 OA
ATOM     11  H   UNL     1      90.132  63.569  88.555  0.00  0.00    +0.000 HD
ENDBRANCH   9  10
ENDBRANCH   6   9
ENDBRANCH   1   6
BRANCH   1  12
ATOM     12  O   UNL     1      89.062  65.068  87.346  0.00  0.00    +0.000 OA
BRANCH  12  13
ATOM     13  C   UNL     1      89.492  65.200  85.969  0.00  0.00    +0.000 C 
ATOM     14  C   UNL     1      90.512  66.351  85.878  0.00  0.00    +0.000 C 
ATOM     15  C   UNL     1      89.907  67.690  86.300  0.00  0.00    +0.000 C 
ATOM     16  C   UNL     1      88.647  68.019  85.486  0.00  0.00    +0.000 C 
ATOM     17  C   UNL     1      87.618  66.882  85.574  0.00  0.00    +0.000 C 
ATOM     18  C   UNL     1      88.224  65.537  85.167  0.00  0.00    +0.000 C 
ATOM     19  C   UNL     1      88.032  69.337  85.955  0.00  0.00    +0.000 C 
BRANCH  13  20
ATOM     20  O   UNL     1      90.041  63.953  85.507  0.00  0.00    +0.000 OA
BRANCH  20  21
ATOM     21  O   UNL     1      90.900  63.407  86.555  0.00  0.00    +0.000 OA
ATOM     22  H   UNL     1      90.876  63.990  87.329  0.00  0.00    +0.000 HD
ENDBRANCH  20  21
ENDBRANCH  13  20
ENDBRANCH  12  13
ENDBRANCH   1  12
TORSDOF 7
ENDMDL
