MODEL 1
REMARK VINA RESULT:      -4.1      0.000      0.000
REMARK  Name = *****
REMARK  3 active torsions:
REMARK  status: ('A' for Active; 'I' for Inactive)
REMARK    1  A    between atoms: C_3  and  C_9
REMARK    2  A    between atoms: C_9  and  C_10
REMARK    3  A    between atoms: C_10  and  C_11
REMARK                            x       y       z     vdW  Elec       q    Type
REMARK                         _______ _______ _______ _____ _____    ______ ____
ROOT
ATOM      1  C   UNL     1      87.364  67.588  85.592  0.00  0.00    +0.000 C 
ATOM      2  C   UNL     1      88.472  67.902  84.584  0.00  0.00    +0.000 C 
ATOM      3  C   UNL     1      89.774  68.434  85.206  0.00  0.00    +0.000 C 
ATOM      4  O   UNL     1      90.095  67.817  86.450  0.00  0.00    +0.000 OA
ATOM      5  C   UNL     1      90.133  66.390  86.421  0.00  0.00    +0.000 C 
ATOM      6  C   UNL     1      88.779  65.810  86.728  0.00  0.00    +0.000 C 
ATOM      7  C   UNL     1      87.590  66.353  86.420  0.00  0.00    +0.000 C 
ATOM      8 CL   UNL     1      88.810  64.325  87.629  0.00  0.00    +0.000 Cl
ENDROOT
BRANCH   3   9
ATOM      9  C   UNL     1      89.682  69.950  85.453  0.00  0.00    +0.000 C 
BRANCH   9  10
ATOM     10  C   UNL     1      89.334  70.275  86.910  0.00  0.00    +0.000 C 
BRANCH  10  11
ATOM     11  C   UNL     1      87.926  70.803  87.035  0.00  0.00    +0.000 A 
ATOM     12  C   UNL     1      87.223  71.220  85.896  0.00  0.00    +0.000 A 
ATOM     13  C   UNL     1      85.928  71.727  86.011  0.00  0.00    +0.000 A 
ATOM     14  C   UNL     1      85.325  71.825  87.263  0.00  0.00    +0.000 A 
ATOM     15  C   UNL     1      86.018  71.419  88.403  0.00  0.00    +0.000 A 
ATOM     16  C   UNL     1      87.314  70.912  88.290  0.00  0.00    +0.000 A 
ENDBRANCH  10  11
ENDBRANCH   9  10
ENDBRANCH   3   9
TORSDOF 3
ENDMDL
