MODEL 1
REMARK VINA RESULT:      -4.5      0.000      0.000
REMARK  Name = *****
REMARK  3 active torsions:
REMARK  status: ('A' for Active; 'I' for Inactive)
REMARK    1  A    between atoms: C_4  and  C_7
REMARK    2  A    between atoms: C_8  and  C_9
REMARK    3  A    between atoms: C_12  and  C_15
REMARK                            x       y       z     vdW  Elec       q    Type
REMARK                         _______ _______ _______ _____ _____    ______ ____
ROOT
ATOM      1  C   UNL     1      87.512  63.284  88.164  0.00  0.00    +0.000 C 
ATOM      2  C   UNL     1      87.677  64.048  87.072  0.00  0.00    +0.000 C 
ATOM      3  F   UNL     1      87.155  61.993  87.955  0.00  0.00    +0.000 F 
ENDROOT
BRANCH   1   7
ATOM      4  C   UNL     1      88.000  64.452  92.252  0.00  0.00    +0.000 A 
ATOM      5  C   UNL     1      89.123  64.140  91.491  0.00  0.00    +0.000 A 
ATOM      6  C   UNL     1      88.980  63.756  90.155  0.00  0.00    +0.000 A 
ATOM      7  C   UNL     1      87.708  63.666  89.571  0.00  0.00    +0.000 A 
ATOM      8  C   UNL     1      86.588  64.004  90.343  0.00  0.00    +0.000 A 
ATOM      9  C   UNL     1      86.732  64.388  91.678  0.00  0.00    +0.000 A 
ENDBRANCH   1   7
BRANCH   2  10
ATOM     10  C   UNL     1      88.132  65.441  87.008  0.00  0.00    +0.000 A 
ATOM     11  C   UNL     1      89.408  65.773  86.535  0.00  0.00    +0.000 A 
ATOM     12  C   UNL     1      89.813  67.108  86.465  0.00  0.00    +0.000 A 
ATOM     13  C   UNL     1      88.939  68.127  86.856  0.00  0.00    +0.000 A 
ATOM     14  C   UNL     1      87.657  67.803  87.311  0.00  0.00    +0.000 A 
ATOM     15  C   UNL     1      87.255  66.465  87.382  0.00  0.00    +0.000 A 
BRANCH  13  16
ATOM     16  C   UNL     1      89.353  69.498  86.786  0.00  0.00    +0.000 C 
ATOM     17  N   UNL     1      89.686  70.609  86.730  0.00  0.00    +0.000 NA
ENDBRANCH  13  16
ENDBRANCH   2  10
TORSDOF 3
ENDMDL
