MODEL 1
REMARK VINA RESULT:      -4.8      0.000      0.000
REMARK  Name = *****
REMARK  3 active torsions:
REMARK  status: ('A' for Active; 'I' for Inactive)
REMARK    1  A    between atoms: C_4  and  C_7
REMARK    2  A    between atoms: C_7  and  C_8
REMARK    3  A    between atoms: C_8  and  C_10
REMARK                            x       y       z     vdW  Elec       q    Type
REMARK                         _______ _______ _______ _____ _____    ______ ____
ROOT
ATOM      1  C   UNL     1      88.841  70.050  87.337  0.00  0.00    +0.000 C 
ATOM      2  O   UNL     1      89.692  70.735  86.770  0.00  0.00    +0.000 OA
ENDROOT
BRANCH   1   3
ATOM      3  C   UNL     1      88.834  68.570  87.116  0.00  0.00    +0.000 A 
ATOM      4  C   UNL     1      89.845  67.903  86.415  0.00  0.00    +0.000 A 
ATOM      5  C   UNL     1      89.775  66.518  86.248  0.00  0.00    +0.000 A 
ATOM      6  C   UNL     1      88.710  65.787  86.771  0.00  0.00    +0.000 A 
ATOM      7  C   UNL     1      87.699  66.446  87.466  0.00  0.00    +0.000 A 
ATOM      8  C   UNL     1      87.759  67.831  87.636  0.00  0.00    +0.000 A 
ATOM      9 BR   UNL     1      91.145  65.624  85.298  0.00  0.00    +0.000 Br
ENDBRANCH   1   3
BRANCH   1  10
ATOM     10  C   UNL     1      87.800  70.689  88.238  0.00  0.00    +0.000 C 
BRANCH  10  14
ATOM     11  C   UNL     1      84.437  72.407  86.150  0.00  0.00    +0.000 A 
ATOM     12  C   UNL     1      85.528  71.928  85.431  0.00  0.00    +0.000 A 
ATOM     13  C   UNL     1      86.620  71.375  86.101  0.00  0.00    +0.000 A 
ATOM     14  C   UNL     1      86.636  71.306  87.502  0.00  0.00    +0.000 A 
ATOM     15  C   UNL     1      85.521  71.773  88.214  0.00  0.00    +0.000 A 
ATOM     16  C   UNL     1      84.431  72.327  87.540  0.00  0.00    +0.000 A 
ENDBRANCH  10  14
ENDBRANCH   1  10
TORSDOF 3
ENDMDL
