MODEL 1
REMARK VINA RESULT:      -4.5      0.000      0.000
REMARK  Name = *****
REMARK  4 active torsions:
REMARK  status: ('A' for Active; 'I' for Inactive)
REMARK    1  A    between atoms: C_1  and  C_2
REMARK    2  A    between atoms: C_5  and  S_8
REMARK    3  A    between atoms: S_8  and  S_9
REMARK    4  A    between atoms: S_9  and  C_12
REMARK                            x       y       z     vdW  Elec       q    Type
REMARK                         _______ _______ _______ _____ _____    ______ ____
ROOT
ATOM      1  S   UNL     1      87.962  70.888  85.162  0.00  0.00    +0.000 S 
ATOM      2  O   UNL     1      88.523  72.019  84.450  0.00  0.00    +0.000 OA
ATOM      3  O   UNL     1      87.613  69.660  84.472  0.00  0.00    +0.000 OA
ENDROOT
BRANCH   1   4
ATOM      4  C   UNL     1      86.503  71.457  86.006  0.00  0.00    +0.000 A 
ATOM      5  C   UNL     1      86.440  71.389  87.401  0.00  0.00    +0.000 A 
ATOM      6  C   UNL     1      85.301  71.852  88.059  0.00  0.00    +0.000 A 
ATOM      7  C   UNL     1      84.239  72.387  87.326  0.00  0.00    +0.000 A 
ATOM      8  C   UNL     1      84.314  72.467  85.935  0.00  0.00    +0.000 A 
ATOM      9  C   UNL     1      85.449  72.006  85.268  0.00  0.00    +0.000 A 
ENDBRANCH   1   4
BRANCH   1  10
ATOM     10  S   UNL     1      89.245  70.406  86.745  0.00  0.00    +0.000 S 
BRANCH  10  15
ATOM     11  C   UNL     1      88.683  64.345  86.995  0.00  0.00    +0.000 C 
ATOM     12  C   UNL     1      88.834  65.838  86.959  0.00  0.00    +0.000 A 
ATOM     13  C   UNL     1      89.927  66.427  86.314  0.00  0.00    +0.000 A 
ATOM     14  C   UNL     1      90.047  67.818  86.251  0.00  0.00    +0.000 A 
ATOM     15  C   UNL     1      89.066  68.638  86.817  0.00  0.00    +0.000 A 
ATOM     16  C   UNL     1      87.972  68.052  87.458  0.00  0.00    +0.000 A 
ATOM     17  C   UNL     1      87.851  66.661  87.520  0.00  0.00    +0.000 A 
ENDBRANCH  10  15
ENDBRANCH   1  10
TORSDOF 3
ENDMDL
