MODEL 1
REMARK VINA RESULT:      -4.4      0.000      0.000
REMARK  Name = *****
REMARK  5 active torsions:
REMARK  status: ('A' for Active; 'I' for Inactive)
REMARK    1  A    between atoms: C_1  and  S_2
REMARK    2  A    between atoms: S_2  and  C_3
REMARK    3  A    between atoms: C_3  and  C_4
REMARK    4  A    between atoms: C_3  and  C_10
REMARK    5  A    between atoms: C_10  and  C_12
REMARK                            x       y       z     vdW  Elec       q    Type
REMARK                         _______ _______ _______ _____ _____    ______ ____
ROOT
ATOM      1  C   UNL     1     102.807 127.352  82.853  0.00  0.00    +0.000 C 
ENDROOT
BRANCH   1   2
ATOM      2  C   UNL     1     101.291 127.533  82.906  0.00  0.00    +0.000 A 
ATOM      3  C   UNL     1     100.781 128.714  83.482  0.00  0.00    +0.000 A 
ATOM      4  C   UNL     1      99.407 128.950  83.557  0.00  0.00    +0.000 A 
ATOM      5  C   UNL     1      98.512 128.017  83.046  0.00  0.00    +0.000 A 
ATOM      6  C   UNL     1      98.992 126.852  82.456  0.00  0.00    +0.000 A 
ATOM      7  C   UNL     1     100.368 126.614  82.381  0.00  0.00    +0.000 A 
ENDBRANCH   1   2
BRANCH   1   9
ATOM      8  C   UNL     1     105.419 128.014  83.560  0.00  0.00    +0.000 C 
ATOM      9  S   UNL     1     103.838 128.830  83.213  0.00  0.00    +0.000 S 
ENDBRANCH   1   9
BRANCH   1  10
ATOM     10  C   UNL     1     103.306 126.672  81.573  0.00  0.00    +0.000 C 
ATOM     11  O   UNL     1     103.287 127.285  80.499  0.00  0.00    +0.000 OA
BRANCH  10  12
ATOM     12  C   UNL     1     103.825 125.265  81.570  0.00  0.00    +0.000 A 
ATOM     13  C   UNL     1     104.291 124.614  80.422  0.00  0.00    +0.000 A 
ATOM     14  C   UNL     1     104.761 123.299  80.498  0.00  0.00    +0.000 A 
ATOM     15  C   UNL     1     104.777 122.627  81.717  0.00  0.00    +0.000 A 
ATOM     16  C   UNL     1     104.326 123.267  82.868  0.00  0.00    +0.000 A 
ATOM     17  C   UNL     1     103.855 124.579  82.795  0.00  0.00    +0.000 A 
ENDBRANCH  10  12
ENDBRANCH   1  10
TORSDOF 4
ENDMDL
