REMARK  Name = *****
REMARK  2 active torsions:
REMARK  status: ('A' for Active; 'I' for Inactive)
REMARK    1  A    between atoms: C_6  and  C_8
REMARK    2  A    between atoms: C_9  and  C_10
REMARK                            x       y       z     vdW  Elec       q    Type
REMARK                         _______ _______ _______ _____ _____    ______ ____
ROOT
ATOM      1  C   UNL     1       1.884   2.242  -0.614  0.00  0.00    +0.000 C 
ATOM      2  C   UNL     1       2.650   3.161  -0.718  0.00  0.00    +0.000 C 
ENDROOT
BRANCH   1   8
ATOM      3  C   UNL     1       0.832  -1.280   0.534  0.00  0.00    +0.000 C 
ATOM      4  C   UNL     1      -0.411  -1.580  -0.299  0.00  0.00    +0.000 C 
ATOM      5  C   UNL     1      -1.553  -0.626  -0.091  0.00  0.00    +0.000 C 
ATOM      6  C   UNL     1      -1.485   0.666   0.261  0.00  0.00    +0.000 C 
ATOM      7  C   UNL     1      -0.253   1.520   0.399  0.00  0.00    +0.000 C 
ATOM      8  C   UNL     1       0.935   1.112  -0.489  0.00  0.00    +0.000 C 
ATOM      9  C   UNL     1       1.690  -0.127   0.017  0.00  0.00    +0.000 C 
ENDBRANCH   1   8
BRANCH   2  10
ATOM     10  C   UNL     1       3.561   4.258  -0.839  0.00  0.00    +0.000 A 
ATOM     11  C   UNL     1       3.109   5.566  -0.649  0.00  0.00    +0.000 A 
ATOM     12  C   UNL     1       3.997   6.637  -0.767  0.00  0.00    +0.000 A 
ATOM     13  C   UNL     1       5.337   6.401  -1.075  0.00  0.00    +0.000 A 
ATOM     14  C   UNL     1       5.790   5.095  -1.265  0.00  0.00    +0.000 A 
ATOM     15  C   UNL     1       4.903   4.024  -1.147  0.00  0.00    +0.000 A 
ENDBRANCH   2  10
TORSDOF 2
