MODEL 1
REMARK VINA RESULT:      -4.6      0.000      0.000
REMARK  Name = *****
REMARK  5 active torsions:
REMARK  status: ('A' for Active; 'I' for Inactive)
REMARK    1  A    between atoms: C_4  and  C_7
REMARK    2  A    between atoms: C_7  and  C_8
REMARK    3  A    between atoms: C_8  and  C_9
REMARK    4  A    between atoms: C_9  and  C_10
REMARK    5  A    between atoms: C_9  and  C_12
REMARK                            x       y       z     vdW  Elec       q    Type
REMARK                         _______ _______ _______ _____ _____    ______ ____
ROOT
ATOM      1  C   UNL     1      99.308 127.528  82.921  0.00  0.00    +0.000 C 
ENDROOT
BRANCH   1   2
ATOM      2  C   UNL     1      99.101 128.745  83.812  0.00  0.00    +0.000 A 
ATOM      3  C   UNL     1      99.606 129.996  83.419  0.00  0.00    +0.000 A 
ATOM      4  C   UNL     1      99.428 131.121  84.227  0.00  0.00    +0.000 A 
ATOM      5  C   UNL     1      98.745 131.012  85.436  0.00  0.00    +0.000 A 
ATOM      6  C   UNL     1      98.238 129.779  85.840  0.00  0.00    +0.000 A 
ATOM      7  C   UNL     1      98.414 128.653  85.034  0.00  0.00    +0.000 A 
ENDBRANCH   1   2
BRANCH   1   8
ATOM      8  C   UNL     1      98.102 126.671  82.883  0.00  0.00    +0.000 C 
ATOM      9  N   UNL     1      97.175 125.975  82.857  0.00  0.00    +0.000 NA
ENDBRANCH   1   8
BRANCH   1  10
ATOM     10  C   UNL     1     100.548 126.726  83.364  0.00  0.00    +0.000 C 
BRANCH  10  11
ATOM     11  C   UNL     1     101.421 126.293  82.180  0.00  0.00    +0.000 C 
BRANCH  11  15
ATOM     12  C   UNL     1     104.730 128.990  81.573  0.00  0.00    +0.000 A 
ATOM     13  C   UNL     1     104.350 128.112  80.559  0.00  0.00    +0.000 A 
ATOM     14  C   UNL     1     103.275 127.244  80.753  0.00  0.00    +0.000 A 
ATOM     15  C   UNL     1     102.568 127.248  81.963  0.00  0.00    +0.000 A 
ATOM     16  C   UNL     1     102.961 128.130  82.979  0.00  0.00    +0.000 A 
ATOM     17  C   UNL     1     104.036 128.999  82.782  0.00  0.00    +0.000 A 
ENDBRANCH  11  15
ENDBRANCH  10  11
ENDBRANCH   1  10
TORSDOF 5
ENDMDL
