MODEL 1
REMARK VINA RESULT:      -4.0      0.000      0.000
REMARK  Name = *****
REMARK  5 active torsions:
REMARK  status: ('A' for Active; 'I' for Inactive)
REMARK    1  A    between atoms: C_1  and  C_2
REMARK    2  A    between atoms: C_2  and  C_4
REMARK    3  A    between atoms: C_5  and  S_10
REMARK    4  A    between atoms: S_10  and  C_11
REMARK    5  A    between atoms: C_11  and  C_12
REMARK                            x       y       z     vdW  Elec       q    Type
REMARK                         _______ _______ _______ _____ _____    ______ ____
ROOT
ATOM      1  C   UNL     1      88.221  66.064  86.794  0.00  0.00    +0.000 A 
ATOM      2  C   UNL     1      87.922  64.744  86.470  0.00  0.00    +0.000 A 
ATOM      3  S   UNL     1      89.237  63.952  85.685  0.00  0.00    +0.000 S 
ATOM      4  C   UNL     1      90.215  65.314  85.820  0.00  0.00    +0.000 A 
ATOM      5  C   UNL     1      89.587  66.368  86.423  0.00  0.00    +0.000 A 
ATOM      6 CL   UNL     1      91.823  65.279  85.226  0.00  0.00    +0.000 Cl
ENDROOT
BRANCH   1   8
ATOM      7  C   UNL     1      86.738  66.846  88.786  0.00  0.00    +0.000 C 
ATOM      8  C   UNL     1      87.366  67.075  87.438  0.00  0.00    +0.000 C 
ATOM      9  O   UNL     1      87.144  68.140  86.855  0.00  0.00    +0.000 OA
ENDBRANCH   1   8
BRANCH   2  10
ATOM     10  S   UNL     1      86.439  63.832  86.749  0.00  0.00    +0.000 S 
BRANCH  10  11
ATOM     11  C   UNL     1      87.050  62.570  87.911  0.00  0.00    +0.000 C 
BRANCH  11  12
ATOM     12  C   UNL     1      87.431  63.182  89.234  0.00  0.00    +0.000 A 
ATOM     13  C   UNL     1      88.775  63.451  89.534  0.00  0.00    +0.000 A 
ATOM     14  C   UNL     1      89.128  64.005  90.765  0.00  0.00    +0.000 A 
ATOM     15  C   UNL     1      88.145  64.292  91.710  0.00  0.00    +0.000 A 
ATOM     16  C   UNL     1      86.807  64.023  91.426  0.00  0.00    +0.000 A 
ATOM     17  C   UNL     1      86.451  63.468  90.196  0.00  0.00    +0.000 A 
ENDBRANCH  11  12
ENDBRANCH  10  11
ENDBRANCH   2  10
TORSDOF 4
ENDMDL
