MODEL 1
REMARK VINA RESULT:      -4.7      0.000      0.000
REMARK  Name = *****
REMARK  5 active torsions:
REMARK  status: ('A' for Active; 'I' for Inactive)
REMARK    1  A    between atoms: C_1  and  N_2
REMARK    2  A    between atoms: N_2  and  C_3
REMARK    3  A    between atoms: N_2  and  C_4
REMARK    4  A    between atoms: C_9  and  C_10
REMARK    5  A    between atoms: C_11  and  C_12
REMARK                            x       y       z     vdW  Elec       q    Type
REMARK                         _______ _______ _______ _____ _____    ______ ____
ROOT
ATOM      1  C   UNL     1     102.719 125.513  82.540  0.00  0.00    +0.000 C 
ATOM      2  C   UNL     1     102.101 126.576  82.004  0.00  0.00    +0.000 C 
ENDROOT
BRANCH   2   3
ATOM      3  C   UNL     1     101.076 127.374  82.693  0.00  0.00    +0.000 A 
ATOM      4  C   UNL     1     101.367 128.508  83.463  0.00  0.00    +0.000 A 
ATOM      5  C   UNL     1     100.358 129.254  84.076  0.00  0.00    +0.000 A 
ATOM      6  C   UNL     1      99.023 128.884  83.922  0.00  0.00    +0.000 A 
ATOM      7  C   UNL     1      98.708 127.770  83.147  0.00  0.00    +0.000 A 
ATOM      8  C   UNL     1      99.726 127.035  82.539  0.00  0.00    +0.000 A 
ATOM      9  F   UNL     1      99.378 125.971  81.797  0.00  0.00    +0.000 F 
ATOM     10  F   UNL     1     102.633 128.920  83.627  0.00  0.00    +0.000 F 
ENDBRANCH   2   3
BRANCH   1  16
ATOM     11  C   UNL     1     104.488 123.700  82.371  0.00  0.00    +0.000 A 
ATOM     12  C   UNL     1     105.459 123.078  81.565  0.00  0.00    +0.000 A 
ATOM     13  C   UNL     1     105.677 123.472  80.241  0.00  0.00    +0.000 A 
ATOM     14  C   UNL     1     104.926 124.503  79.689  0.00  0.00    +0.000 A 
ATOM     15  C   UNL     1     103.958 125.140  80.461  0.00  0.00    +0.000 A 
ATOM     16  C   UNL     1     103.732 124.752  81.792  0.00  0.00    +0.000 A 
BRANCH  11  18
ATOM     17  C   UNL     1     104.965 124.010  84.754  0.00  0.00    +0.000 C 
ATOM     18  N   UNL     1     104.252 123.289  83.703  0.00  0.00    +0.000 N 
ATOM     19  C   UNL     1     104.289 121.830  83.840  0.00  0.00    +0.000 C 
ENDBRANCH  11  18
ENDBRANCH   1  16
TORSDOF 3
ENDMDL
