MODEL 1
REMARK VINA RESULT:      -4.7      0.000      0.000
REMARK  Name = *****
REMARK  4 active torsions:
REMARK  status: ('A' for Active; 'I' for Inactive)
REMARK    1  A    between atoms: C_3  and  C_19
REMARK    2  A    between atoms: C_4  and  C_8
REMARK    3  A    between atoms: C_8  and  O_10
REMARK    4  A    between atoms: O_10  and  C_11
REMARK                            x       y       z     vdW  Elec       q    Type
REMARK                         _______ _______ _______ _____ _____    ______ ____
ROOT
ATOM      1  C   UNL     1      84.814  72.196  87.573  0.00  0.00    +0.000 A 
ATOM      2  C   UNL     1      85.764  71.510  88.333  0.00  0.00    +0.000 A 
ATOM      3  C   UNL     1      86.862  70.877  87.718  0.00  0.00    +0.000 A 
ATOM      4  C   UNL     1      86.984  70.961  86.321  0.00  0.00    +0.000 A 
ATOM      5  C   UNL     1      86.035  71.655  85.571  0.00  0.00    +0.000 A 
ATOM      6  C   UNL     1      84.950  72.268  86.188  0.00  0.00    +0.000 A 
ATOM      7  F   UNL     1      86.160  71.763  84.239  0.00  0.00    +0.000 F 
ENDROOT
BRANCH   3   8
ATOM      8  C   UNL     1      87.871  70.128  88.552  0.00  0.00    +0.000 C 
ATOM      9  F   UNL     1      87.422  69.889  89.819  0.00  0.00    +0.000 F 
ATOM     10  F   UNL     1      88.172  68.900  88.047  0.00  0.00    +0.000 F 
ATOM     11  F   UNL     1      89.041  70.799  88.703  0.00  0.00    +0.000 F 
ENDBRANCH   3   8
BRANCH   4  12
ATOM     12  C   UNL     1      88.133  70.363  85.626  0.00  0.00    +0.000 C 
ATOM     13  O   UNL     1      88.045  69.341  84.968  0.00  0.00    +0.000 OA
BRANCH  12  14
ATOM     14  O   UNL     1      89.217  71.200  85.784  0.00  0.00    +0.000 OA
BRANCH  14  15
ATOM     15  C   UNL     1      89.741  71.635  84.566  0.00  0.00    +0.000 A 
ATOM     16  C   UNL     1      89.253  72.798  83.973  0.00  0.00    +0.000 A 
ATOM     17  C   UNL     1      89.829  73.230  82.783  0.00  0.00    +0.000 A 
ATOM     18  C   UNL     1      90.878  72.533  82.196  0.00  0.00    +0.000 A 
ATOM     19  C   UNL     1      91.357  71.386  82.818  0.00  0.00    +0.000 A 
ATOM     20  C   UNL     1      90.802  70.928  84.008  0.00  0.00    +0.000 A 
ATOM     21  F   UNL     1      92.374  70.714  82.266  0.00  0.00    +0.000 F 
ATOM     22  F   UNL     1      89.371  74.345  82.196  0.00  0.00    +0.000 F 
ENDBRANCH  14  15
ENDBRANCH  12  14
ENDBRANCH   4  12
TORSDOF 4
ENDMDL
