MODEL 1
REMARK VINA RESULT:      -3.9      0.000      0.000
REMARK  Name = *****
REMARK  4 active torsions:
REMARK  status: ('A' for Active; 'I' for Inactive)
REMARK    1  A    between atoms: C_5  and  C_7
REMARK    2  A    between atoms: C_7  and  O_8
REMARK    3  A    between atoms: O_8  and  C_9
REMARK    4  A    between atoms: C_9  and  C_11
REMARK                            x       y       z     vdW  Elec       q    Type
REMARK                         _______ _______ _______ _____ _____    ______ ____
ROOT
ATOM      1  C   UNL     1     102.122 125.876  82.633  0.00  0.00    +0.000 C 
ENDROOT
BRANCH   1   6
ATOM      2  C   UNL     1      98.746 127.697  82.671  0.00  0.00    +0.000 A 
ATOM      3  C   UNL     1      99.093 128.920  83.234  0.00  0.00    +0.000 A 
ATOM      4  C   UNL     1     100.415 129.161  83.603  0.00  0.00    +0.000 A 
ATOM      5  C   UNL     1     101.390 128.177  83.409  0.00  0.00    +0.000 A 
ATOM      6  C   UNL     1     101.058 126.934  82.841  0.00  0.00    +0.000 A 
ATOM      7  C   UNL     1      99.718 126.713  82.475  0.00  0.00    +0.000 A 
ATOM      8 CL   UNL     1     103.007 128.551  83.891  0.00  0.00    +0.000 Cl
ENDBRANCH   1   6
BRANCH   1   9
ATOM      9  O   UNL     1     102.280 125.552  81.245  0.00  0.00    +0.000 OA
BRANCH   9  10
ATOM     10  C   UNL     1     103.582 125.396  80.862  0.00  0.00    +0.000 C 
ATOM     11  O   UNL     1     104.083 124.316  80.576  0.00  0.00    +0.000 OA
BRANCH  10  12
ATOM     12  C   UNL     1     104.244 126.688  80.853  0.00  0.00    +0.000 A 
ATOM     13  C   UNL     1     103.869 127.870  80.237  0.00  0.00    +0.000 A 
ATOM     14  C   UNL     1     104.794 128.929  80.470  0.00  0.00    +0.000 A 
ATOM     15  C   UNL     1     105.848 128.525  81.257  0.00  0.00    +0.000 A 
ATOM     16  S   UNL     1     105.718 126.882  81.708  0.00  0.00    +0.000 S 
ENDBRANCH  10  12
ENDBRANCH   9  10
ENDBRANCH   1   9
TORSDOF 4
ENDMDL
