MODEL 1
REMARK VINA RESULT:      -4.7      0.000      0.000
REMARK  Name = *****
REMARK  3 active torsions:
REMARK  status: ('A' for Active; 'I' for Inactive)
REMARK    1  A    between atoms: C_5  and  C_7
REMARK    2  A    between atoms: C_7  and  C_9
REMARK    3  A    between atoms: C_9  and  C_10
REMARK                            x       y       z     vdW  Elec       q    Type
REMARK                         _______ _______ _______ _____ _____    ______ ____
ROOT
ATOM      1  C   UNL     1     102.643 127.860  83.682  0.00  0.00    +0.000 C 
ATOM      2  O   UNL     1     102.965 127.794  84.872  0.00  0.00    +0.000 OA
ENDROOT
BRANCH   1   7
ATOM      3  C   UNL     1      99.133 129.228  83.403  0.00  0.00    +0.000 A 
ATOM      4  C   UNL     1      98.455 128.191  82.766  0.00  0.00    +0.000 A 
ATOM      5  C   UNL     1      99.139 127.026  82.424  0.00  0.00    +0.000 A 
ATOM      6  C   UNL     1     100.498 126.900  82.714  0.00  0.00    +0.000 A 
ATOM      7  C   UNL     1     101.194 127.932  83.343  0.00  0.00    +0.000 A 
ATOM      8  C   UNL     1     100.494 129.100  83.693  0.00  0.00    +0.000 A 
ATOM      9  F   UNL     1     101.095 125.751  82.382  0.00  0.00    +0.000 F 
ENDBRANCH   1   7
BRANCH   1  10
ATOM     10  C   UNL     1     103.701 127.886  82.596  0.00  0.00    +0.000 C 
BRANCH  10  11
ATOM     11  C   UNL     1     103.974 126.544  81.962  0.00  0.00    +0.000 A 
ATOM     12  C   UNL     1     103.790 126.372  80.583  0.00  0.00    +0.000 A 
ATOM     13  C   UNL     1     104.056 125.161  79.956  0.00  0.00    +0.000 A 
ATOM     14  C   UNL     1     104.528 124.103  80.718  0.00  0.00    +0.000 A 
ATOM     15  C   UNL     1     104.742 124.243  82.085  0.00  0.00    +0.000 A 
ATOM     16  C   UNL     1     104.473 125.465  82.707  0.00  0.00    +0.000 A 
ATOM     17  F   UNL     1     104.791 122.930  80.127  0.00  0.00    +0.000 F 
ATOM     18  F   UNL     1     103.353 127.397  79.836  0.00  0.00    +0.000 F 
ENDBRANCH  10  11
ENDBRANCH   1  10
TORSDOF 3
ENDMDL
