MODEL 1
REMARK VINA RESULT:      -4.3      0.000      0.000
REMARK  Name = *****
REMARK  5 active torsions:
REMARK  status: ('A' for Active; 'I' for Inactive)
REMARK    1  A    between atoms: C_1  and  C_2
REMARK    2  A    between atoms: C_5  and  S_8
REMARK    3  A    between atoms: S_8  and  C_9
REMARK    4  A    between atoms: C_9  and  C_11
REMARK    5  A    between atoms: C_16  and  C_17
REMARK                            x       y       z     vdW  Elec       q    Type
REMARK                         _______ _______ _______ _____ _____    ______ ____
ROOT
ATOM      1  C   UNL     1      88.573  70.657  85.218  0.00  0.00    +0.000 C 
ATOM      2  O   UNL     1      89.628  71.275  85.260  0.00  0.00    +0.000 OA
ENDROOT
BRANCH   1   3
ATOM      3  C   UNL     1      87.418  71.039  86.091  0.00  0.00    +0.000 A 
ATOM      4  C   UNL     1      86.284  71.654  85.528  0.00  0.00    +0.000 A 
ATOM      5  C   UNL     1      85.213  72.052  86.331  0.00  0.00    +0.000 A 
ATOM      6  C   UNL     1      85.266  71.856  87.706  0.00  0.00    +0.000 A 
ATOM      7  C   UNL     1      86.385  71.256  88.281  0.00  0.00    +0.000 A 
ATOM      8  C   UNL     1      87.468  70.834  87.489  0.00  0.00    +0.000 A 
ATOM      9  C   UNL     1      88.645  70.193  88.174  0.00  0.00    +0.000 C 
ENDBRANCH   1   3
BRANCH   1  10
ATOM     10  S   UNL     1      88.351  69.248  84.174  0.00  0.00    +0.000 S 
BRANCH  10  15
ATOM     11  C   UNL     1      88.482  64.722  88.258  0.00  0.00    +0.000 C 
ATOM     12  C   UNL     1      88.451  65.811  87.226  0.00  0.00    +0.000 A 
ATOM     13  C   UNL     1      89.642  66.313  86.690  0.00  0.00    +0.000 A 
ATOM     14  C   UNL     1      89.615  67.350  85.753  0.00  0.00    +0.000 A 
ATOM     15  C   UNL     1      88.399  67.898  85.335  0.00  0.00    +0.000 A 
ATOM     16  C   UNL     1      87.210  67.413  85.887  0.00  0.00    +0.000 A 
ATOM     17  C   UNL     1      87.235  66.378  86.828  0.00  0.00    +0.000 A 
ENDBRANCH  10  15
ENDBRANCH   1  10
TORSDOF 3
ENDMDL
