MODEL 1
REMARK VINA RESULT:      -4.3      0.000      0.000
REMARK  Name = *****
REMARK  3 active torsions:
REMARK  status: ('A' for Active; 'I' for Inactive)
REMARK    1  A    between atoms: C_6  and  C_7
REMARK    2  A    between atoms: C_7  and  S_8
REMARK    3  A    between atoms: S_8  and  C_9
REMARK                            x       y       z     vdW  Elec       q    Type
REMARK                         _______ _______ _______ _____ _____    ______ ____
ROOT
ATOM      1  C   UNL     1      87.823  70.728  85.620  0.00  0.00    +0.000 C 
ENDROOT
BRANCH   1   7
ATOM      2  C   UNL     1      86.499  71.290  87.703  0.00  0.00    +0.000 A 
ATOM      3  C   UNL     1      85.381  71.836  88.336  0.00  0.00    +0.000 A 
ATOM      4  C   UNL     1      84.365  72.410  87.573  0.00  0.00    +0.000 A 
ATOM      5  C   UNL     1      84.460  72.445  86.185  0.00  0.00    +0.000 A 
ATOM      6  C   UNL     1      85.578  71.897  85.551  0.00  0.00    +0.000 A 
ATOM      7  C   UNL     1      86.606  71.309  86.305  0.00  0.00    +0.000 A 
ATOM      8 CL   UNL     1      82.988  73.084  88.354  0.00  0.00    +0.000 Cl
ENDBRANCH   1   7
BRANCH   1   9
ATOM      9  S   UNL     1      89.132  70.341  86.826  0.00  0.00    +0.000 S 
BRANCH   9  10
ATOM     10  C   UNL     1      89.084  68.559  86.787  0.00  0.00    +0.000 A 
ATOM     11  N   UNL     1      88.031  67.928  87.355  0.00  0.00    +0.000 NA
ATOM     12  C   UNL     1      88.017  66.579  87.323  0.00  0.00    +0.000 A 
ATOM     13  C   UNL     1      89.011  65.816  86.744  0.00  0.00    +0.000 A 
ATOM     14  C   UNL     1      90.078  66.490  86.169  0.00  0.00    +0.000 A 
ATOM     15  C   UNL     1      90.129  67.877  86.185  0.00  0.00    +0.000 A 
ATOM     16 CL   UNL     1      91.349  65.597  85.429  0.00  0.00    +0.000 Cl
ENDBRANCH   9  10
ENDBRANCH   1   9
TORSDOF 3
ENDMDL
