MODEL 1
REMARK VINA RESULT:      -4.8      0.000      0.000
REMARK  Name = *****
REMARK  5 active torsions:
REMARK  status: ('A' for Active; 'I' for Inactive)
REMARK    1  A    between atoms: C_1  and  C_2
REMARK    2  A    between atoms: C_5  and  C_8
REMARK    3  A    between atoms: N_9  and  C_11
REMARK    4  A    between atoms: C_11  and  C_12
REMARK    5  A    between atoms: C_11  and  C_13
REMARK                            x       y       z     vdW  Elec       q    Type
REMARK                         _______ _______ _______ _____ _____    ______ ____
ROOT
ATOM      1  C   UNL     1      88.273  70.444  86.909  0.00  0.00    +0.000 C 
ATOM      2  N   UNL     1      88.318  69.024  86.556  0.00  0.00    +0.000 NA
ATOM      3  O   UNL     1      88.531  69.457  87.920  0.00  0.00    +0.000 OA
ENDROOT
BRANCH   1   8
ATOM      4  C   UNL     1      83.060  73.089  86.926  0.00  0.00    +0.000 C 
ATOM      5  C   UNL     1      84.409  72.434  86.923  0.00  0.00    +0.000 A 
ATOM      6  C   UNL     1      85.010  72.041  88.121  0.00  0.00    +0.000 A 
ATOM      7  C   UNL     1      86.253  71.398  88.113  0.00  0.00    +0.000 A 
ATOM      8  C   UNL     1      86.924  71.113  86.912  0.00  0.00    +0.000 A 
ATOM      9  C   UNL     1      86.297  71.504  85.718  0.00  0.00    +0.000 A 
ATOM     10  C   UNL     1      85.056  72.148  85.718  0.00  0.00    +0.000 A 
ENDBRANCH   1   8
BRANCH   2  11
ATOM     11  C   UNL     1      89.637  68.553  86.098  0.00  0.00    +0.000 C 
ATOM     12  C   UNL     1      89.847  69.048  84.663  0.00  0.00    +0.000 C 
BRANCH  11  13
ATOM     13  C   UNL     1      89.755  67.032  86.133  0.00  0.00    +0.000 A 
ATOM     14  C   UNL     1      90.777  66.393  85.414  0.00  0.00    +0.000 A 
ATOM     15  C   UNL     1      90.885  65.001  85.414  0.00  0.00    +0.000 A 
ATOM     16  C   UNL     1      89.973  64.228  86.130  0.00  0.00    +0.000 A 
ATOM     17  C   UNL     1      88.951  64.848  86.846  0.00  0.00    +0.000 A 
ATOM     18  C   UNL     1      88.840  66.240  86.845  0.00  0.00    +0.000 A 
ENDBRANCH  11  13
ENDBRANCH   2  11
TORSDOF 3
ENDMDL
