MODEL 1
REMARK VINA RESULT:      -4.9      0.000      0.000
REMARK  Name = *****
REMARK  2 active torsions:
REMARK  status: ('A' for Active; 'I' for Inactive)
REMARK    1  A    between atoms: C_6  and  C_7
REMARK    2  A    between atoms: C_8  and  C_9
REMARK                            x       y       z     vdW  Elec       q    Type
REMARK                         _______ _______ _______ _____ _____    ______ ____
ROOT
ATOM      1  C   UNL     1     101.786 126.005  82.315  0.00  0.00    +0.000 C 
ATOM      2  C   UNL     1     103.016 126.161  81.797  0.00  0.00    +0.000 C 
ENDROOT
BRANCH   2   3
ATOM      3  C   UNL     1     103.861 125.048  81.343  0.00  0.00    +0.000 A 
ATOM      4  C   UNL     1     104.522 125.068  80.107  0.00  0.00    +0.000 A 
ATOM      5  C   UNL     1     105.337 124.001  79.735  0.00  0.00    +0.000 A 
ATOM      6  C   UNL     1     105.511 122.916  80.585  0.00  0.00    +0.000 A 
ATOM      7  C   UNL     1     104.877 122.886  81.820  0.00  0.00    +0.000 A 
ATOM      8  C   UNL     1     104.058 123.953  82.201  0.00  0.00    +0.000 A 
ATOM      9  F   UNL     1     106.298 121.894  80.224  0.00  0.00    +0.000 F 
ATOM     10  F   UNL     1     105.959 124.034  78.548  0.00  0.00    +0.000 F 
ENDBRANCH   2   3
BRANCH   1  16
ATOM     11  C   UNL     1      99.559 127.154  82.534  0.00  0.00    +0.000 A 
ATOM     12  C   UNL     1      98.796 128.248  82.952  0.00  0.00    +0.000 A 
ATOM     13  C   UNL     1      99.418 129.314  83.589  0.00  0.00    +0.000 A 
ATOM     14  C   UNL     1     100.788 129.310  83.814  0.00  0.00    +0.000 A 
ATOM     15  C   UNL     1     101.551 128.217  83.396  0.00  0.00    +0.000 A 
ATOM     16  C   UNL     1     100.942 127.122  82.765  0.00  0.00    +0.000 A 
ATOM     17  F   UNL     1      98.686 130.363  83.988  0.00  0.00    +0.000 F 
ENDBRANCH   1  16
TORSDOF 2
ENDMDL
