MODEL 1
REMARK VINA RESULT:      -4.5      0.000      0.000
REMARK  Name = *****
REMARK  5 active torsions:
REMARK  status: ('A' for Active; 'I' for Inactive)
REMARK    1  A    between atoms: C_2  and  C_3
REMARK    2  A    between atoms: C_6  and  O_9
REMARK    3  A    between atoms: O_9  and  C_10
REMARK    4  A    between atoms: C_10  and  O_12
REMARK    5  A    between atoms: O_12  and  C_13
REMARK                            x       y       z     vdW  Elec       q    Type
REMARK                         _______ _______ _______ _____ _____    ______ ____
ROOT
ATOM      1  O   UNL     1     102.092 125.596  82.199  0.00  0.00    +0.000 OA
ENDROOT
BRANCH   1   5
ATOM      2  C   UNL     1      99.968 128.957  83.531  0.00  0.00    +0.000 A 
ATOM      3  C   UNL     1      99.289 127.905  82.897  0.00  0.00    +0.000 A 
ATOM      4  C   UNL     1      99.982 126.782  82.439  0.00  0.00    +0.000 A 
ATOM      5  C   UNL     1     101.366 126.725  82.591  0.00  0.00    +0.000 A 
ATOM      6  C   UNL     1     102.060 127.754  83.221  0.00  0.00    +0.000 A 
ATOM      7  C   UNL     1     101.360 128.874  83.679  0.00  0.00    +0.000 A 
BRANCH   2   9
ATOM      8  C   UNL     1      99.737 131.326  84.251  0.00  0.00    +0.000 C 
ATOM      9  C   UNL     1      99.201 130.131  83.969  0.00  0.00    +0.000 C 
ENDBRANCH   2   9
ENDBRANCH   1   5
BRANCH   1  10
ATOM     10  C   UNL     1     103.221 125.843  81.428  0.00  0.00    +0.000 C 
ATOM     11  O   UNL     1     103.248 126.416  80.346  0.00  0.00    +0.000 OA
BRANCH  10  12
ATOM     12  O   UNL     1     104.308 125.320  82.113  0.00  0.00    +0.000 OA
BRANCH  12  13
ATOM     13  C   UNL     1     104.416 123.934  81.995  0.00  0.00    +0.000 A 
ATOM     14  C   UNL     1     104.642 123.370  80.740  0.00  0.00    +0.000 A 
ATOM     15  C   UNL     1     104.798 121.989  80.636  0.00  0.00    +0.000 A 
ATOM     16  C   UNL     1     104.743 121.190  81.780  0.00  0.00    +0.000 A 
ATOM     17  C   UNL     1     104.537 121.769  83.034  0.00  0.00    +0.000 A 
ATOM     18  C   UNL     1     104.380 123.151  83.147  0.00  0.00    +0.000 A 
ENDBRANCH  12  13
ENDBRANCH  10  12
ENDBRANCH   1  10
TORSDOF 5
ENDMDL
