MODEL 1
REMARK VINA RESULT:      -5.1      0.000      0.000
REMARK  Name = *****
REMARK  3 active torsions:
REMARK  status: ('A' for Active; 'I' for Inactive)
REMARK    1  A    between atoms: C_4  and  C_7
REMARK    2  A    between atoms: C_8  and  C_9
REMARK    3  A    between atoms: C_9  and  C_11
REMARK                            x       y       z     vdW  Elec       q    Type
REMARK                         _______ _______ _______ _____ _____    ______ ____
ROOT
ATOM      1  C   UNL     1      89.039  64.600  86.753  0.00  0.00    +0.000 C 
ATOM      2  O   UNL     1      89.886  63.915  86.188  0.00  0.00    +0.000 OA
ENDROOT
BRANCH   1   3
ATOM      3  C   UNL     1      88.237  63.997  87.843  0.00  0.00    +0.000 A 
ATOM      4  C   UNL     1      88.615  64.275  89.165  0.00  0.00    +0.000 A 
ATOM      5  C   UNL     1      87.899  63.717  90.218  0.00  0.00    +0.000 A 
ATOM      6  C   UNL     1      86.819  62.877  89.970  0.00  0.00    +0.000 A 
ATOM      7  C   UNL     1      86.443  62.578  88.667  0.00  0.00    +0.000 A 
ATOM      8  C   UNL     1      87.158  63.136  87.609  0.00  0.00    +0.000 A 
ATOM      9  F   UNL     1      86.796  62.799  86.364  0.00  0.00    +0.000 F 
ATOM     10  F   UNL     1      86.133  62.342  90.989  0.00  0.00    +0.000 F 
ATOM     11  F   UNL     1      88.259  63.996  91.478  0.00  0.00    +0.000 F 
ENDBRANCH   1   3
BRANCH   1  13
ATOM     12  C   UNL     1      89.895  66.859  86.382  0.00  0.00    +0.000 C 
ATOM     13  C   UNL     1      88.836  66.036  86.420  0.00  0.00    +0.000 C 
BRANCH  12  17
ATOM     14  C   UNL     1      89.703  71.006  85.356  0.00  0.00    +0.000 A 
ATOM     15  C   UNL     1      89.566  70.622  86.688  0.00  0.00    +0.000 A 
ATOM     16  C   UNL     1      89.620  69.271  87.038  0.00  0.00    +0.000 A 
ATOM     17  C   UNL     1      89.804  68.289  86.056  0.00  0.00    +0.000 A 
ATOM     18  C   UNL     1      89.959  68.688  84.722  0.00  0.00    +0.000 A 
ATOM     19  C   UNL     1      89.903  70.040  84.373  0.00  0.00    +0.000 A 
ENDBRANCH  12  17
ENDBRANCH   1  13
TORSDOF 3
ENDMDL
