REMARK  Name = *****
REMARK  5 active torsions:
REMARK  status: ('A' for Active; 'I' for Inactive)
REMARK    1  A    between atoms: C_1  and  C_2
REMARK    2  A    between atoms: C_3  and  O_16
REMARK    3  A    between atoms: C_4  and  S_8
REMARK    4  A    between atoms: S_8  and  S_9
REMARK    5  A    between atoms: S_9  and  C_10
REMARK                            x       y       z     vdW  Elec       q    Type
REMARK                         _______ _______ _______ _____ _____    ______ ____
ROOT
ATOM      1  C   UNL     1      -1.908   0.593  -0.677  0.00  0.00    +0.000 C 
ATOM      2  C   UNL     1      -0.434   0.620  -0.390  0.00  0.00    +0.000 A 
ATOM      3  C   UNL     1       0.176   1.679   0.303  0.00  0.00    +0.000 A 
ATOM      4  C   UNL     1       1.556   1.671   0.569  0.00  0.00    +0.000 A 
ATOM      5  C   UNL     1       2.329   0.589   0.133  0.00  0.00    +0.000 A 
ATOM      6  C   UNL     1       1.739  -0.463  -0.566  0.00  0.00    +0.000 A 
ATOM      7  C   UNL     1       0.368  -0.445  -0.828  0.00  0.00    +0.000 A 
ENDROOT
BRANCH   3   8
ATOM      8  O   UNL     1      -0.567   2.746   0.741  0.00  0.00    +0.000 OA
ATOM      9  H   UNL     1      -1.489   2.774   0.576  0.00  0.00    +0.000 HD
ENDBRANCH   3   8
BRANCH   4  10
ATOM     10  S   UNL     1       2.356   3.016   1.439  0.00  0.00    +0.000 S 
BRANCH  10  11
ATOM     11  S   UNL     1       3.289   4.009  -0.105  0.00  0.00    +0.000 S 
BRANCH  11  12
ATOM     12  C   UNL     1       1.945   4.957  -0.795  0.00  0.00    +0.000 A 
ATOM     13  C   UNL     1       1.474   6.105  -0.151  0.00  0.00    +0.000 A 
ATOM     14  C   UNL     1       0.429   6.845  -0.709  0.00  0.00    +0.000 A 
ATOM     15  C   UNL     1      -0.147   6.443  -1.913  0.00  0.00    +0.000 A 
ATOM     16  C   UNL     1       0.321   5.301  -2.562  0.00  0.00    +0.000 A 
ATOM     17  C   UNL     1       1.366   4.561  -2.006  0.00  0.00    +0.000 A 
ENDBRANCH  11  12
ENDBRANCH  10  11
ENDBRANCH   4  10
TORSDOF 4
