MODEL 1
REMARK VINA RESULT:      -4.8      0.000      0.000
REMARK  Name = *****
REMARK  4 active torsions:
REMARK  status: ('A' for Active; 'I' for Inactive)
REMARK    1  A    between atoms: C_1  and  C_2
REMARK    2  A    between atoms: C_2  and  C_3
REMARK    3  A    between atoms: C_2  and  S_10
REMARK    4  A    between atoms: S_10  and  C_12
REMARK                            x       y       z     vdW  Elec       q    Type
REMARK                         _______ _______ _______ _____ _____    ______ ____
ROOT
ATOM      1  C   UNL     1     103.874 127.552  80.340  0.00  0.00    +0.000 C 
ATOM      2  C   UNL     1     103.080 126.660  81.297  0.00  0.00    +0.000 C 
ENDROOT
BRANCH   2   3
ATOM      3  C   UNL     1     103.701 125.277  81.412  0.00  0.00    +0.000 A 
ATOM      4  C   UNL     1     104.271 124.626  80.305  0.00  0.00    +0.000 A 
ATOM      5  C   UNL     1     104.847 123.361  80.442  0.00  0.00    +0.000 A 
ATOM      6  C   UNL     1     104.855 122.733  81.684  0.00  0.00    +0.000 A 
ATOM      7  C   UNL     1     104.292 123.360  82.793  0.00  0.00    +0.000 A 
ATOM      8  C   UNL     1     103.717 124.626  82.657  0.00  0.00    +0.000 A 
ATOM      9 CL   UNL     1     105.568 121.176  81.852  0.00  0.00    +0.000 Cl
ENDBRANCH   2   3
BRANCH   2  10
ATOM     10  S   UNL     1     102.943 127.492  82.942  0.00  0.00    +0.000 S 
ATOM     11  O   UNL     1     103.483 128.885  82.784  0.00  0.00    +0.000 OA
BRANCH  10  12
ATOM     12  C   UNL     1     101.143 127.674  82.974  0.00  0.00    +0.000 A 
ATOM     13  C   UNL     1     100.573 128.817  83.548  0.00  0.00    +0.000 A 
ATOM     14  C   UNL     1      99.186 128.968  83.583  0.00  0.00    +0.000 A 
ATOM     15  C   UNL     1      98.363 127.984  83.036  0.00  0.00    +0.000 A 
ATOM     16  C   UNL     1      98.925 126.852  82.450  0.00  0.00    +0.000 A 
ATOM     17  C   UNL     1     100.312 126.697  82.416  0.00  0.00    +0.000 A 
ENDBRANCH  10  12
ENDBRANCH   2  10
TORSDOF 3
ENDMDL
