MODEL 1
REMARK VINA RESULT:      -5.0      0.000      0.000
REMARK  Name = *****
REMARK  4 active torsions:
REMARK  status: ('A' for Active; 'I' for Inactive)
REMARK    1  A    between atoms: C_1  and  C_2
REMARK    2  A    between atoms: C_3  and  C_16
REMARK    3  A    between atoms: C_5  and  C_8
REMARK    4  A    between atoms: C_9  and  C_10
REMARK                            x       y       z     vdW  Elec       q    Type
REMARK                         _______ _______ _______ _____ _____    ______ ____
ROOT
ATOM      1  C   UNL     1     106.703 121.806  80.859  0.00  0.00    +0.000 C 
ATOM      2  C   UNL     1     105.654 122.867  81.051  0.00  0.00    +0.000 A 
ATOM      3  C   UNL     1     104.959 123.005  82.268  0.00  0.00    +0.000 A 
ATOM      4  C   UNL     1     103.989 124.015  82.397  0.00  0.00    +0.000 A 
ATOM      5  C   UNL     1     103.695 124.885  81.339  0.00  0.00    +0.000 A 
ATOM      6  C   UNL     1     104.409 124.754  80.146  0.00  0.00    +0.000 A 
ATOM      7  C   UNL     1     105.373 123.753  80.001  0.00  0.00    +0.000 A 
ATOM      8  C   UNL     1     105.226 122.088  83.430  0.00  0.00    +0.000 C 
ENDROOT
BRANCH   5   9
ATOM      9  C   UNL     1     102.695 125.942  81.544  0.00  0.00    +0.000 C 
ATOM     10  C   UNL     1     101.847 125.976  82.586  0.00  0.00    +0.000 C 
BRANCH  10  11
ATOM     11  C   UNL     1     100.858 127.043  82.801  0.00  0.00    +0.000 A 
ATOM     12  C   UNL     1      99.508 126.891  82.461  0.00  0.00    +0.000 A 
ATOM     13  C   UNL     1      98.592 127.916  82.711  0.00  0.00    +0.000 A 
ATOM     14  C   UNL     1      99.015 129.100  83.314  0.00  0.00    +0.000 A 
ATOM     15  C   UNL     1     100.353 129.256  83.672  0.00  0.00    +0.000 A 
ATOM     16  C   UNL     1     101.268 128.230  83.422  0.00  0.00    +0.000 A 
ENDBRANCH  10  11
ENDBRANCH   5   9
TORSDOF 2
ENDMDL
