MODEL 1
REMARK VINA RESULT:      -4.5      0.000      0.000
REMARK  Name = *****
REMARK  4 active torsions:
REMARK  status: ('A' for Active; 'I' for Inactive)
REMARK    1  A    between atoms: C_1  and  C_2
REMARK    2  A    between atoms: C_5  and  S_8
REMARK    3  A    between atoms: S_8  and  C_9
REMARK    4  A    between atoms: C_9  and  C_10
REMARK                            x       y       z     vdW  Elec       q    Type
REMARK                         _______ _______ _______ _____ _____    ______ ____
ROOT
ATOM      1  S   UNL     1     103.438 126.892  81.182  0.00  0.00    +0.000 S 
ENDROOT
BRANCH   1   6
ATOM      2  C   UNL     1     105.133 121.103  82.034  0.00  0.00    +0.000 C 
ATOM      3  C   UNL     1     104.736 122.535  81.831  0.00  0.00    +0.000 A 
ATOM      4  C   UNL     1     104.242 123.291  82.899  0.00  0.00    +0.000 A 
ATOM      5  C   UNL     1     103.844 124.616  82.706  0.00  0.00    +0.000 A 
ATOM      6  C   UNL     1     103.935 125.201  81.440  0.00  0.00    +0.000 A 
ATOM      7  C   UNL     1     104.400 124.441  80.365  0.00  0.00    +0.000 A 
ATOM      8  C   UNL     1     104.797 123.115  80.558  0.00  0.00    +0.000 A 
ENDBRANCH   1   6
BRANCH   1   9
ATOM      9  C   UNL     1     102.876 127.311  82.870  0.00  0.00    +0.000 C 
BRANCH   9  10
ATOM     10  C   UNL     1     101.393 127.584  82.955  0.00  0.00    +0.000 A 
ATOM     11  C   UNL     1     100.500 126.656  82.383  0.00  0.00    +0.000 A 
ATOM     12  C   UNL     1      99.120 126.863  82.420  0.00  0.00    +0.000 A 
ATOM     13  C   UNL     1      98.605 128.002  83.031  0.00  0.00    +0.000 A 
ATOM     14  C   UNL     1      99.471 128.930  83.607  0.00  0.00    +0.000 A 
ATOM     15  C   UNL     1     100.855 128.725  83.573  0.00  0.00    +0.000 A 
ATOM     16 CL   UNL     1     101.844 129.922  84.330  0.00  0.00    +0.000 Cl
ENDBRANCH   9  10
ENDBRANCH   1   9
TORSDOF 3
ENDMDL
