MODEL 1
REMARK VINA RESULT:      -4.0      0.000      0.000
REMARK  Name = *****
REMARK  5 active torsions:
REMARK  status: ('A' for Active; 'I' for Inactive)
REMARK    1  A    between atoms: C_4  and  S_7
REMARK    2  A    between atoms: S_7  and  C_8
REMARK    3  A    between atoms: C_8  and  C_9
REMARK    4  A    between atoms: C_9  and  C_10
REMARK    5  A    between atoms: C_10  and  C_12
REMARK                            x       y       z     vdW  Elec       q    Type
REMARK                         _______ _______ _______ _____ _____    ______ ____
ROOT
ATOM      1  C   UNL     1     100.792 126.528  83.306  0.00  0.00    +0.000 C 
ENDROOT
BRANCH   1   2
ATOM      2  S   UNL     1     102.309 127.317  82.665  0.00  0.00    +0.000 S 
BRANCH   2   6
ATOM      3  C   UNL     1     104.601 123.727  80.923  0.00  0.00    +0.000 A 
ATOM      4  C   UNL     1     104.297 124.795  80.083  0.00  0.00    +0.000 A 
ATOM      5  C   UNL     1     103.601 125.904  80.575  0.00  0.00    +0.000 A 
ATOM      6  C   UNL     1     103.201 125.960  81.913  0.00  0.00    +0.000 A 
ATOM      7  C   UNL     1     103.515 124.877  82.748  0.00  0.00    +0.000 A 
ATOM      8  C   UNL     1     104.210 123.768  82.258  0.00  0.00    +0.000 A 
ENDBRANCH   2   6
ENDBRANCH   1   2
BRANCH   1   9
ATOM      9  C   UNL     1      99.654 126.742  82.314  0.00  0.00    +0.000 C 
BRANCH   9  10
ATOM     10  C   UNL     1      98.467 127.422  82.980  0.00  0.00    +0.000 C 
ATOM     11  O   UNL     1      97.335 126.946  82.868  0.00  0.00    +0.000 OA
BRANCH  10  12
ATOM     12  C   UNL     1      98.761 128.638  83.737  0.00  0.00    +0.000 A 
ATOM     13  C   UNL     1      99.321 129.831  83.311  0.00  0.00    +0.000 A 
ATOM     14  C   UNL     1      99.446 130.784  84.365  0.00  0.00    +0.000 A 
ATOM     15  C   UNL     1      98.979 130.292  85.562  0.00  0.00    +0.000 A 
ATOM     16  S   UNL     1      98.395 128.694  85.414  0.00  0.00    +0.000 S 
ENDBRANCH  10  12
ENDBRANCH   9  10
ENDBRANCH   1   9
TORSDOF 5
ENDMDL
