MODEL 1
REMARK VINA RESULT:      -4.8      0.000      0.000
REMARK  Name = *****
REMARK  3 active torsions:
REMARK  status: ('A' for Active; 'I' for Inactive)
REMARK    1  A    between atoms: C_4  and  C_7
REMARK    2  A    between atoms: C_8  and  C_10
REMARK    3  A    between atoms: C_13  and  C_16
REMARK                            x       y       z     vdW  Elec       q    Type
REMARK                         _______ _______ _______ _____ _____    ______ ____
ROOT
ATOM      1  C   UNL     1      89.703  68.113  85.963  0.00  0.00    +0.000 A 
ATOM      2  C   UNL     1      89.670  69.348  86.630  0.00  0.00    +0.000 A 
ATOM      3  C   UNL     1      89.804  70.556  85.935  0.00  0.00    +0.000 A 
ATOM      4  C   UNL     1      89.983  70.561  84.546  0.00  0.00    +0.000 A 
ATOM      5  C   UNL     1      90.012  69.336  83.869  0.00  0.00    +0.000 A 
ATOM      6  C   UNL     1      89.880  68.133  84.572  0.00  0.00    +0.000 A 
ENDROOT
BRANCH   4   7
ATOM      7  C   UNL     1      90.102  71.861  83.789  0.00  0.00    +0.000 C 
ATOM      8  F   UNL     1      91.393  72.254  83.601  0.00  0.00    +0.000 F 
ATOM      9  F   UNL     1      89.547  71.809  82.546  0.00  0.00    +0.000 F 
ATOM     10  F   UNL     1      89.487  72.892  84.430  0.00  0.00    +0.000 F 
ENDBRANCH   4   7
BRANCH   1  12
ATOM     11  C   UNL     1      88.198  66.180  86.880  0.00  0.00    +0.000 C 
ATOM     12  C   UNL     1      89.570  66.819  86.724  0.00  0.00    +0.000 C 
ATOM     13  O   UNL     1      89.192  65.642  85.993  0.00  0.00    +0.000 OA
BRANCH  11  17
ATOM     14  C   UNL     1      87.253  63.979  90.490  0.00  0.00    +0.000 A 
ATOM     15  C   UNL     1      86.541  65.129  90.163  0.00  0.00    +0.000 A 
ATOM     16  C   UNL     1      86.852  65.836  88.998  0.00  0.00    +0.000 A 
ATOM     17  C   UNL     1      87.880  65.414  88.138  0.00  0.00    +0.000 A 
ATOM     18  C   UNL     1      88.578  64.248  88.488  0.00  0.00    +0.000 A 
ATOM     19  C   UNL     1      88.274  63.538  89.652  0.00  0.00    +0.000 A 
ENDBRANCH  11  17
ENDBRANCH   1  12
TORSDOF 3
ENDMDL
