MODEL 1
REMARK VINA RESULT:      -4.7      0.000      0.000
REMARK  Name = *****
REMARK  3 active torsions:
REMARK  status: ('A' for Active; 'I' for Inactive)
REMARK    1  A    between atoms: C_4  and  N_7
REMARK    2  A    between atoms: N_7  and  C_8
REMARK    3  A    between atoms: C_8  and  C_9
REMARK                            x       y       z     vdW  Elec       q    Type
REMARK                         _______ _______ _______ _____ _____    ______ ____
ROOT
ATOM      1  C   UNL     1     102.691 126.740  83.043  0.00  0.00    +0.000 C 
ENDROOT
BRANCH   1   2
ATOM      2  C   UNL     1     101.348 127.329  82.989  0.00  0.00    +0.000 A 
ATOM      3  C   UNL     1     101.108 128.602  83.534  0.00  0.00    +0.000 A 
ATOM      4  C   UNL     1      99.802 129.115  83.512  0.00  0.00    +0.000 A 
ATOM      5  C   UNL     1      98.758 128.362  82.965  0.00  0.00    +0.000 A 
ATOM      6  C   UNL     1      99.003 127.091  82.443  0.00  0.00    +0.000 A 
ATOM      7  C   UNL     1     100.295 126.570  82.464  0.00  0.00    +0.000 A 
ATOM      8 CL   UNL     1      99.406 130.675  84.144  0.00  0.00    +0.000 Cl
ATOM      9 CL   UNL     1     102.418 129.533  84.185  0.00  0.00    +0.000 Cl
ENDBRANCH   1   2
BRANCH   1  10
ATOM     10  N   UNL     1     102.983 125.490  83.319  0.00  0.00    +0.000 N 
ATOM     11  O   UNL     1     102.635 125.002  84.445  0.00  0.00    +0.000 OA
BRANCH  10  15
ATOM     12  C   UNL     1     105.049 122.999  80.599  0.00  0.00    +0.000 A 
ATOM     13  C   UNL     1     104.574 124.240  80.170  0.00  0.00    +0.000 A 
ATOM     14  C   UNL     1     103.894 125.074  81.058  0.00  0.00    +0.000 A 
ATOM     15  C   UNL     1     103.677 124.642  82.371  0.00  0.00    +0.000 A 
ATOM     16  C   UNL     1     104.175 123.412  82.813  0.00  0.00    +0.000 A 
ATOM     17  C   UNL     1     104.857 122.588  81.919  0.00  0.00    +0.000 A 
ENDBRANCH  10  15
ENDBRANCH   1  10
TORSDOF 3
ENDMDL
