MODEL 1
REMARK VINA RESULT:      -4.7      0.000      0.000
REMARK  Name = *****
REMARK  2 active torsions:
REMARK  status: ('A' for Active; 'I' for Inactive)
REMARK    1  A    between atoms: C_5  and  C_7
REMARK    2  A    between atoms: C_8  and  C_9
REMARK                            x       y       z     vdW  Elec       q    Type
REMARK                         _______ _______ _______ _____ _____    ______ ____
ROOT
ATOM      1  C   UNL     1     102.100 125.996  82.210  0.00  0.00    +0.000 C 
ATOM      2  C   UNL     1     102.960 126.124  81.186  0.00  0.00    +0.000 C 
ENDROOT
BRANCH   1   7
ATOM      3  C   UNL     1      98.659 127.649  82.701  0.00  0.00    +0.000 C 
ATOM      4  C   UNL     1      99.101 128.900  83.400  0.00  0.00    +0.000 C 
ATOM      5  C   UNL     1     100.385 129.166  83.678  0.00  0.00    +0.000 C 
ATOM      6  C   UNL     1     101.518 128.242  83.319  0.00  0.00    +0.000 C 
ATOM      7  C   UNL     1     101.088 126.971  82.610  0.00  0.00    +0.000 C 
ATOM      8  C   UNL     1      99.789 126.724  82.341  0.00  0.00    +0.000 C 
ENDBRANCH   1   7
BRANCH   2   9
ATOM      9  C   UNL     1     103.964 125.108  80.833  0.00  0.00    +0.000 A 
ATOM     10  C   UNL     1     104.077 123.899  81.532  0.00  0.00    +0.000 A 
ATOM     11  C   UNL     1     105.021 122.943  81.147  0.00  0.00    +0.000 A 
ATOM     12  C   UNL     1     105.854 123.182  80.056  0.00  0.00    +0.000 A 
ATOM     13  C   UNL     1     105.738 124.374  79.344  0.00  0.00    +0.000 A 
ATOM     14  C   UNL     1     104.793 125.330  79.727  0.00  0.00    +0.000 A 
ENDBRANCH   2   9
TORSDOF 2
ENDMDL
