MODEL 1
REMARK VINA RESULT:      -5.0      0.000      0.000
REMARK  Name = *****
REMARK  3 active torsions:
REMARK  status: ('A' for Active; 'I' for Inactive)
REMARK    1  A    between atoms: C_4  and  C_7
REMARK    2  A    between atoms: C_8  and  C_9
REMARK    3  A    between atoms: C_10  and  C_17
REMARK                            x       y       z     vdW  Elec       q    Type
REMARK                         _______ _______ _______ _____ _____    ______ ____
ROOT
ATOM      1  C   UNL     1     103.986 124.941  81.595  0.00  0.00    +0.000 A 
ATOM      2  C   UNL     1     104.445 123.783  82.253  0.00  0.00    +0.000 A 
ATOM      3  C   UNL     1     105.296 122.881  81.585  0.00  0.00    +0.000 A 
ATOM      4  C   UNL     1     105.699 123.128  80.272  0.00  0.00    +0.000 A 
ATOM      5  C   UNL     1     105.260 124.278  79.630  0.00  0.00    +0.000 A 
ATOM      6  C   UNL     1     104.420 125.176  80.281  0.00  0.00    +0.000 A 
ATOM      7  F   UNL     1     104.021 126.281  79.630  0.00  0.00    +0.000 F 
ATOM      8  F   UNL     1     105.656 124.517  78.372  0.00  0.00    +0.000 F 
ENDROOT
BRANCH   1  10
ATOM      9  C   UNL     1     101.786 126.013  81.975  0.00  0.00    +0.000 C 
ATOM     10  C   UNL     1     103.106 125.944  82.214  0.00  0.00    +0.000 C 
BRANCH   9  14
ATOM     11  C   UNL     1      99.153 128.929  83.660  0.00  0.00    +0.000 A 
ATOM     12  C   UNL     1     100.530 129.080  83.811  0.00  0.00    +0.000 A 
ATOM     13  C   UNL     1     101.402 128.132  83.272  0.00  0.00    +0.000 A 
ATOM     14  C   UNL     1     100.903 127.017  82.585  0.00  0.00    +0.000 A 
ATOM     15  C   UNL     1      99.519 126.883  82.427  0.00  0.00    +0.000 A 
ATOM     16  C   UNL     1      98.647 127.832  82.967  0.00  0.00    +0.000 A 
ENDBRANCH   9  14
ENDBRANCH   1  10
BRANCH   2  17
ATOM     17  C   UNL     1     104.089 123.488  83.614  0.00  0.00    +0.000 C 
ATOM     18  N   UNL     1     103.784 123.221  84.701  0.00  0.00    +0.000 NA
ENDBRANCH   2  17
TORSDOF 3
ENDMDL
