MODEL 1
REMARK VINA RESULT:      -4.8      0.000      0.000
REMARK  Name = *****
REMARK  3 active torsions:
REMARK  status: ('A' for Active; 'I' for Inactive)
REMARK    1  A    between atoms: C_3  and  O_8
REMARK    2  A    between atoms: O_8  and  C_9
REMARK    3  A    between atoms: C_9  and  C_11
REMARK                            x       y       z     vdW  Elec       q    Type
REMARK                         _______ _______ _______ _____ _____    ______ ____
ROOT
ATOM      1  C   UNL     1     103.389 127.319  82.042  0.00  0.00    +0.000 C 
ATOM      2  O   UNL     1     103.605 128.410  81.537  0.00  0.00    +0.000 OA
ENDROOT
BRANCH   1   3
ATOM      3  C   UNL     1     103.911 126.047  81.467  0.00  0.00    +0.000 A 
ATOM      4  C   UNL     1     104.515 125.979  80.205  0.00  0.00    +0.000 A 
ATOM      5  C   UNL     1     104.978 124.755  79.731  0.00  0.00    +0.000 A 
ATOM      6  C   UNL     1     104.849 123.600  80.494  0.00  0.00    +0.000 A 
ATOM      7  C   UNL     1     104.251 123.651  81.748  0.00  0.00    +0.000 A 
ATOM      8  C   UNL     1     103.781 124.875  82.235  0.00  0.00    +0.000 A 
ATOM      9  F   UNL     1     105.297 122.428  80.027  0.00  0.00    +0.000 F 
ATOM     10  F   UNL     1     105.554 124.700  78.522  0.00  0.00    +0.000 F 
ENDBRANCH   1   3
BRANCH   1  11
ATOM     11  O   UNL     1     102.659 127.052  83.183  0.00  0.00    +0.000 OA
BRANCH  11  14
ATOM     12  C   UNL     1      99.079 126.926  82.372  0.00  0.00    +0.000 A 
ATOM     13  C   UNL     1     100.418 126.554  82.507  0.00  0.00    +0.000 A 
ATOM     14  C   UNL     1     101.315 127.434  83.113  0.00  0.00    +0.000 A 
ATOM     15  C   UNL     1     100.910 128.691  83.555  0.00  0.00    +0.000 A 
ATOM     16  C   UNL     1      99.574 129.044  83.414  0.00  0.00    +0.000 A 
ATOM     17  C   UNL     1      98.656 128.174  82.829  0.00  0.00    +0.000 A 
ATOM     18  F   UNL     1      99.161 130.246  83.839  0.00  0.00    +0.000 F 
ENDBRANCH  11  14
ENDBRANCH   1  11
TORSDOF 3
ENDMDL
