MODEL 1
REMARK VINA RESULT:      -4.3      0.000      0.000
REMARK  Name = *****
REMARK  3 active torsions:
REMARK  status: ('A' for Active; 'I' for Inactive)
REMARK    1  A    between atoms: C_4  and  C_7
REMARK    2  A    between atoms: C_7  and  O_8
REMARK    3  A    between atoms: O_8  and  C_9
REMARK                            x       y       z     vdW  Elec       q    Type
REMARK                         _______ _______ _______ _____ _____    ______ ____
ROOT
ATOM      1  O   UNL     1     103.040 126.153  82.584  0.00  0.00    +0.000 OA
ENDROOT
BRANCH   1   2
ATOM      2  C   UNL     1     103.867 125.469  81.729  0.00  0.00    +0.000 A 
ATOM      3  C   UNL     1     104.360 124.207  82.082  0.00  0.00    +0.000 A 
ATOM      4  C   UNL     1     105.170 123.494  81.194  0.00  0.00    +0.000 A 
ATOM      5  C   UNL     1     105.477 124.029  79.942  0.00  0.00    +0.000 A 
ATOM      6  C   UNL     1     104.965 125.272  79.574  0.00  0.00    +0.000 A 
ATOM      7  C   UNL     1     104.153 125.987  80.459  0.00  0.00    +0.000 A 
ATOM      8 CL   UNL     1     103.521 127.508  79.938  0.00  0.00    +0.000 Cl
ATOM      9 CL   UNL     1     103.990 123.484  83.606  0.00  0.00    +0.000 Cl
ENDBRANCH   1   2
BRANCH   1  10
ATOM     10  C   UNL     1     101.667 125.858  82.300  0.00  0.00    +0.000 C 
BRANCH  10  14
ATOM     11  C   UNL     1      99.298 129.254  83.508  0.00  0.00    +0.000 A 
ATOM     12  C   UNL     1     100.675 129.249  83.724  0.00  0.00    +0.000 A 
ATOM     13  C   UNL     1     101.439 128.150  83.332  0.00  0.00    +0.000 A 
ATOM     14  C   UNL     1     100.833 127.041  82.724  0.00  0.00    +0.000 A 
ATOM     15  C   UNL     1      99.450 127.061  82.501  0.00  0.00    +0.000 A 
ATOM     16  C   UNL     1      98.686 128.161  82.895  0.00  0.00    +0.000 A 
ENDBRANCH  10  14
ENDBRANCH   1  10
TORSDOF 3
ENDMDL
