MODEL 1
REMARK VINA RESULT:      -4.6      0.000      0.000
REMARK  Name = *****
REMARK  4 active torsions:
REMARK  status: ('A' for Active; 'I' for Inactive)
REMARK    1  A    between atoms: C_1  and  N_2
REMARK    2  A    between atoms: C_5  and  C_8
REMARK    3  A    between atoms: C_8  and  C_9
REMARK    4  A    between atoms: C_9  and  C_10
REMARK                            x       y       z     vdW  Elec       q    Type
REMARK                         _______ _______ _______ _____ _____    ______ ____
ROOT
ATOM      1  C   UNL     1     102.741 126.053  81.347  0.00  0.00    +0.000 C 
ENDROOT
BRANCH   1   6
ATOM      2  C   UNL     1     104.734 121.740  80.743  0.00  0.00    +0.000 C 
ATOM      3  N   UNL     1     105.700 122.823  80.925  0.00  0.00    +0.000 N 
ATOM      4  C   UNL     1     105.562 123.465  82.241  0.00  0.00    +0.000 C 
ATOM      5  C   UNL     1     104.253 124.258  82.431  0.00  0.00    +0.000 C 
ATOM      6  C   UNL     1     103.870 125.060  81.208  0.00  0.00    +0.000 C 
ATOM      7  C   UNL     1     104.505 124.848  80.041  0.00  0.00    +0.000 C 
ATOM      8  C   UNL     1     105.595 123.826  79.856  0.00  0.00    +0.000 C 
ATOM      9  H   UNL     1     106.627 122.398  80.877  0.00  0.00    +0.000 HD
ENDBRANCH   1   6
BRANCH   1  10
ATOM     10  C   UNL     1     102.003 125.923  82.686  0.00  0.00    +0.000 C 
BRANCH  10  11
ATOM     11  C   UNL     1     100.946 126.995  82.858  0.00  0.00    +0.000 A 
ATOM     12  C   UNL     1     101.210 128.245  83.455  0.00  0.00    +0.000 A 
ATOM     13  C   UNL     1     100.174 129.185  83.596  0.00  0.00    +0.000 A 
ATOM     14  C   UNL     1      98.884 128.885  83.151  0.00  0.00    +0.000 A 
ATOM     15  C   UNL     1      98.617 127.651  82.565  0.00  0.00    +0.000 A 
ATOM     16  C   UNL     1      99.639 126.712  82.423  0.00  0.00    +0.000 A 
ATOM     17 CL   UNL     1     100.417 130.740  84.317  0.00  0.00    +0.000 Cl
ATOM     18 CL   UNL     1     102.812 128.619  84.012  0.00  0.00    +0.000 Cl
ENDBRANCH  10  11
ENDBRANCH   1  10
TORSDOF 3
ENDMDL
