MODEL 1
REMARK VINA RESULT:      -4.3      0.000      0.000
REMARK  Name = *****
REMARK  5 active torsions:
REMARK  status: ('A' for Active; 'I' for Inactive)
REMARK    1  A    between atoms: C_1  and  C_2
REMARK    2  A    between atoms: C_2  and  C_4
REMARK    3  A    between atoms: C_5  and  S_11
REMARK    4  A    between atoms: S_11  and  C_12
REMARK    5  A    between atoms: C_12  and  C_13
REMARK                            x       y       z     vdW  Elec       q    Type
REMARK                         _______ _______ _______ _____ _____    ______ ____
ROOT
ATOM      1  C   UNL     1      88.618  66.302  87.004  0.00  0.00    +0.000 A 
ATOM      2  C   UNL     1      87.615  67.288  86.958  0.00  0.00    +0.000 A 
ATOM      3  C   UNL     1      86.549  67.200  87.869  0.00  0.00    +0.000 A 
ATOM      4  C   UNL     1      86.489  66.167  88.809  0.00  0.00    +0.000 A 
ATOM      5  C   UNL     1      87.486  65.197  88.837  0.00  0.00    +0.000 A 
ATOM      6  C   UNL     1      88.543  65.254  87.936  0.00  0.00    +0.000 A 
ATOM      7 CL   UNL     1      87.404  63.922  89.987  0.00  0.00    +0.000 Cl
ENDROOT
BRANCH   1   9
ATOM      8  C   UNL     1      89.703  65.478  84.817  0.00  0.00    +0.000 C 
ATOM      9  C   UNL     1      89.790  66.270  86.096  0.00  0.00    +0.000 C 
ATOM     10  O   UNL     1      90.772  66.956  86.369  0.00  0.00    +0.000 OA
ENDBRANCH   1   9
BRANCH   2  11
ATOM     11  S   UNL     1      87.563  68.583  85.724  0.00  0.00    +0.000 S 
BRANCH  11  12
ATOM     12  C   UNL     1      88.650  69.818  86.514  0.00  0.00    +0.000 C 
BRANCH  12  13
ATOM     13  C   UNL     1      87.966  70.487  87.678  0.00  0.00    +0.000 A 
ATOM     14  C   UNL     1      88.584  70.536  88.937  0.00  0.00    +0.000 A 
ATOM     15  C   UNL     1      87.944  71.146  90.017  0.00  0.00    +0.000 A 
ATOM     16  C   UNL     1      86.680  71.709  89.853  0.00  0.00    +0.000 A 
ATOM     17  C   UNL     1      86.052  71.659  88.610  0.00  0.00    +0.000 A 
ATOM     18  C   UNL     1      86.689  71.049  87.528  0.00  0.00    +0.000 A 
ENDBRANCH  12  13
ENDBRANCH  11  12
ENDBRANCH   2  11
TORSDOF 4
ENDMDL
