MODEL 1
REMARK VINA RESULT:      -5.1      0.000      0.000
REMARK  Name = *****
REMARK  5 active torsions:
REMARK  status: ('A' for Active; 'I' for Inactive)
REMARK    1  A    between atoms: C_1  and  C_2
REMARK    2  A    between atoms: C_3  and  C_20
REMARK    3  A    between atoms: C_5  and  O_8
REMARK    4  A    between atoms: O_8  and  C_9
REMARK    5  A    between atoms: C_9  and  C_11
REMARK                            x       y       z     vdW  Elec       q    Type
REMARK                         _______ _______ _______ _____ _____    ______ ____
ROOT
ATOM      1  C   UNL     1     103.142 125.013  82.245  0.00  0.00    +0.000 C 
ATOM      2  O   UNL     1     103.156 124.668  83.417  0.00  0.00    +0.000 OA
ENDROOT
BRANCH   1   3
ATOM      3  C   UNL     1     104.203 124.609  81.295  0.00  0.00    +0.000 A 
ATOM      4  C   UNL     1     104.773 123.335  81.295  0.00  0.00    +0.000 A 
ATOM      5  C   UNL     1     105.765 123.012  80.373  0.00  0.00    +0.000 A 
ATOM      6  C   UNL     1     106.187 123.954  79.444  0.00  0.00    +0.000 A 
ATOM      7  C   UNL     1     105.622 125.225  79.419  0.00  0.00    +0.000 A 
ATOM      8  C   UNL     1     104.627 125.553  80.342  0.00  0.00    +0.000 A 
ATOM      9  F   UNL     1     107.142 123.643  78.557  0.00  0.00    +0.000 F 
ATOM     10  F   UNL     1     106.310 121.787  80.379  0.00  0.00    +0.000 F 
ATOM     11  F   UNL     1     104.367 122.389  82.155  0.00  0.00    +0.000 F 
ENDBRANCH   1   3
BRANCH   1  12
ATOM     12  O   UNL     1     102.160 125.724  81.586  0.00  0.00    +0.000 OA
BRANCH  12  17
ATOM     13  C   UNL     1      99.396 129.860  84.367  0.00  0.00    +0.000 C 
ATOM     14  C   UNL     1     100.115 128.755  83.641  0.00  0.00    +0.000 A 
ATOM     15  C   UNL     1      99.413 127.667  83.080  0.00  0.00    +0.000 A 
ATOM     16  C   UNL     1     100.128 126.659  82.414  0.00  0.00    +0.000 A 
ATOM     17  C   UNL     1     101.516 126.733  82.317  0.00  0.00    +0.000 A 
ATOM     18  C   UNL     1     102.214 127.816  82.839  0.00  0.00    +0.000 A 
ATOM     19  C   UNL     1     101.512 128.819  83.508  0.00  0.00    +0.000 A 
ATOM     20  C   UNL     1      97.916 127.560  83.184  0.00  0.00    +0.000 C 
ENDBRANCH  12  17
ENDBRANCH   1  12
TORSDOF 3
ENDMDL
