MODEL 1
REMARK VINA RESULT:      -4.7      0.000      0.000
REMARK  Name = *****
REMARK  4 active torsions:
REMARK  status: ('A' for Active; 'I' for Inactive)
REMARK    1  A    between atoms: C_1  and  C_2
REMARK    2  A    between atoms: C_7  and  O_8
REMARK    3  A    between atoms: O_8  and  C_9
REMARK    4  A    between atoms: C_9  and  C_11
REMARK                            x       y       z     vdW  Elec       q    Type
REMARK                         _______ _______ _______ _____ _____    ______ ____
ROOT
ATOM      1  C   UNL     1     103.074 126.558  81.870  0.00  0.00    +0.000 C 
ATOM      2  O   UNL     1     103.047 127.242  80.859  0.00  0.00    +0.000 OA
ENDROOT
BRANCH   1   3
ATOM      3  C   UNL     1     103.659 125.188  81.904  0.00  0.00    +0.000 A 
ATOM      4  C   UNL     1     104.141 124.545  80.758  0.00  0.00    +0.000 A 
ATOM      5  C   UNL     1     104.672 123.263  80.867  0.00  0.00    +0.000 A 
ATOM      6  C   UNL     1     104.734 122.607  82.092  0.00  0.00    +0.000 A 
ATOM      7  C   UNL     1     104.256 123.241  83.237  0.00  0.00    +0.000 A 
ATOM      8  C   UNL     1     103.718 124.528  83.143  0.00  0.00    +0.000 A 
ATOM      9  F   UNL     1     105.132 122.649  79.770  0.00  0.00    +0.000 F 
ENDBRANCH   1   3
BRANCH   1  10
ATOM     10  O   UNL     1     102.582 126.882  83.119  0.00  0.00    +0.000 OA
BRANCH  10  17
ATOM     11  C   UNL     1     102.018 129.505  84.188  0.00  0.00    +0.000 C 
ATOM     12  C   UNL     1     100.968 128.636  83.563  0.00  0.00    +0.000 A 
ATOM     13  C   UNL     1      99.640 129.077  83.483  0.00  0.00    +0.000 A 
ATOM     14  C   UNL     1      98.654 128.266  82.914  0.00  0.00    +0.000 A 
ATOM     15  C   UNL     1      98.979 127.002  82.420  0.00  0.00    +0.000 A 
ATOM     16  C   UNL     1     100.291 126.541  82.504  0.00  0.00    +0.000 A 
ATOM     17  C   UNL     1     101.264 127.351  83.090  0.00  0.00    +0.000 A 
ENDBRANCH  10  17
ENDBRANCH   1  10
TORSDOF 3
ENDMDL
