REMARK  Name = *****
REMARK  2 active torsions:
REMARK  status: ('A' for Active; 'I' for Inactive)
REMARK    1  A    between atoms: C_3  and  N_8
REMARK    2  A    between atoms: C_9  and  C_10
REMARK                            x       y       z     vdW  Elec       q    Type
REMARK                         _______ _______ _______ _____ _____    ______ ____
ROOT
ATOM      1  N   UNL     1      -1.877   2.484   0.509  0.00  0.00    +0.000 NA
ATOM      2  C   UNL     1      -1.474   3.510  -0.172  0.00  0.00    +0.000 C 
ENDROOT
BRANCH   2   3
ATOM      3  C   UNL     1      -2.111   4.833  -0.028  0.00  0.00    +0.000 A 
ATOM      4  C   UNL     1      -1.626   5.902  -0.785  0.00  0.00    +0.000 A 
ATOM      5  C   UNL     1      -2.217   7.164  -0.662  0.00  0.00    +0.000 A 
ATOM      6  C   UNL     1      -3.292   7.354   0.217  0.00  0.00    +0.000 A 
ATOM      7  C   UNL     1      -3.772   6.279   0.972  0.00  0.00    +0.000 A 
ATOM      8  C   UNL     1      -3.183   5.019   0.851  0.00  0.00    +0.000 A 
ATOM      9 CL   UNL     1      -4.067   8.885   0.415  0.00  0.00    +0.000 Cl
ATOM     10 CL   UNL     1      -1.572   8.446  -1.625  0.00  0.00    +0.000 Cl
ENDBRANCH   2   3
BRANCH   1  13
ATOM     11  C   UNL     1      -1.026  -0.858  -0.852  0.00  0.00    +0.000 A 
ATOM     12  C   UNL     1      -1.695   0.348  -0.626  0.00  0.00    +0.000 A 
ATOM     13  C   UNL     1      -1.186   1.286   0.280  0.00  0.00    +0.000 A 
ATOM     14  C   UNL     1      -0.015   0.996   0.981  0.00  0.00    +0.000 A 
ATOM     15  C   UNL     1       0.644  -0.206   0.750  0.00  0.00    +0.000 A 
ATOM     16  C   UNL     1       0.152  -1.134  -0.161  0.00  0.00    +0.000 A 
ATOM     17  F   UNL     1       1.774  -0.476   1.418  0.00  0.00    +0.000 F 
ENDBRANCH   1  13
TORSDOF 2
