MODEL 1
REMARK VINA RESULT:      -4.9      0.000      0.000
REMARK  Name = *****
REMARK  3 active torsions:
REMARK  status: ('A' for Active; 'I' for Inactive)
REMARK    1  A    between atoms: C_3  and  C_8
REMARK    2  A    between atoms: C_8  and  C_9
REMARK    3  A    between atoms: C_9  and  C_11
REMARK                            x       y       z     vdW  Elec       q    Type
REMARK                         _______ _______ _______ _____ _____    ______ ____
ROOT
ATOM      1  C   UNL     1     103.310 126.847  81.544  0.00  0.00    +0.000 C 
ATOM      2  O   UNL     1     103.265 127.468  80.480  0.00  0.00    +0.000 OA
ENDROOT
BRANCH   1   3
ATOM      3  C   UNL     1     103.801 125.434  81.541  0.00  0.00    +0.000 A 
ATOM      4  C   UNL     1     104.267 124.790  80.387  0.00  0.00    +0.000 A 
ATOM      5  C   UNL     1     104.723 123.469  80.452  0.00  0.00    +0.000 A 
ATOM      6  C   UNL     1     104.711 122.786  81.667  0.00  0.00    +0.000 A 
ATOM      7  C   UNL     1     104.244 123.409  82.820  0.00  0.00    +0.000 A 
ATOM      8  C   UNL     1     103.788 124.729  82.755  0.00  0.00    +0.000 A 
ATOM      9 BR   UNL     1     105.333 121.003  81.747  0.00  0.00    +0.000 Br
ENDBRANCH   1   3
BRANCH   1  10
ATOM     10  C   UNL     1     102.872 127.497  82.844  0.00  0.00    +0.000 C 
BRANCH  10  13
ATOM     11  C   UNL     1      99.471 129.071  83.580  0.00  0.00    +0.000 A 
ATOM     12  C   UNL     1     100.852 128.875  83.501  0.00  0.00    +0.000 A 
ATOM     13  C   UNL     1     101.380 127.696  82.948  0.00  0.00    +0.000 A 
ATOM     14  C   UNL     1     100.495 126.728  82.456  0.00  0.00    +0.000 A 
ATOM     15  C   UNL     1      99.120 126.935  82.542  0.00  0.00    +0.000 A 
ATOM     16  C   UNL     1      98.601 128.095  83.100  0.00  0.00    +0.000 A 
ATOM     17  F   UNL     1      98.285 125.996  82.075  0.00  0.00    +0.000 F 
ENDBRANCH  10  13
ENDBRANCH   1  10
TORSDOF 3
ENDMDL
