MODEL 1
REMARK VINA RESULT:      -4.4      0.000      0.000
REMARK  Name = *****
REMARK  4 active torsions:
REMARK  status: ('A' for Active; 'I' for Inactive)
REMARK    1  A    between atoms: C_4  and  N_7
REMARK    2  A    between atoms: C_4  and  O_9
REMARK    3  A    between atoms: O_9  and  C_10
REMARK    4  A    between atoms: C_10  and  C_12
REMARK                            x       y       z     vdW  Elec       q    Type
REMARK                         _______ _______ _______ _____ _____    ______ ____
ROOT
ATOM      1  O   UNL     1     100.516 126.410  83.349  0.00  0.00    +0.000 OA
ENDROOT
BRANCH   1   5
ATOM      2  C   UNL     1      98.634 129.691  85.228  0.00  0.00    +0.000 C 
ATOM      3  C   UNL     1      99.255 129.983  83.869  0.00  0.00    +0.000 C 
ATOM      4  C   UNL     1     100.167 128.846  83.403  0.00  0.00    +0.000 C 
ATOM      5  C   UNL     1      99.496 127.450  83.404  0.00  0.00    +0.000 C 
ATOM      6  C   UNL     1      98.812 127.219  84.777  0.00  0.00    +0.000 C 
ATOM      7  C   UNL     1      97.899 128.358  85.229  0.00  0.00    +0.000 C 
BRANCH   5   8
ATOM      8  N   UNL     1      98.405 127.417  82.347  0.00  0.00    +0.000 NA
ATOM      9  O   UNL     1      97.786 126.346  82.340  0.00  0.00    +0.000 OA
ENDBRANCH   5   8
ENDBRANCH   1   5
BRANCH   1  10
ATOM     10  C   UNL     1     101.799 126.747  83.606  0.00  0.00    +0.000 C 
ATOM     11  O   UNL     1     102.274 127.027  84.694  0.00  0.00    +0.000 OA
BRANCH  10  12
ATOM     12  C   UNL     1     102.605 126.699  82.355  0.00  0.00    +0.000 A 
ATOM     13  C   UNL     1     103.251 127.873  81.940  0.00  0.00    +0.000 A 
ATOM     14  C   UNL     1     104.027 127.878  80.779  0.00  0.00    +0.000 A 
ATOM     15  C   UNL     1     104.163 126.712  80.027  0.00  0.00    +0.000 A 
ATOM     16  C   UNL     1     103.521 125.542  80.430  0.00  0.00    +0.000 A 
ATOM     17  C   UNL     1     102.743 125.532  81.590  0.00  0.00    +0.000 A 
ENDBRANCH  10  12
ENDBRANCH   1  10
TORSDOF 4
ENDMDL
