MODEL 1
REMARK VINA RESULT:      -4.4      0.000      0.000
REMARK  Name = *****
REMARK  4 active torsions:
REMARK  status: ('A' for Active; 'I' for Inactive)
REMARK    1  A    between atoms: C_1  and  C_2
REMARK    2  A    between atoms: C_2  and  S_4
REMARK    3  A    between atoms: S_4  and  C_5
REMARK    4  A    between atoms: C_10  and  C_11
REMARK                            x       y       z     vdW  Elec       q    Type
REMARK                         _______ _______ _______ _____ _____    ______ ____
ROOT
ATOM      1  C   UNL     1      87.309  69.709  87.057  0.00  0.00    +0.000 C 
ATOM      2  C   UNL     1      86.949  69.894  85.565  0.00  0.00    +0.000 C 
ATOM      3  C   UNL     1      87.904  70.765  84.798  0.00  0.00    +0.000 C 
ATOM      4  C   UNL     1      89.105  71.134  85.264  0.00  0.00    +0.000 C 
ATOM      5  C   UNL     1      89.640  70.696  86.597  0.00  0.00    +0.000 C 
ATOM      6  C   UNL     1      88.835  69.564  87.271  0.00  0.00    +0.000 C 
ENDROOT
BRANCH   6   7
ATOM      7  C   UNL     1      89.327  68.219  86.815  0.00  0.00    +0.000 A 
ATOM      8  N   UNL     1      90.423  67.908  86.147  0.00  0.00    +0.000 NA
ATOM      9  C   UNL     1      90.336  66.548  85.992  0.00  0.00    +0.000 A 
ATOM     10  C   UNL     1      91.199  65.632  85.376  0.00  0.00    +0.000 A 
ATOM     11  C   UNL     1      90.834  64.277  85.376  0.00  0.00    +0.000 A 
ATOM     12  C   UNL     1      89.640  63.848  85.972  0.00  0.00    +0.000 A 
ATOM     13  C   UNL     1      88.768  64.752  86.590  0.00  0.00    +0.000 A 
ATOM     14  C   UNL     1      89.166  66.083  86.569  0.00  0.00    +0.000 A 
ATOM     15  O   UNL     1      88.506  67.155  87.094  0.00  0.00    +0.000 OA
ENDBRANCH   6   7
BRANCH   1  16
ATOM     16  S   UNL     1      86.693  71.141  88.061  0.00  0.00    +0.000 S 
BRANCH  16  18
ATOM     17  C   UNL     1      88.366  71.622  90.176  0.00  0.00    +0.000 C 
ATOM     18  C   UNL     1      87.306  70.697  89.650  0.00  0.00    +0.000 C 
ATOM     19  O   UNL     1      86.908  69.715  90.263  0.00  0.00    +0.000 OA
ENDBRANCH  16  18
ENDBRANCH   1  16
TORSDOF 3
ENDMDL
