MODEL 1
REMARK VINA RESULT:      -4.6      0.000      0.000
REMARK  Name = *****
REMARK  3 active torsions:
REMARK  status: ('A' for Active; 'I' for Inactive)
REMARK    1  A    between atoms: C_1  and  C_2
REMARK    2  A    between atoms: C_7  and  C_8
REMARK    3  A    between atoms: C_8  and  N_9
REMARK                            x       y       z     vdW  Elec       q    Type
REMARK                         _______ _______ _______ _____ _____    ______ ____
ROOT
ATOM      1  N   UNL     1      88.610  65.286  86.779  0.00  0.00    +0.000 N 
ATOM      2  C   UNL     1      88.640  66.693  86.894  0.00  0.00    +0.000 A 
ATOM      3  C   UNL     1      87.745  67.497  87.587  0.00  0.00    +0.000 A 
ATOM      4  C   UNL     1      87.944  68.882  87.584  0.00  0.00    +0.000 A 
ATOM      5  C   UNL     1      89.026  69.447  86.896  0.00  0.00    +0.000 A 
ATOM      6  C   UNL     1      89.922  68.636  86.199  0.00  0.00    +0.000 A 
ATOM      7  C   UNL     1      89.713  67.265  86.208  0.00  0.00    +0.000 A 
ATOM      8  S   UNL     1      90.690  66.024  85.414  0.00  0.00    +0.000 S 
ATOM      9  C   UNL     1      89.634  64.737  86.023  0.00  0.00    +0.000 A 
ATOM     10  O   UNL     1      89.827  63.556  85.780  0.00  0.00    +0.000 OA
ENDROOT
BRANCH   1  11
ATOM     11  C   UNL     1      87.605  64.450  87.410  0.00  0.00    +0.000 C 
BRANCH  11  18
ATOM     12  C   UNL     1      85.343  65.211  89.254  0.00  0.00    +0.000 C 
ATOM     13  C   UNL     1      86.666  64.720  89.781  0.00  0.00    +0.000 A 
ATOM     14  C   UNL     1      86.838  64.621  91.171  0.00  0.00    +0.000 A 
ATOM     15  C   UNL     1      88.048  64.194  91.716  0.00  0.00    +0.000 A 
ATOM     16  C   UNL     1      89.106  63.866  90.878  0.00  0.00    +0.000 A 
ATOM     17  C   UNL     1      88.950  63.952  89.494  0.00  0.00    +0.000 A 
ATOM     18  C   UNL     1      87.727  64.352  88.922  0.00  0.00    +0.000 A 
ENDBRANCH  11  18
ENDBRANCH   1  11
TORSDOF 2
ENDMDL
