MODEL 1
REMARK VINA RESULT:      -4.5      0.000      0.000
REMARK  Name = *****
REMARK  4 active torsions:
REMARK  status: ('A' for Active; 'I' for Inactive)
REMARK    1  A    between atoms: C_1  and  C_2
REMARK    2  A    between atoms: C_5  and  C_8
REMARK    3  A    between atoms: C_9  and  C_10
REMARK    4  A    between atoms: C_13  and  C_16
REMARK                            x       y       z     vdW  Elec       q    Type
REMARK                         _______ _______ _______ _____ _____    ______ ____
ROOT
ATOM      1  C   UNL     1     100.948 128.359  83.402  0.00  0.00    +0.000 C 
ATOM      2  C   UNL     1     101.725 127.759  82.709  0.00  0.00    +0.000 C 
ENDROOT
BRANCH   1   7
ATOM      3  C   UNL     1      97.140 131.210  86.609  0.00  0.00    +0.000 C 
ATOM      4  C   UNL     1      98.157 130.473  85.788  0.00  0.00    +0.000 A 
ATOM      5  C   UNL     1      99.055 131.164  84.966  0.00  0.00    +0.000 A 
ATOM      6  C   UNL     1      99.980 130.467  84.185  0.00  0.00    +0.000 A 
ATOM      7  C   UNL     1     100.011 129.072  84.214  0.00  0.00    +0.000 A 
ATOM      8  C   UNL     1      99.116 128.375  85.026  0.00  0.00    +0.000 A 
ATOM      9  C   UNL     1      98.191 129.072  85.808  0.00  0.00    +0.000 A 
ENDBRANCH   1   7
BRANCH   2  10
ATOM     10  C   UNL     1     102.638 127.045  81.871  0.00  0.00    +0.000 A 
ATOM     11  C   UNL     1     102.656 125.649  81.888  0.00  0.00    +0.000 A 
ATOM     12  C   UNL     1     103.557 124.949  81.080  0.00  0.00    +0.000 A 
ATOM     13  C   UNL     1     104.442 125.647  80.250  0.00  0.00    +0.000 A 
ATOM     14  C   UNL     1     104.420 127.046  80.232  0.00  0.00    +0.000 A 
ATOM     15  C   UNL     1     103.519 127.744  81.042  0.00  0.00    +0.000 A 
BRANCH  13  16
ATOM     16  C   UNL     1     105.371 124.932  79.424  0.00  0.00    +0.000 C 
ATOM     17  N   UNL     1     106.124 124.352  78.758  0.00  0.00    +0.000 NA
ENDBRANCH  13  16
ENDBRANCH   2  10
TORSDOF 3
ENDMDL
