MODEL 1
REMARK VINA RESULT:      -4.6      0.000      0.000
REMARK  Name = *****
REMARK  6 active torsions:
REMARK  status: ('A' for Active; 'I' for Inactive)
REMARK    1  A    between atoms: C_1  and  C_2
REMARK    2  A    between atoms: C_5  and  S_8
REMARK    3  A    between atoms: S_8  and  C_9
REMARK    4  A    between atoms: C_9  and  C_11
REMARK    5  A    between atoms: C_14  and  O_17
REMARK    6  A    between atoms: O_17  and  C_18
REMARK                            x       y       z     vdW  Elec       q    Type
REMARK                         _______ _______ _______ _____ _____    ______ ____
ROOT
ATOM      1  C   UNL     1     102.802 128.178  83.154  0.00  0.00    +0.000 C 
ATOM      2  O   UNL     1     103.296 128.542  84.215  0.00  0.00    +0.000 OA
ENDROOT
BRANCH   1   3
ATOM      3  C   UNL     1     101.324 127.945  83.057  0.00  0.00    +0.000 A 
ATOM      4  C   UNL     1     100.467 128.911  83.607  0.00  0.00    +0.000 A 
ATOM      5  C   UNL     1      99.074 128.748  83.564  0.00  0.00    +0.000 A 
ATOM      6  C   UNL     1      98.520 127.616  82.968  0.00  0.00    +0.000 A 
ATOM      7  C   UNL     1      99.365 126.666  82.395  0.00  0.00    +0.000 A 
ATOM      8  C   UNL     1     100.756 126.823  82.438  0.00  0.00    +0.000 A 
BRANCH   6   9
ATOM      9  O   UNL     1      97.188 127.328  82.868  0.00  0.00    +0.000 OA
ATOM     10  C   UNL     1      96.708 126.242  83.649  0.00  0.00    +0.000 C 
ENDBRANCH   6   9
ENDBRANCH   1   3
BRANCH   1  11
ATOM     11  S   UNL     1     103.753 127.948  81.695  0.00  0.00    +0.000 S 
BRANCH  11  16
ATOM     12  C   UNL     1     104.883 122.022  80.753  0.00  0.00    +0.000 C 
ATOM     13  C   UNL     1     104.632 123.475  81.029  0.00  0.00    +0.000 A 
ATOM     14  C   UNL     1     104.339 123.920  82.322  0.00  0.00    +0.000 A 
ATOM     15  C   UNL     1     104.074 125.273  82.571  0.00  0.00    +0.000 A 
ATOM     16  C   UNL     1     104.101 126.209  81.537  0.00  0.00    +0.000 A 
ATOM     17  C   UNL     1     104.370 125.751  80.239  0.00  0.00    +0.000 A 
ATOM     18  C   UNL     1     104.626 124.400  79.984  0.00  0.00    +0.000 A 
ENDBRANCH  11  16
ENDBRANCH   1  11
TORSDOF 4
ENDMDL
