MODEL 1
REMARK VINA RESULT:      -4.5      0.000      0.000
REMARK  Name = *****
REMARK  4 active torsions:
REMARK  status: ('A' for Active; 'I' for Inactive)
REMARK    1  A    between atoms: C_2  and  C_9
REMARK    2  A    between atoms: C_9  and  N_10
REMARK    3  A    between atoms: N_10  and  O_11
REMARK    4  A    between atoms: O_11  and  C_12
REMARK                            x       y       z     vdW  Elec       q    Type
REMARK                         _______ _______ _______ _____ _____    ______ ____
ROOT
ATOM      1  N   UNL     1     102.821 126.263  84.897  0.00  0.00    +0.000 NA
ENDROOT
BRANCH   1   2
ATOM      2  C   UNL     1     102.015 127.220  85.223  0.00  0.00    +0.000 C 
BRANCH   2   4
ATOM      3  C   UNL     1     100.185 126.674  83.614  0.00  0.00    +0.000 A 
ATOM      4  C   UNL     1     100.894 127.622  84.355  0.00  0.00    +0.000 A 
ATOM      5  C   UNL     1     100.550 128.974  84.283  0.00  0.00    +0.000 A 
ATOM      6  C   UNL     1      99.493 129.361  83.464  0.00  0.00    +0.000 A 
ATOM      7  C   UNL     1      98.778 128.432  82.720  0.00  0.00    +0.000 A 
ATOM      8  C   UNL     1      99.134 127.092  82.803  0.00  0.00    +0.000 A 
ATOM      9  F   UNL     1      98.452 126.186  82.091  0.00  0.00    +0.000 F 
ATOM     10  F   UNL     1      99.162 130.656  83.393  0.00  0.00    +0.000 F 
ENDBRANCH   2   4
ENDBRANCH   1   2
BRANCH   1  11
ATOM     11  O   UNL     1     103.859 126.794  84.120  0.00  0.00    +0.000 OA
BRANCH  11  12
ATOM     12  C   UNL     1     103.820 126.303  82.835  0.00  0.00    +0.000 A 
ATOM     13  C   UNL     1     103.568 127.244  81.834  0.00  0.00    +0.000 A 
ATOM     14  C   UNL     1     103.520 126.842  80.504  0.00  0.00    +0.000 A 
ATOM     15  C   UNL     1     103.724 125.516  80.147  0.00  0.00    +0.000 A 
ATOM     16  C   UNL     1     103.981 124.590  81.148  0.00  0.00    +0.000 A 
ATOM     17  C   UNL     1     104.034 124.967  82.488  0.00  0.00    +0.000 A 
ATOM     18  F   UNL     1     104.186 123.307  80.819  0.00  0.00    +0.000 F 
ATOM     19  F   UNL     1     103.274 127.749  79.550  0.00  0.00    +0.000 F 
ENDBRANCH  11  12
ENDBRANCH   1  11
TORSDOF 4
ENDMDL
