MODEL 1
REMARK VINA RESULT:      -3.8      0.000      0.000
REMARK  Name = *****
REMARK  5 active torsions:
REMARK  status: ('A' for Active; 'I' for Inactive)
REMARK    1  A    between atoms: C_1  and  C_2
REMARK    2  A    between atoms: C_2  and  C_8
REMARK    3  A    between atoms: C_8  and  O_10
REMARK    4  A    between atoms: O_10  and  C_11
REMARK    5  A    between atoms: C_11  and  C_12
REMARK                            x       y       z     vdW  Elec       q    Type
REMARK                         _______ _______ _______ _____ _____    ______ ____
ROOT
ATOM      1  C   UNL     1     103.137 124.922  82.886  0.00  0.00    +0.000 C 
ATOM      2  O   UNL     1     102.795 124.980  84.064  0.00  0.00    +0.000 OA
ENDROOT
BRANCH   1   4
ATOM      3  C   UNL     1     104.620 122.928  83.105  0.00  0.00    +0.000 C 
ATOM      4  C   UNL     1     104.454 124.269  82.376  0.00  0.00    +0.000 C 
ATOM      5  C   UNL     1     104.316 124.003  80.880  0.00  0.00    +0.000 C 
ATOM      6  C   UNL     1     105.136 124.512  79.946  0.00  0.00    +0.000 C 
ATOM      7  C   UNL     1     106.303 125.402  80.262  0.00  0.00    +0.000 C 
ATOM      8  C   UNL     1     106.472 125.662  81.731  0.00  0.00    +0.000 C 
ATOM      9  C   UNL     1     105.657 125.159  82.674  0.00  0.00    +0.000 C 
ENDBRANCH   1   4
BRANCH   1  10
ATOM     10  O   UNL     1     102.450 125.510  81.861  0.00  0.00    +0.000 OA
BRANCH  10  11
ATOM     11  C   UNL     1     102.035 126.862  82.079  0.00  0.00    +0.000 C 
BRANCH  11  12
ATOM     12  C   UNL     1     103.179 127.788  81.763  0.00  0.00    +0.000 A 
ATOM     13  C   UNL     1     103.683 127.879  80.458  0.00  0.00    +0.000 A 
ATOM     14  C   UNL     1     104.761 128.720  80.173  0.00  0.00    +0.000 A 
ATOM     15  C   UNL     1     105.350 129.469  81.190  0.00  0.00    +0.000 A 
ATOM     16  C   UNL     1     104.865 129.376  82.494  0.00  0.00    +0.000 A 
ATOM     17  C   UNL     1     103.788 128.537  82.780  0.00  0.00    +0.000 A 
ENDBRANCH  11  12
ENDBRANCH  10  11
ENDBRANCH   1  10
TORSDOF 4
ENDMDL
