REMARK  Name = *****
REMARK  4 active torsions:
REMARK  status: ('A' for Active; 'I' for Inactive)
REMARK    1  A    between atoms: C_1  and  C_2
REMARK    2  A    between atoms: C_5  and  C_8
REMARK    3  A    between atoms: C_9  and  C_10
REMARK    4  A    between atoms: C_9  and  C_12
REMARK                            x       y       z     vdW  Elec       q    Type
REMARK                         _______ _______ _______ _____ _____    ______ ____
ROOT
ATOM      1  C   UNL     1      -3.221   0.012  -0.067  0.00  0.00    +0.000 C 
ATOM      2  C   UNL     1      -3.991   0.268  -1.147  0.00  0.00    +0.000 C 
ENDROOT
BRANCH   1   7
ATOM      3  C   UNL     1       2.550  -0.301   0.018  0.00  0.00    +0.000 C 
ATOM      4  C   UNL     1       1.053  -0.209   0.027  0.00  0.00    +0.000 A 
ATOM      5  C   UNL     1       0.417   1.013  -0.221  0.00  0.00    +0.000 A 
ATOM      6  C   UNL     1      -0.977   1.094  -0.251  0.00  0.00    +0.000 A 
ATOM      7  C   UNL     1      -1.754  -0.051  -0.051  0.00  0.00    +0.000 A 
ATOM      8  C   UNL     1      -1.122  -1.275   0.191  0.00  0.00    +0.000 A 
ATOM      9  C   UNL     1       0.272  -1.354   0.221  0.00  0.00    +0.000 A 
ENDBRANCH   1   7
BRANCH   2  10
ATOM     10  C   UNL     1      -5.435   0.311  -1.067  0.00  0.00    +0.000 A 
ATOM     11  C   UNL     1      -6.273  -0.073  -2.099  0.00  0.00    +0.000 A 
ATOM     12  S   UNL     1      -7.930   0.089  -1.700  0.00  0.00    +0.000 S 
ATOM     13  C   UNL     1      -7.553   0.683  -0.144  0.00  0.00    +0.000 A 
ATOM     14  C   UNL     1      -6.193   0.753   0.068  0.00  0.00    +0.000 A 
ENDBRANCH   2  10
BRANCH   2  15
ATOM     15  C   UNL     1      -3.393   0.498  -2.433  0.00  0.00    +0.000 C 
ATOM     16  N   UNL     1      -2.932   0.687  -3.482  0.00  0.00    +0.000 NA
ENDBRANCH   2  15
TORSDOF 3
