REMARK  Name = *****
REMARK  4 active torsions:
REMARK  status: ('A' for Active; 'I' for Inactive)
REMARK    1  A    between atoms: C_1  and  C_2
REMARK    2  A    between atoms: C_2  and  C_14
REMARK    3  A    between atoms: N_3  and  C_4
REMARK    4  A    between atoms: C_9  and  C_10
REMARK                            x       y       z     vdW  Elec       q    Type
REMARK                         _______ _______ _______ _____ _____    ______ ____
ROOT
ATOM      1  C   UNL     1       1.329   0.158   0.778  0.00  0.00    +0.000 C 
ATOM      2  C   UNL     1       2.651  -0.026   0.058  0.00  0.00    +0.000 C 
ATOM      3  N   UNL     1       3.183  -1.186  -0.210  0.00  0.00    +0.000 NA
ENDROOT
BRANCH   2   4
ATOM      4  C   UNL     1       3.394   1.195  -0.359  0.00  0.00    +0.000 A 
ATOM      5  C   UNL     1       4.795   1.176  -0.340  0.00  0.00    +0.000 A 
ATOM      6  C   UNL     1       5.517   2.308  -0.728  0.00  0.00    +0.000 A 
ATOM      7  C   UNL     1       4.845   3.458  -1.144  0.00  0.00    +0.000 A 
ATOM      8  C   UNL     1       3.451   3.475  -1.178  0.00  0.00    +0.000 A 
ATOM      9  C   UNL     1       2.733   2.345  -0.789  0.00  0.00    +0.000 A 
ATOM     10  F   UNL     1       1.395   2.388  -0.868  0.00  0.00    +0.000 F 
ENDBRANCH   2   4
BRANCH   3  11
ATOM     11  C   UNL     1       2.531  -2.371   0.151  0.00  0.00    +0.000 A 
ATOM     12  C   UNL     1       1.524  -2.879  -0.679  0.00  0.00    +0.000 A 
ATOM     13  C   UNL     1       0.872  -4.072  -0.366  0.00  0.00    +0.000 A 
ATOM     14  C   UNL     1       1.235  -4.778   0.776  0.00  0.00    +0.000 A 
ATOM     15  C   UNL     1       2.253  -4.294   1.598  0.00  0.00    +0.000 A 
ATOM     16  C   UNL     1       2.916  -3.091   1.290  0.00  0.00    +0.000 A 
BRANCH  16  17
ATOM     17  C   UNL     1       4.022  -2.581   2.172  0.00  0.00    +0.000 C 
ATOM     18  F   UNL     1       3.763  -1.352   2.706  0.00  0.00    +0.000 F 
ATOM     19  F   UNL     1       4.255  -3.389   3.251  0.00  0.00    +0.000 F 
ATOM     20  F   UNL     1       5.227  -2.478   1.543  0.00  0.00    +0.000 F 
ENDBRANCH  16  17
ENDBRANCH   3  11
TORSDOF 3
