MODEL 1
REMARK VINA RESULT:      -4.3      0.000      0.000
REMARK  Name = *****
REMARK  3 active torsions:
REMARK  status: ('A' for Active; 'I' for Inactive)
REMARK    1  A    between atoms: C_4  and  O_7
REMARK    2  A    between atoms: O_7  and  C_8
REMARK    3  A    between atoms: C_8  and  C_10
REMARK                            x       y       z     vdW  Elec       q    Type
REMARK                         _______ _______ _______ _____ _____    ______ ____
ROOT
ATOM      1  C   UNL     1     102.661 126.937  83.428  0.00  0.00    +0.000 C 
ATOM      2  O   UNL     1     103.584 127.668  83.752  0.00  0.00    +0.000 OA
ENDROOT
BRANCH   1   3
ATOM      3  C   UNL     1     101.270 127.420  83.223  0.00  0.00    +0.000 A 
ATOM      4  C   UNL     1     100.862 128.708  83.588  0.00  0.00    +0.000 A 
ATOM      5  C   UNL     1      99.546 129.097  83.365  0.00  0.00    +0.000 A 
ATOM      6  C   UNL     1      98.624 128.231  82.787  0.00  0.00    +0.000 A 
ATOM      7  C   UNL     1      99.023 126.946  82.421  0.00  0.00    +0.000 A 
ATOM      8  C   UNL     1     100.343 126.542  82.639  0.00  0.00    +0.000 A 
ATOM      9  F   UNL     1      99.157 130.330  83.715  0.00  0.00    +0.000 F 
ENDBRANCH   1   3
BRANCH   1  10
ATOM     10  O   UNL     1     102.738 125.603  83.204  0.00  0.00    +0.000 OA
BRANCH  10  14
ATOM     11  C   UNL     1     104.913 123.190  80.475  0.00  0.00    +0.000 C 
ATOM     12  C   UNL     1     104.604 124.625  80.058  0.00  0.00    +0.000 C 
ATOM     13  C   UNL     1     103.510 125.239  80.926  0.00  0.00    +0.000 C 
ATOM     14  C   UNL     1     103.857 125.156  82.416  0.00  0.00    +0.000 C 
ATOM     15  C   UNL     1     104.153 123.711  82.823  0.00  0.00    +0.000 C 
ATOM     16  C   UNL     1     105.249 123.093  81.960  0.00  0.00    +0.000 C 
ENDBRANCH  10  14
ENDBRANCH   1  10
TORSDOF 3
ENDMDL
