REMARK  Name = *****
REMARK  5 active torsions:
REMARK  status: ('A' for Active; 'I' for Inactive)
REMARK    1  A    between atoms: C_1  and  N_2
REMARK    2  A    between atoms: N_2  and  C_3
REMARK    3  A    between atoms: N_2  and  C_4
REMARK    4  A    between atoms: C_7  and  C_10
REMARK    5  A    between atoms: C_11  and  C_12
REMARK                            x       y       z     vdW  Elec       q    Type
REMARK                         _______ _______ _______ _____ _____    ______ ____
ROOT
ATOM      1  C   UNL     1       3.154  -0.886  -0.916  0.00  0.00    +0.000 A 
ATOM      2  C   UNL     1       2.777  -1.079  -2.258  0.00  0.00    +0.000 A 
ATOM      3  C   UNL     1       3.567  -1.804  -3.164  0.00  0.00    +0.000 A 
ATOM      4  C   UNL     1       4.764  -2.372  -2.746  0.00  0.00    +0.000 A 
ATOM      5  C   UNL     1       5.162  -2.219  -1.424  0.00  0.00    +0.000 A 
ATOM      6  C   UNL     1       4.364  -1.491  -0.528  0.00  0.00    +0.000 A 
ENDROOT
BRANCH   1   8
ATOM      7  C   UNL     1       1.240   0.621  -0.516  0.00  0.00    +0.000 C 
ATOM      8  N   UNL     1       2.357  -0.175  -0.011  0.00  0.00    +0.000 N 
ATOM      9  C   UNL     1       2.956   0.297   1.236  0.00  0.00    +0.000 C 
ENDBRANCH   1   8
BRANCH   4  10
ATOM     10  C   UNL     1       5.574  -3.111  -3.664  0.00  0.00    +0.000 C 
ATOM     11  C   UNL     1       6.258  -3.730  -4.434  0.00  0.00    +0.000 C 
BRANCH  11  12
ATOM     12  C   UNL     1       7.075  -4.467  -5.348  0.00  0.00    +0.000 A 
ATOM     13  C   UNL     1       8.217  -5.128  -4.889  0.00  0.00    +0.000 A 
ATOM     14  C   UNL     1       9.016  -5.845  -5.782  0.00  0.00    +0.000 A 
ATOM     15  C   UNL     1       8.674  -5.903  -7.133  0.00  0.00    +0.000 A 
ATOM     16  C   UNL     1       7.534  -5.243  -7.593  0.00  0.00    +0.000 A 
ATOM     17  C   UNL     1       6.734  -4.525  -6.701  0.00  0.00    +0.000 A 
ENDBRANCH  11  12
ENDBRANCH   4  10
TORSDOF 3
