MODEL 1
REMARK VINA RESULT:      -4.8      0.000      0.000
REMARK  Name = *****
REMARK  3 active torsions:
REMARK  status: ('A' for Active; 'I' for Inactive)
REMARK    1  A    between atoms: C_3  and  C_8
REMARK    2  A    between atoms: N_10  and  C_11
REMARK    3  A    between atoms: N_10  and  O_18
REMARK                            x       y       z     vdW  Elec       q    Type
REMARK                         _______ _______ _______ _____ _____    ______ ____
ROOT
ATOM      1  C   UNL     1      87.727  64.063  87.239  0.00  0.00    +0.000 C 
ATOM      2  O   UNL     1      86.674  64.065  86.602  0.00  0.00    +0.000 OA
ATOM      3  N   UNL     1      87.949  63.434  88.462  0.00  0.00    +0.000 N 
ENDROOT
BRANCH   1   6
ATOM      4  C   UNL     1      90.113  66.841  86.343  0.00  0.00    +0.000 A 
ATOM      5  C   UNL     1      89.036  66.143  86.890  0.00  0.00    +0.000 A 
ATOM      6  C   UNL     1      88.868  64.780  86.609  0.00  0.00    +0.000 A 
ATOM      7  C   UNL     1      89.801  64.108  85.813  0.00  0.00    +0.000 A 
ATOM      8  C   UNL     1      90.872  64.813  85.270  0.00  0.00    +0.000 A 
ATOM      9  C   UNL     1      91.030  66.176  85.527  0.00  0.00    +0.000 A 
ATOM     10 CL   UNL     1      92.016  63.997  84.278  0.00  0.00    +0.000 Cl
ENDBRANCH   1   6
BRANCH   3  11
ATOM     11  C   UNL     1      86.985  62.835  89.322  0.00  0.00    +0.000 A 
ATOM     12  C   UNL     1      86.373  61.608  89.031  0.00  0.00    +0.000 A 
ATOM     13  C   UNL     1      85.431  61.042  89.900  0.00  0.00    +0.000 A 
ATOM     14  C   UNL     1      85.083  61.701  91.074  0.00  0.00    +0.000 A 
ATOM     15  C   UNL     1      85.669  62.922  91.385  0.00  0.00    +0.000 A 
ATOM     16  C   UNL     1      86.611  63.483  90.514  0.00  0.00    +0.000 A 
ATOM     17 CL   UNL     1      83.927  61.007  92.141  0.00  0.00    +0.000 Cl
ENDBRANCH   3  11
BRANCH   3  18
ATOM     18  O   UNL     1      89.279  63.399  88.944  0.00  0.00    +0.000 OA
ATOM     19  H   UNL     1      89.591  62.480  88.967  0.00  0.00    +0.000 HD
ENDBRANCH   3  18
TORSDOF 3
ENDMDL
