MODEL 1
REMARK VINA RESULT:      -4.4      0.000      0.000
REMARK  Name = *****
REMARK  6 active torsions:
REMARK  status: ('A' for Active; 'I' for Inactive)
REMARK    1  A    between atoms: C_4  and  C_7
REMARK    2  A    between atoms: C_7  and  O_8
REMARK    3  A    between atoms: O_8  and  C_9
REMARK    4  A    between atoms: C_12  and  C_14
REMARK    5  A    between atoms: C_14  and  C_15
REMARK    6  A    between atoms: C_15  and  C_16
REMARK                            x       y       z     vdW  Elec       q    Type
REMARK                         _______ _______ _______ _____ _____    ______ ____
ROOT
ATOM      1  C   UNL     1      88.965  68.630  86.655  0.00  0.00    +0.000 A 
ATOM      2  N   UNL     1      90.223  68.239  86.437  0.00  0.00    +0.000 NA
ATOM      3  O   UNL     1      90.213  66.867  86.643  0.00  0.00    +0.000 OA
ATOM      4  C   UNL     1      88.956  66.472  86.993  0.00  0.00    +0.000 A 
ATOM      5  C   UNL     1      88.123  67.565  87.007  0.00  0.00    +0.000 A 
ENDROOT
BRANCH   1   6
ATOM      6  O   UNL     1      88.586  69.921  86.539  0.00  0.00    +0.000 OA
BRANCH   6   7
ATOM      7  C   UNL     1      87.941  70.451  87.698  0.00  0.00    +0.000 C 
BRANCH   7  11
ATOM      8  C   UNL     1      84.288  72.474  86.582  0.00  0.00    +0.000 A 
ATOM      9  C   UNL     1      85.177  72.058  85.594  0.00  0.00    +0.000 A 
ATOM     10  C   UNL     1      86.363  71.412  85.948  0.00  0.00    +0.000 A 
ATOM     11  C   UNL     1      86.680  71.188  87.296  0.00  0.00    +0.000 A 
ATOM     12  C   UNL     1      85.768  71.600  88.279  0.00  0.00    +0.000 A 
ATOM     13  C   UNL     1      84.581  72.243  87.924  0.00  0.00    +0.000 A 
ENDBRANCH   7  11
ENDBRANCH   6   7
ENDBRANCH   1   6
BRANCH   4  14
ATOM     14  C   UNL     1      88.765  65.029  87.270  0.00  0.00    +0.000 C 
BRANCH  14  15
ATOM     15  C   UNL     1      87.855  64.767  88.474  0.00  0.00    +0.000 C 
BRANCH  15  16
ATOM     16  C   UNL     1      88.176  63.501  89.265  0.00  0.00    +0.000 C 
ATOM     17 CL   UNL     1      89.304  63.819  90.602  0.00  0.00    +0.000 Cl
ENDBRANCH  15  16
ENDBRANCH  14  15
ENDBRANCH   4  14
TORSDOF 6
ENDMDL
