MODEL 1
REMARK VINA RESULT:      -4.6      0.000      0.000
REMARK  Name = *****
REMARK  3 active torsions:
REMARK  status: ('A' for Active; 'I' for Inactive)
REMARK    1  A    between atoms: N_9  and  O_10
REMARK    2  A    between atoms: O_10  and  C_11
REMARK    3  A    between atoms: C_11  and  C_12
REMARK                            x       y       z     vdW  Elec       q    Type
REMARK                         _______ _______ _______ _____ _____    ______ ____
ROOT
ATOM      1  C   UNL     1      91.222  65.619  85.330  0.00  0.00    +0.000 C 
ATOM      2  C   UNL     1      90.048  65.811  85.932  0.00  0.00    +0.000 C 
ATOM      3  C   UNL     1      88.927  64.846  86.242  0.00  0.00    +0.000 C 
ATOM      4  C   UNL     1      87.699  65.228  85.391  0.00  0.00    +0.000 C 
ATOM      5  C   UNL     1      87.227  66.567  86.011  0.00  0.00    +0.000 C 
ATOM      6  C   UNL     1      88.217  66.787  87.165  0.00  0.00    +0.000 C 
ATOM      7  C   UNL     1      88.496  65.350  87.624  0.00  0.00    +0.000 C 
ATOM      8  C   UNL     1      89.557  67.098  86.527  0.00  0.00    +0.000 C 
ATOM      9  N   UNL     1      90.163  68.237  86.462  0.00  0.00    +0.000 NA
ENDROOT
BRANCH   9  10
ATOM     10  O   UNL     1      89.403  69.232  87.097  0.00  0.00    +0.000 OA
BRANCH  10  11
ATOM     11  C   UNL     1      88.980  70.183  86.118  0.00  0.00    +0.000 C 
BRANCH  11  12
ATOM     12  C   UNL     1      87.675  70.795  86.558  0.00  0.00    +0.000 A 
ATOM     13  C   UNL     1      86.770  71.290  85.606  0.00  0.00    +0.000 A 
ATOM     14  C   UNL     1      85.555  71.850  86.006  0.00  0.00    +0.000 A 
ATOM     15  C   UNL     1      85.230  71.916  87.359  0.00  0.00    +0.000 A 
ATOM     16  C   UNL     1      86.119  71.426  88.314  0.00  0.00    +0.000 A 
ATOM     17  C   UNL     1      87.336  70.868  87.916  0.00  0.00    +0.000 A 
ENDBRANCH  11  12
ENDBRANCH  10  11
ENDBRANCH   9  10
TORSDOF 3
ENDMDL
