REMARK  Name = *****
REMARK  2 active torsions:
REMARK  status: ('A' for Active; 'I' for Inactive)
REMARK    1  A    between atoms: C_7  and  C_8
REMARK    2  A    between atoms: C_9  and  C_10
REMARK                            x       y       z     vdW  Elec       q    Type
REMARK                         _______ _______ _______ _____ _____    ______ ____
ROOT
ATOM      1  C   UNL     1       4.939  -1.195   2.989  0.00  0.00    +0.000 C 
ATOM      2  C   UNL     1       3.949  -1.456   3.860  0.00  0.00    +0.000 C 
ENDROOT
BRANCH   1   9
ATOM      3  C   UNL     1       1.338   0.343  -0.983  0.00  0.00    +0.000 C 
ATOM      4  C   UNL     1       2.437   0.220  -0.235  0.00  0.00    +0.000 C 
ATOM      5  C   UNL     1       3.168  -0.963   0.365  0.00  0.00    +0.000 C 
ATOM      6  C   UNL     1       4.182   0.023   0.851  0.00  0.00    +0.000 C 
ATOM      7  C   UNL     1       3.426   1.210   0.342  0.00  0.00    +0.000 C 
ATOM      8  C   UNL     1       5.670  -0.156   0.770  0.00  0.00    +0.000 C 
ATOM      9  C   UNL     1       4.996  -0.020   2.112  0.00  0.00    +0.000 C 
ENDBRANCH   1   9
BRANCH   2  10
ATOM     10  C   UNL     1       3.898  -2.639   4.728  0.00  0.00    +0.000 A 
ATOM     11  C   UNL     1       5.035  -3.146   5.370  0.00  0.00    +0.000 A 
ATOM     12  C   UNL     1       4.939  -4.256   6.213  0.00  0.00    +0.000 A 
ATOM     13  C   UNL     1       3.705  -4.863   6.431  0.00  0.00    +0.000 A 
ATOM     14  C   UNL     1       2.564  -4.359   5.810  0.00  0.00    +0.000 A 
ATOM     15  C   UNL     1       2.659  -3.248   4.968  0.00  0.00    +0.000 A 
ENDBRANCH   2  10
TORSDOF 2
