MODEL 1
REMARK VINA RESULT:      -4.4      0.000      0.000
REMARK  Name = *****
REMARK  1 active torsions:
REMARK  status: ('A' for Active; 'I' for Inactive)
REMARK    1  A    between atoms: C_6  and  C_7
REMARK                            x       y       z     vdW  Elec       q    Type
REMARK                         _______ _______ _______ _____ _____    ______ ____
ROOT
ATOM      1  C   UNL     1     102.008 128.478  83.860  0.00  0.00    +0.000 C 
ATOM      2  C   UNL     1     103.425 128.522  83.284  0.00  0.00    +0.000 C 
ATOM      3  C   UNL     1     103.451 128.130  81.806  0.00  0.00    +0.000 C 
ATOM      4  C   UNL     1     102.766 126.804  81.589  0.00  0.00    +0.000 C 
ATOM      5  C   UNL     1     103.355 125.791  81.018  0.00  0.00    +0.000 C 
ATOM      6  C   UNL     1     103.943 124.773  80.458  0.00  0.00    +0.000 C 
ATOM      7  C   UNL     1     101.369 126.722  82.151  0.00  0.00    +0.000 C 
ATOM      8  C   UNL     1     101.351 127.117  83.628  0.00  0.00    +0.000 C 
ENDROOT
BRANCH   6   9
ATOM      9  C   UNL     1     104.410 123.584  81.187  0.00  0.00    +0.000 A 
ATOM     10  C   UNL     1     104.977 122.475  80.539  0.00  0.00    +0.000 A 
ATOM     11  C   UNL     1     105.410 121.363  81.268  0.00  0.00    +0.000 A 
ATOM     12  C   UNL     1     105.279 121.352  82.654  0.00  0.00    +0.000 A 
ATOM     13  C   UNL     1     104.720 122.442  83.316  0.00  0.00    +0.000 A 
ATOM     14  C   UNL     1     104.287 123.552  82.584  0.00  0.00    +0.000 A 
ATOM     15 BR   UNL     1     105.866 119.851  83.641  0.00  0.00    +0.000 Br
ENDBRANCH   6   9
TORSDOF 1
ENDMDL
