MODEL 1
REMARK VINA RESULT:      -4.3      0.000      0.000
REMARK  Name = *****
REMARK  4 active torsions:
REMARK  status: ('A' for Active; 'I' for Inactive)
REMARK    1  A    between atoms: C_4  and  C_7
REMARK    2  A    between atoms: C_7  and  O_8
REMARK    3  A    between atoms: O_8  and  C_9
REMARK    4  A    between atoms: C_9  and  C_11
REMARK                            x       y       z     vdW  Elec       q    Type
REMARK                         _______ _______ _______ _____ _____    ______ ____
ROOT
ATOM      1  C   UNL     1     104.846 124.381  80.592  0.00  0.00    +0.000 C 
ATOM      2  O   UNL     1     105.925 124.840  80.264  0.00  0.00    +0.000 OA
ENDROOT
BRANCH   1   3
ATOM      3  C   UNL     1     104.666 123.154  81.390  0.00  0.00    +0.000 A 
ATOM      4  C   UNL     1     104.630 121.919  80.720  0.00  0.00    +0.000 A 
ATOM      5  C   UNL     1     104.494 120.736  81.445  0.00  0.00    +0.000 A 
ATOM      6  C   UNL     1     104.396 120.779  82.835  0.00  0.00    +0.000 A 
ATOM      7  C   UNL     1     104.431 122.007  83.502  0.00  0.00    +0.000 A 
ATOM      8  C   UNL     1     104.569 123.199  82.783  0.00  0.00    +0.000 A 
ATOM      9 CL   UNL     1     104.557 124.677  83.674  0.00  0.00    +0.000 Cl
ENDBRANCH   1   3
BRANCH   1  10
ATOM     10  O   UNL     1     103.618 124.865  80.289  0.00  0.00    +0.000 OA
BRANCH  10  11
ATOM     11  C   UNL     1     103.520 126.292  80.219  0.00  0.00    +0.000 C 
BRANCH  11  15
ATOM     12  C   UNL     1     101.581 127.700  83.801  0.00  0.00    +0.000 A 
ATOM     13  C   UNL     1     102.646 128.417  83.258  0.00  0.00    +0.000 A 
ATOM     14  C   UNL     1     103.271 127.966  82.095  0.00  0.00    +0.000 A 
ATOM     15  C   UNL     1     102.830 126.797  81.459  0.00  0.00    +0.000 A 
ATOM     16  C   UNL     1     101.767 126.076  82.021  0.00  0.00    +0.000 A 
ATOM     17  C   UNL     1     101.144 126.529  83.184  0.00  0.00    +0.000 A 
ENDBRANCH  11  15
ENDBRANCH  10  11
ENDBRANCH   1  10
TORSDOF 4
ENDMDL
