REMARK  Name = *****
REMARK  4 active torsions:
REMARK  status: ('A' for Active; 'I' for Inactive)
REMARK    1  A    between atoms: C_1  and  C_2
REMARK    2  A    between atoms: C_3  and  C_9
REMARK    3  A    between atoms: C_9  and  S_10
REMARK    4  A    between atoms: S_10  and  C_11
REMARK                            x       y       z     vdW  Elec       q    Type
REMARK                         _______ _______ _______ _____ _____    ______ ____
ROOT
ATOM      1  C   UNL     1       1.852  -1.563  -0.523  0.00  0.00    +0.000 C 
ATOM      2  C   UNL     1       0.554  -0.892  -0.173  0.00  0.00    +0.000 C 
ATOM      3  C   UNL     1      -0.632  -1.507   0.048  0.00  0.00    +0.000 C 
ATOM      4  C   UNL     1      -1.903  -0.738   0.343  0.00  0.00    +0.000 C 
ATOM      5  C   UNL     1      -1.844   0.705  -0.139  0.00  0.00    +0.000 C 
ATOM      6  C   UNL     1      -0.580   1.383   0.349  0.00  0.00    +0.000 C 
ATOM      7  C   UNL     1       0.646   0.605  -0.064  0.00  0.00    +0.000 C 
ATOM      8  O   UNL     1       1.724   1.175  -0.232  0.00  0.00    +0.000 OA
ENDROOT
BRANCH   3   9
ATOM      9  C   UNL     1      -0.804  -3.011   0.067  0.00  0.00    +0.000 C 
BRANCH   9  10
ATOM     10  S   UNL     1      -1.350  -3.583  -1.576  0.00  0.00    +0.000 S 
BRANCH  10  11
ATOM     11  C   UNL     1      -1.170  -5.345  -1.367  0.00  0.00    +0.000 A 
ATOM     12  C   UNL     1      -1.809  -6.034  -0.331  0.00  0.00    +0.000 A 
ATOM     13  C   UNL     1      -1.652  -7.416  -0.201  0.00  0.00    +0.000 A 
ATOM     14  C   UNL     1      -0.862  -8.117  -1.111  0.00  0.00    +0.000 A 
ATOM     15  C   UNL     1      -0.235  -7.440  -2.154  0.00  0.00    +0.000 A 
ATOM     16  C   UNL     1      -0.392  -6.058  -2.284  0.00  0.00    +0.000 A 
ENDBRANCH  10  11
ENDBRANCH   9  10
ENDBRANCH   3   9
TORSDOF 3
