MODEL 1
REMARK VINA RESULT:      -4.5      0.000      0.000
REMARK  Name = *****
REMARK  6 active torsions:
REMARK  status: ('A' for Active; 'I' for Inactive)
REMARK    1  A    between atoms: C_1  and  C_2
REMARK    2  A    between atoms: C_4  and  O_11
REMARK    3  A    between atoms: N_8  and  C_9
REMARK    4  A    between atoms: N_8  and  C_10
REMARK    5  A    between atoms: O_11  and  C_12
REMARK    6  A    between atoms: C_12  and  C_13
REMARK                            x       y       z     vdW  Elec       q    Type
REMARK                         _______ _______ _______ _____ _____    ______ ____
ROOT
ATOM      1  C   UNL     1     105.020 122.687  80.382  0.00  0.00    +0.000 C 
ATOM      2  C   UNL     1     104.949 124.184  80.374  0.00  0.00    +0.000 A 
ATOM      3  C   UNL     1     103.807 124.828  80.779  0.00  0.00    +0.000 A 
ATOM      4  C   UNL     1     103.853 126.195  80.718  0.00  0.00    +0.000 A 
ATOM      5  N   UNL     1     104.924 126.895  80.310  0.00  0.00    +0.000 NA
ATOM      6  C   UNL     1     106.008 126.199  79.936  0.00  0.00    +0.000 A 
ATOM      7  N   UNL     1     106.041 124.854  79.956  0.00  0.00    +0.000 NA
ATOM      8  N   UNL     1     107.133 126.896  79.488  0.00  0.00    +0.000 N 
ATOM      9  C   UNL     1     108.363 126.121  79.496  0.00  0.00    +0.000 C 
ATOM     10  C   UNL     1     107.218 128.268  79.966  0.00  0.00    +0.000 C 
ENDROOT
BRANCH   4  11
ATOM     11  O   UNL     1     102.711 126.860  81.123  0.00  0.00    +0.000 OA
BRANCH  11  12
ATOM     12  C   UNL     1     102.307 126.516  82.448  0.00  0.00    +0.000 C 
BRANCH  12  13
ATOM     13  C   UNL     1     101.209 127.465  82.852  0.00  0.00    +0.000 A 
ATOM     14  C   UNL     1      99.883 127.150  82.538  0.00  0.00    +0.000 A 
ATOM     15  C   UNL     1      98.823 127.977  82.905  0.00  0.00    +0.000 A 
ATOM     16  C   UNL     1      99.076 129.148  83.612  0.00  0.00    +0.000 A 
ATOM     17  C   UNL     1     100.387 129.479  83.947  0.00  0.00    +0.000 A 
ATOM     18  C   UNL     1     101.447 128.642  83.575  0.00  0.00    +0.000 A 
ATOM     19 CL   UNL     1     103.041 129.119  84.044  0.00  0.00    +0.000 Cl
ATOM     20  F   UNL     1      99.605 126.026  81.862  0.00  0.00    +0.000 F 
ENDBRANCH  12  13
ENDBRANCH  11  12
ENDBRANCH   4  11
TORSDOF 3
ENDMDL
