MODEL 1
REMARK VINA RESULT:      -4.3      0.000      0.000
REMARK  Name = *****
REMARK  4 active torsions:
REMARK  status: ('A' for Active; 'I' for Inactive)
REMARK    1  A    between atoms: C_4  and  S_8
REMARK    2  A    between atoms: S_8  and  C_9
REMARK    3  A    between atoms: C_9  and  C_10
REMARK    4  A    between atoms: C_10  and  C_11
REMARK                            x       y       z     vdW  Elec       q    Type
REMARK                         _______ _______ _______ _____ _____    ______ ____
ROOT
ATOM      1  S   UNL     1     104.499 125.492  82.957  0.00  0.00    +0.000 S 
ENDROOT
BRANCH   1   5
ATOM      2  C   UNL     1     104.661 121.151  81.443  0.00  0.00    +0.000 A 
ATOM      3  C   UNL     1     104.750 122.192  80.516  0.00  0.00    +0.000 A 
ATOM      4  C   UNL     1     104.707 123.523  80.947  0.00  0.00    +0.000 A 
ATOM      5  C   UNL     1     104.574 123.821  82.314  0.00  0.00    +0.000 A 
ATOM      6  C   UNL     1     104.478 122.767  83.235  0.00  0.00    +0.000 A 
ATOM      7  C   UNL     1     104.526 121.445  82.797  0.00  0.00    +0.000 A 
ATOM      8 CL   UNL     1     104.419 120.163  83.940  0.00  0.00    +0.000 Cl
ATOM      9 CL   UNL     1     104.832 124.752  79.737  0.00  0.00    +0.000 Cl
ENDBRANCH   1   5
BRANCH   1  10
ATOM     10  C   UNL     1     102.745 125.515  83.458  0.00  0.00    +0.000 C 
BRANCH  10  11
ATOM     11  C   UNL     1     101.864 125.895  82.268  0.00  0.00    +0.000 C 
BRANCH  11  12
ATOM     12  C   UNL     1     100.872 126.968  82.643  0.00  0.00    +0.000 A 
ATOM     13  C   UNL     1     101.288 128.128  83.303  0.00  0.00    +0.000 A 
ATOM     14  C   UNL     1     100.334 129.074  83.646  0.00  0.00    +0.000 A 
ATOM     15  N   UNL     1      99.016 128.944  83.385  0.00  0.00    +0.000 NA
ATOM     16  C   UNL     1      98.635 127.816  82.748  0.00  0.00    +0.000 A 
ATOM     17  C   UNL     1      99.512 126.813  82.365  0.00  0.00    +0.000 A 
ENDBRANCH  11  12
ENDBRANCH  10  11
ENDBRANCH   1  10
TORSDOF 4
ENDMDL
