MODEL 1
REMARK VINA RESULT:      -4.5      0.000      0.000
REMARK  Name = *****
REMARK  2 active torsions:
REMARK  status: ('A' for Active; 'I' for Inactive)
REMARK    1  A    between atoms: C_3  and  N_8
REMARK    2  A    between atoms: C_9  and  C_10
REMARK                            x       y       z     vdW  Elec       q    Type
REMARK                         _______ _______ _______ _____ _____    ______ ____
ROOT
ATOM      1  N   UNL     1     102.506 126.976  81.686  0.00  0.00    +0.000 NA
ATOM      2  C   UNL     1     102.025 127.001  82.888  0.00  0.00    +0.000 C 
ENDROOT
BRANCH   2   3
ATOM      3  C   UNL     1     101.143 128.088  83.349  0.00  0.00    +0.000 A 
ATOM      4  C   UNL     1     101.719 129.207  83.969  0.00  0.00    +0.000 A 
ATOM      5  C   UNL     1     100.912 130.254  84.429  0.00  0.00    +0.000 A 
ATOM      6  C   UNL     1      99.530 130.195  84.270  0.00  0.00    +0.000 A 
ATOM      7  C   UNL     1      98.953 129.092  83.641  0.00  0.00    +0.000 A 
ATOM      8  C   UNL     1      99.752 128.040  83.177  0.00  0.00    +0.000 A 
ATOM      9 CL   UNL     1      98.942 126.769  82.329  0.00  0.00    +0.000 Cl
ATOM     10 CL   UNL     1     103.424 129.353  84.229  0.00  0.00    +0.000 Cl
ENDBRANCH   2   3
BRANCH   1  13
ATOM     11  C   UNL     1     104.311 123.760  82.016  0.00  0.00    +0.000 A 
ATOM     12  C   UNL     1     103.491 124.854  82.303  0.00  0.00    +0.000 A 
ATOM     13  C   UNL     1     103.320 125.881  81.367  0.00  0.00    +0.000 A 
ATOM     14  C   UNL     1     103.999 125.819  80.150  0.00  0.00    +0.000 A 
ATOM     15  C   UNL     1     104.814 124.727  79.872  0.00  0.00    +0.000 A 
ATOM     16  C   UNL     1     104.972 123.695  80.791  0.00  0.00    +0.000 A 
ATOM     17  F   UNL     1     105.457 124.667  78.698  0.00  0.00    +0.000 F 
ENDBRANCH   1  13
TORSDOF 2
ENDMDL
