REMARK  Name = *****
REMARK  2 active torsions:
REMARK  status: ('A' for Active; 'I' for Inactive)
REMARK    1  A    between atoms: C_5  and  C_7
REMARK    2  A    between atoms: C_8  and  C_9
REMARK                            x       y       z     vdW  Elec       q    Type
REMARK                         _______ _______ _______ _____ _____    ______ ____
ROOT
ATOM      1  C   UNL     1       2.944   0.198  -0.323  0.00  0.00    +0.000 C 
ATOM      2  C   UNL     1       4.136   0.251  -0.458  0.00  0.00    +0.000 C 
ENDROOT
BRANCH   1   7
ATOM      3  C   UNL     1      -0.479  -1.213   0.070  0.00  0.00    +0.000 A 
ATOM      4  C   UNL     1      -1.259  -0.061   0.141  0.00  0.00    +0.000 A 
ATOM      5  C   UNL     1      -0.657   1.195   0.061  0.00  0.00    +0.000 A 
ATOM      6  C   UNL     1       0.730   1.301  -0.092  0.00  0.00    +0.000 A 
ATOM      7  C   UNL     1       1.520   0.145  -0.165  0.00  0.00    +0.000 A 
ATOM      8  C   UNL     1       0.906  -1.111  -0.083  0.00  0.00    +0.000 A 
ATOM      9 BR   UNL     1       1.475   3.047  -0.194  0.00  0.00    +0.000 Br
ENDBRANCH   1   7
BRANCH   2  10
ATOM     10  C   UNL     1       5.554   0.335  -0.621  0.00  0.00    +0.000 A 
ATOM     11  C   UNL     1       6.175   1.587  -0.687  0.00  0.00    +0.000 A 
ATOM     12  C   UNL     1       7.559   1.672  -0.848  0.00  0.00    +0.000 A 
ATOM     13  C   UNL     1       8.310   0.505  -0.942  0.00  0.00    +0.000 A 
ATOM     14  C   UNL     1       7.704  -0.745  -0.878  0.00  0.00    +0.000 A 
ATOM     15  C   UNL     1       6.319  -0.832  -0.717  0.00  0.00    +0.000 A 
ATOM     16  F   UNL     1       9.638   0.586  -1.098  0.00  0.00    +0.000 F 
ENDBRANCH   2  10
TORSDOF 2
