REMARK  Name = *****
REMARK  2 active torsions:
REMARK  status: ('A' for Active; 'I' for Inactive)
REMARK    1  A    between atoms: C_4  and  C_8
REMARK    2  A    between atoms: N_9  and  C_10
REMARK                            x       y       z     vdW  Elec       q    Type
REMARK                         _______ _______ _______ _____ _____    ______ ____
ROOT
ATOM      1  C   UNL     1       1.386   2.575  -0.159  0.00  0.00    +0.000 C 
ATOM      2  N   UNL     1       0.858   3.679   0.269  0.00  0.00    +0.000 NA
ENDROOT
BRANCH   1   6
ATOM      3  C   UNL     1      -0.650  -1.165   0.039  0.00  0.00    +0.000 A 
ATOM      4  C   UNL     1       0.640  -1.093  -0.486  0.00  0.00    +0.000 A 
ATOM      5  C   UNL     1       1.291   0.138  -0.544  0.00  0.00    +0.000 A 
ATOM      6  C   UNL     1       0.664   1.295  -0.081  0.00  0.00    +0.000 A 
ATOM      7  C   UNL     1      -0.628   1.227   0.447  0.00  0.00    +0.000 A 
ATOM      8  C   UNL     1      -1.270  -0.005   0.500  0.00  0.00    +0.000 A 
ATOM      9  F   UNL     1      -2.509  -0.081   1.003  0.00  0.00    +0.000 F 
ATOM     10  F   UNL     1       2.530   0.189  -1.051  0.00  0.00    +0.000 F 
ENDBRANCH   1   6
BRANCH   2  11
ATOM     11  C   UNL     1       1.644   4.831   0.140  0.00  0.00    +0.000 A 
ATOM     12  C   UNL     1       1.453   5.688  -0.946  0.00  0.00    +0.000 A 
ATOM     13  C   UNL     1       2.220   6.844  -1.058  0.00  0.00    +0.000 A 
ATOM     14  C   UNL     1       3.172   7.170  -0.102  0.00  0.00    +0.000 A 
ATOM     15  C   UNL     1       3.345   6.321   0.982  0.00  0.00    +0.000 A 
ATOM     16  C   UNL     1       2.588   5.160   1.115  0.00  0.00    +0.000 A 
ATOM     17  F   UNL     1       4.254   6.624   1.917  0.00  0.00    +0.000 F 
ATOM     18  F   UNL     1       2.036   7.657  -2.106  0.00  0.00    +0.000 F 
ENDBRANCH   2  11
TORSDOF 2
