MODEL 1
REMARK VINA RESULT:      -4.5      0.000      0.000
REMARK  Name = *****
REMARK  3 active torsions:
REMARK  status: ('A' for Active; 'I' for Inactive)
REMARK    1  A    between atoms: C_4  and  O_7
REMARK    2  A    between atoms: O_7  and  C_8
REMARK    3  A    between atoms: C_8  and  C_10
REMARK                            x       y       z     vdW  Elec       q    Type
REMARK                         _______ _______ _______ _____ _____    ______ ____
ROOT
ATOM      1  C   UNL     1     102.198 125.739  82.525  0.00  0.00    +0.000 C 
ATOM      2  O   UNL     1     102.700 125.036  83.388  0.00  0.00    +0.000 OA
ENDROOT
BRANCH   1   3
ATOM      3  C   UNL     1     101.319 126.882  82.858  0.00  0.00    +0.000 A 
ATOM      4  C   UNL     1      99.966 126.920  82.511  0.00  0.00    +0.000 A 
ATOM      5  C   UNL     1      99.186 128.019  82.855  0.00  0.00    +0.000 A 
ATOM      6  C   UNL     1      99.747 129.082  83.553  0.00  0.00    +0.000 A 
ATOM      7  C   UNL     1     101.089 129.059  83.919  0.00  0.00    +0.000 A 
ATOM      8  C   UNL     1     101.875 127.956  83.576  0.00  0.00    +0.000 A 
ATOM      9  F   UNL     1      98.997 130.141  83.884  0.00  0.00    +0.000 F 
ATOM     10  F   UNL     1      97.890 128.050  82.519  0.00  0.00    +0.000 F 
ATOM     11  F   UNL     1      99.383 125.897  81.869  0.00  0.00    +0.000 F 
ENDBRANCH   1   3
BRANCH   1  12
ATOM     12  O   UNL     1     102.402 125.679  81.162  0.00  0.00    +0.000 OA
BRANCH  12  16
ATOM     13  C   UNL     1     106.345 125.886  79.803  0.00  0.00    +0.000 A 
ATOM     14  C   UNL     1     105.682 124.657  79.789  0.00  0.00    +0.000 A 
ATOM     15  C   UNL     1     104.369 124.566  80.251  0.00  0.00    +0.000 A 
ATOM     16  C   UNL     1     103.738 125.708  80.742  0.00  0.00    +0.000 A 
ATOM     17  C   UNL     1     104.383 126.944  80.740  0.00  0.00    +0.000 A 
ATOM     18  C   UNL     1     105.695 127.029  80.275  0.00  0.00    +0.000 A 
ENDBRANCH  12  16
ENDBRANCH   1  12
TORSDOF 3
ENDMDL
