MODEL 1
REMARK VINA RESULT:      -4.7      0.000      0.000
REMARK  Name = *****
REMARK  2 active torsions:
REMARK  status: ('A' for Active; 'I' for Inactive)
REMARK    1  A    between atoms: C_4  and  N_7
REMARK    2  A    between atoms: C_8  and  C_9
REMARK                            x       y       z     vdW  Elec       q    Type
REMARK                         _______ _______ _______ _____ _____    ______ ____
ROOT
ATOM      1  N   UNL     1     102.698 126.199  81.612  0.00  0.00    +0.000 NA
ATOM      2  C   UNL     1     101.871 126.155  82.609  0.00  0.00    +0.000 C 
ENDROOT
BRANCH   2   3
ATOM      3  C   UNL     1     100.900 127.233  82.892  0.00  0.00    +0.000 A 
ATOM      4  C   UNL     1      99.561 127.105  82.507  0.00  0.00    +0.000 A 
ATOM      5  C   UNL     1      98.636 128.116  82.765  0.00  0.00    +0.000 A 
ATOM      6  C   UNL     1      99.037 129.279  83.416  0.00  0.00    +0.000 A 
ATOM      7  C   UNL     1     100.368 129.424  83.804  0.00  0.00    +0.000 A 
ATOM      8  C   UNL     1     101.298 128.408  83.545  0.00  0.00    +0.000 A 
ATOM      9 CL   UNL     1     102.919 128.685  84.086  0.00  0.00    +0.000 Cl
ATOM     10  F   UNL     1      99.115 126.021  81.856  0.00  0.00    +0.000 F 
ENDBRANCH   2   3
BRANCH   1  14
ATOM     11  C   UNL     1     105.250 122.889  81.178  0.00  0.00    +0.000 A 
ATOM     12  C   UNL     1     104.644 123.144  82.409  0.00  0.00    +0.000 A 
ATOM     13  C   UNL     1     103.795 124.243  82.554  0.00  0.00    +0.000 A 
ATOM     14  C   UNL     1     103.557 125.100  81.475  0.00  0.00    +0.000 A 
ATOM     15  C   UNL     1     104.154 124.829  80.242  0.00  0.00    +0.000 A 
ATOM     16  C   UNL     1     105.003 123.730  80.093  0.00  0.00    +0.000 A 
ENDBRANCH   1  14
TORSDOF 2
ENDMDL
