REMARK  Name = *****
REMARK  4 active torsions:
REMARK  status: ('A' for Active; 'I' for Inactive)
REMARK    1  A    between atoms: C_4  and  O_7
REMARK    2  A    between atoms: O_7  and  C_8
REMARK    3  A    between atoms: C_8  and  N_10
REMARK    4  A    between atoms: N_10  and  C_11
REMARK                            x       y       z     vdW  Elec       q    Type
REMARK                         _______ _______ _______ _____ _____    ______ ____
ROOT
ATOM      1  C   UNL     1       3.759  -0.278   0.736  0.00  0.00    +0.000 C 
ATOM      2  S   UNL     1       3.714  -0.013   2.381  0.00  0.00    +0.000 S 
ENDROOT
BRANCH   1   3
ATOM      3  N   UNL     1       4.967  -0.267   0.089  0.00  0.00    +0.000 N 
ATOM      4  H   UNL     1       5.737  -0.105   0.680  0.00  0.00    +0.000 HD
BRANCH   3   5
ATOM      5  C   UNL     1       5.311  -0.444  -1.267  0.00  0.00    +0.000 A 
ATOM      6  C   UNL     1       6.672  -0.327  -1.585  0.00  0.00    +0.000 A 
ATOM      7  C   UNL     1       7.120  -0.477  -2.901  0.00  0.00    +0.000 A 
ATOM      8  C   UNL     1       6.210  -0.751  -3.916  0.00  0.00    +0.000 A 
ATOM      9  C   UNL     1       4.856  -0.873  -3.613  0.00  0.00    +0.000 A 
ATOM     10  C   UNL     1       4.409  -0.720  -2.295  0.00  0.00    +0.000 A 
ENDBRANCH   3   5
ENDBRANCH   1   3
BRANCH   1  11
ATOM     11  O   UNL     1       2.665  -0.518  -0.022  0.00  0.00    +0.000 OA
BRANCH  11  15
ATOM     12  C   UNL     1      -1.518   0.156  -0.278  0.00  0.00    +0.000 C 
ATOM     13  C   UNL     1      -1.022  -1.282  -0.147  0.00  0.00    +0.000 C 
ATOM     14  C   UNL     1       0.470  -1.387  -0.444  0.00  0.00    +0.000 C 
ATOM     15  C   UNL     1       1.290  -0.439   0.436  0.00  0.00    +0.000 C 
ATOM     16  C   UNL     1       0.792   1.001   0.286  0.00  0.00    +0.000 C 
ATOM     17  C   UNL     1      -0.700   1.115   0.582  0.00  0.00    +0.000 C 
ENDBRANCH  11  15
ENDBRANCH   1  11
TORSDOF 4
