MODEL 1
REMARK VINA RESULT:      -4.7      0.000      0.000
REMARK  Name = *****
REMARK  5 active torsions:
REMARK  status: ('A' for Active; 'I' for Inactive)
REMARK    1  A    between atoms: C_1  and  C_2
REMARK    2  A    between atoms: C_5  and  S_8
REMARK    3  A    between atoms: S_8  and  N_10
REMARK    4  A    between atoms: N_10  and  C_11
REMARK    5  A    between atoms: C_12  and  C_18
REMARK                            x       y       z     vdW  Elec       q    Type
REMARK                         _______ _______ _______ _____ _____    ______ ____
ROOT
ATOM      1  N   UNL     1      89.961  68.196  86.458  0.00  0.00    +0.000 N 
ATOM      2  H   UNL     1      90.376  68.525  87.289  0.00  0.00    +0.000 HD
ENDROOT
BRANCH   1   3
ATOM      3  C   UNL     1      90.002  66.800  86.222  0.00  0.00    +0.000 A 
ATOM      4  C   UNL     1      89.002  65.960  86.785  0.00  0.00    +0.000 A 
ATOM      5  C   UNL     1      89.042  64.573  86.519  0.00  0.00    +0.000 A 
ATOM      6  C   UNL     1      90.085  64.011  85.782  0.00  0.00    +0.000 A 
ATOM      7  C   UNL     1      91.103  64.820  85.296  0.00  0.00    +0.000 A 
ATOM      8  C   UNL     1      91.060  66.196  85.520  0.00  0.00    +0.000 A 
ATOM      9 CL   UNL     1      87.812  63.488  87.072  0.00  0.00    +0.000 Cl
ATOM     10  C   UNL     1      87.887  66.548  87.617  0.00  0.00    +0.000 C 
ENDBRANCH   1   3
BRANCH   1  11
ATOM     11  S   UNL     1      89.267  69.328  85.448  0.00  0.00    +0.000 S 
ATOM     12  O   UNL     1      90.298  70.308  84.979  0.00  0.00    +0.000 OA
BRANCH  11  17
ATOM     13  C   UNL     1      86.123  71.977  89.977  0.00  0.00    +0.000 C 
ATOM     14  C   UNL     1      86.911  71.355  88.862  0.00  0.00    +0.000 A 
ATOM     15  C   UNL     1      86.391  71.314  87.563  0.00  0.00    +0.000 A 
ATOM     16  C   UNL     1      87.111  70.707  86.531  0.00  0.00    +0.000 A 
ATOM     17  C   UNL     1      88.357  70.125  86.790  0.00  0.00    +0.000 A 
ATOM     18  C   UNL     1      88.874  70.155  88.088  0.00  0.00    +0.000 A 
ATOM     19  C   UNL     1      88.153  70.760  89.119  0.00  0.00    +0.000 A 
ENDBRANCH  11  17
ENDBRANCH   1  11
TORSDOF 3
ENDMDL
