MODEL 1
REMARK VINA RESULT:      -5.0      0.000      0.000
REMARK  Name = *****
REMARK  2 active torsions:
REMARK  status: ('A' for Active; 'I' for Inactive)
REMARK    1  A    between atoms: C_1  and  C_2
REMARK    2  A    between atoms: C_5  and  C_7
REMARK                            x       y       z     vdW  Elec       q    Type
REMARK                         _______ _______ _______ _____ _____    ______ ____
ROOT
ATOM      1  C   UNL     1     102.922 126.360  81.896  0.00  0.00    +0.000 A 
ATOM      2  C   UNL     1     101.531 126.180  81.941  0.00  0.00    +0.000 A 
ATOM      3  C   UNL     1     100.692 127.101  82.594  0.00  0.00    +0.000 A 
ATOM      4  C   UNL     1      99.300 126.922  82.638  0.00  0.00    +0.000 A 
ATOM      5  C   UNL     1      98.480 127.846  83.287  0.00  0.00    +0.000 A 
ATOM      6  C   UNL     1      99.041 128.962  83.900  0.00  0.00    +0.000 A 
ATOM      7  C   UNL     1     100.423 129.155  83.867  0.00  0.00    +0.000 A 
ATOM      8  C   UNL     1     101.261 128.234  83.218  0.00  0.00    +0.000 A 
ATOM      9  C   UNL     1     102.652 128.413  83.174  0.00  0.00    +0.000 A 
ATOM     10  C   UNL     1     103.471 127.486  82.521  0.00  0.00    +0.000 A 
ENDROOT
BRANCH   1  15
ATOM     11  C   UNL     1     105.279 122.269  80.466  0.00  0.00    +0.000 C 
ATOM     12  C   UNL     1     104.811 123.668  80.503  0.00  0.00    +0.000 A 
ATOM     13  C   UNL     1     105.101 124.711  79.656  0.00  0.00    +0.000 A 
ATOM     14  O   UNL     1     104.430 125.812  80.091  0.00  0.00    +0.000 OA
ATOM     15  C   UNL     1     103.752 125.378  81.201  0.00  0.00    +0.000 A 
ATOM     16  N   UNL     1     103.952 124.104  81.486  0.00  0.00    +0.000 NA
ENDBRANCH   1  15
TORSDOF 1
ENDMDL
