REMARK  Name = *****
REMARK  2 active torsions:
REMARK  status: ('A' for Active; 'I' for Inactive)
REMARK    1  A    between atoms: C_1  and  C_2
REMARK    2  A    between atoms: C_5  and  C_8
REMARK                            x       y       z     vdW  Elec       q    Type
REMARK                         _______ _______ _______ _____ _____    ______ ____
ROOT
ATOM      1  C   UNL     1      -3.461   0.079  -0.387  0.00  0.00    +0.000 A 
ATOM      2  N   UNL     1      -4.065   0.770  -1.345  0.00  0.00    +0.000 NA
ATOM      3  C   UNL     1      -5.391   0.620  -1.061  0.00  0.00    +0.000 A 
ATOM      4  C   UNL     1      -5.544  -0.157   0.055  0.00  0.00    +0.000 A 
ATOM      5  O   UNL     1      -4.322  -0.517   0.515  0.00  0.00    +0.000 OA
ATOM      6  C   UNL     1      -6.794  -0.556   0.722  0.00  0.00    +0.000 C 
ATOM      7  C   UNL     1      -7.970  -0.279  -0.244  0.00  0.00    +0.000 C 
ATOM      8  C   UNL     1      -7.830   1.071  -0.992  0.00  0.00    +0.000 C 
ATOM      9  C   UNL     1      -6.531   1.166  -1.830  0.00  0.00    +0.000 C 
ENDROOT
BRANCH   1  14
ATOM     10  C   UNL     1       2.216  -0.734   0.396  0.00  0.00    +0.000 C 
ATOM     11  C   UNL     1       0.746  -0.507   0.205  0.00  0.00    +0.000 A 
ATOM     12  C   UNL     1       0.273   0.295  -0.838  0.00  0.00    +0.000 A 
ATOM     13  C   UNL     1      -1.102   0.482  -1.019  0.00  0.00    +0.000 A 
ATOM     14  C   UNL     1      -2.031  -0.132  -0.167  0.00  0.00    +0.000 A 
ATOM     15  C   UNL     1      -1.549  -0.940   0.872  0.00  0.00    +0.000 A 
ATOM     16  C   UNL     1      -0.175  -1.128   1.054  0.00  0.00    +0.000 A 
ENDBRANCH   1  14
TORSDOF 1
