REMARK  Name = *****
REMARK  3 active torsions:
REMARK  status: ('A' for Active; 'I' for Inactive)
REMARK    1  A    between atoms: C_4  and  C_7
REMARK    2  A    between atoms: C_8  and  C_9
REMARK    3  A    between atoms: C_8  and  C_11
REMARK                            x       y       z     vdW  Elec       q    Type
REMARK                         _______ _______ _______ _____ _____    ______ ____
ROOT
ATOM      1  C   UNL     1      -2.759   0.375  -0.383  0.00  0.00    +0.000 C 
ATOM      2  C   UNL     1      -3.738  -0.534  -0.200  0.00  0.00    +0.000 C 
ENDROOT
BRANCH   2   3
ATOM      3  C   UNL     1      -5.138  -0.113  -0.417  0.00  0.00    +0.000 A 
ATOM      4  C   UNL     1      -6.063  -0.159   0.637  0.00  0.00    +0.000 A 
ATOM      5  C   UNL     1      -7.384   0.240   0.425  0.00  0.00    +0.000 A 
ATOM      6  C   UNL     1      -7.801   0.682  -0.828  0.00  0.00    +0.000 A 
ATOM      7  C   UNL     1      -6.889   0.727  -1.882  0.00  0.00    +0.000 A 
ATOM      8  C   UNL     1      -5.565   0.331  -1.679  0.00  0.00    +0.000 A 
ATOM      9 BR   UNL     1      -8.620   0.182   1.855  0.00  0.00    +0.000 Br
ENDBRANCH   2   3
BRANCH   1  13
ATOM     10  C   UNL     1       1.435  -0.208   0.166  0.00  0.00    +0.000 A 
ATOM     11  C   UNL     1       0.747  -0.991  -0.760  0.00  0.00    +0.000 A 
ATOM     12  C   UNL     1      -0.626  -0.812  -0.945  0.00  0.00    +0.000 A 
ATOM     13  C   UNL     1      -1.321   0.146  -0.196  0.00  0.00    +0.000 A 
ATOM     14  C   UNL     1      -0.620   0.937   0.722  0.00  0.00    +0.000 A 
ATOM     15  C   UNL     1       0.753   0.757   0.905  0.00  0.00    +0.000 A 
ENDBRANCH   1  13
BRANCH   2  16
ATOM     16  C   UNL     1      -3.483  -1.872   0.239  0.00  0.00    +0.000 C 
ATOM     17  N   UNL     1      -3.296  -2.963   0.589  0.00  0.00    +0.000 NA
ENDBRANCH   2  16
TORSDOF 3
