REMARK  Name = *****
REMARK  3 active torsions:
REMARK  status: ('A' for Active; 'I' for Inactive)
REMARK    1  A    between atoms: C_1  and  C_2
REMARK    2  A    between atoms: C_3  and  C_11
REMARK    3  A    between atoms: N_4  and  C_5
REMARK                            x       y       z     vdW  Elec       q    Type
REMARK                         _______ _______ _______ _____ _____    ______ ____
ROOT
ATOM      1  C   UNL     1       3.129  -0.186   1.540  0.00  0.00    +0.000 C 
ATOM      2  C   UNL     1       2.885  -0.458   0.097  0.00  0.00    +0.000 C 
ATOM      3  C   UNL     1       3.587   0.306  -1.025  0.00  0.00    +0.000 C 
ATOM      4  N   UNL     1       3.944  -1.076  -0.683  0.00  0.00    +0.000 N 
ENDROOT
BRANCH   3   5
ATOM      5  C   UNL     1       4.588   1.393  -0.730  0.00  0.00    +0.000 A 
ATOM      6  C   UNL     1       5.973   1.190  -0.872  0.00  0.00    +0.000 A 
ATOM      7  C   UNL     1       6.893   2.208  -0.607  0.00  0.00    +0.000 A 
ATOM      8  C   UNL     1       6.440   3.457  -0.198  0.00  0.00    +0.000 A 
ATOM      9  C   UNL     1       5.076   3.694  -0.055  0.00  0.00    +0.000 A 
ATOM     10  C   UNL     1       4.162   2.670  -0.321  0.00  0.00    +0.000 A 
ATOM     11 CL   UNL     1       7.567   4.714   0.129  0.00  0.00    +0.000 Cl
ENDBRANCH   3   5
BRANCH   4  12
ATOM     12  C   UNL     1       3.619  -2.126  -1.575  0.00  0.00    +0.000 A 
ATOM     13  C   UNL     1       3.953  -2.053  -2.934  0.00  0.00    +0.000 A 
ATOM     14  C   UNL     1       3.660  -3.110  -3.800  0.00  0.00    +0.000 A 
ATOM     15  C   UNL     1       3.045  -4.261  -3.312  0.00  0.00    +0.000 A 
ATOM     16  C   UNL     1       2.734  -4.361  -1.957  0.00  0.00    +0.000 A 
ATOM     17  C   UNL     1       3.028  -3.302  -1.094  0.00  0.00    +0.000 A 
ENDBRANCH   4  12
TORSDOF 2
