MODEL 1
REMARK VINA RESULT:      -4.4      0.000      0.000
REMARK  Name = *****
REMARK  4 active torsions:
REMARK  status: ('A' for Active; 'I' for Inactive)
REMARK    1  A    between atoms: C_4  and  S_7
REMARK    2  A    between atoms: S_7  and  C_8
REMARK    3  A    between atoms: C_8  and  C_9
REMARK    4  A    between atoms: C_11  and  C_15
REMARK                            x       y       z     vdW  Elec       q    Type
REMARK                         _______ _______ _______ _____ _____    ______ ____
ROOT
ATOM      1  C   UNL     1     101.827 126.267  83.396  0.00  0.00    +0.000 C 
ENDROOT
BRANCH   1   2
ATOM      2  C   UNL     1     102.704 126.074  82.182  0.00  0.00    +0.000 A 
ATOM      3  C   UNL     1     103.327 124.839  81.942  0.00  0.00    +0.000 A 
ATOM      4  C   UNL     1     104.153 124.663  80.825  0.00  0.00    +0.000 A 
ATOM      5  C   UNL     1     104.363 125.726  79.942  0.00  0.00    +0.000 A 
ATOM      6  C   UNL     1     103.755 126.960  80.177  0.00  0.00    +0.000 A 
ATOM      7  C   UNL     1     102.933 127.134  81.292  0.00  0.00    +0.000 A 
BRANCH   4   8
ATOM      8  C   UNL     1     104.781 123.397  80.587  0.00  0.00    +0.000 C 
ATOM      9  N   UNL     1     105.289 122.370  80.401  0.00  0.00    +0.000 NA
ENDBRANCH   4   8
ENDBRANCH   1   2
BRANCH   1  10
ATOM     10  S   UNL     1     100.220 126.989  82.935  0.00  0.00    +0.000 S 
BRANCH  10  14
ATOM     11  C   UNL     1     100.696 131.275  84.543  0.00  0.00    +0.000 A 
ATOM     12  C   UNL     1      99.497 130.924  83.927  0.00  0.00    +0.000 A 
ATOM     13  C   UNL     1      99.313 129.632  83.424  0.00  0.00    +0.000 A 
ATOM     14  C   UNL     1     100.327 128.674  83.530  0.00  0.00    +0.000 A 
ATOM     15  C   UNL     1     101.528 129.042  84.154  0.00  0.00    +0.000 A 
ATOM     16  C   UNL     1     101.713 130.332  84.657  0.00  0.00    +0.000 A 
ENDBRANCH  10  14
ENDBRANCH   1  10
TORSDOF 4
ENDMDL
