MODEL 1
REMARK VINA RESULT:      -4.6      0.000      0.000
REMARK  Name = *****
REMARK  5 active torsions:
REMARK  status: ('A' for Active; 'I' for Inactive)
REMARK    1  A    between atoms: C_1  and  C_2
REMARK    2  A    between atoms: C_5  and  N_8
REMARK    3  A    between atoms: N_8  and  S_9
REMARK    4  A    between atoms: S_9  and  C_10
REMARK    5  A    between atoms: C_13  and  C_16
REMARK                            x       y       z     vdW  Elec       q    Type
REMARK                         _______ _______ _______ _____ _____    ______ ____
ROOT
ATOM      1  N   UNL     1      89.251  63.721  87.767  0.00  0.00    +0.000 N 
ATOM      2  H   UNL     1      90.197  63.495  87.917  0.00  0.00    +0.000 HD
ENDROOT
BRANCH   1   7
ATOM      3  C   UNL     1      85.241  62.862  91.799  0.00  0.00    +0.000 C 
ATOM      4  C   UNL     1      86.286  63.108  90.753  0.00  0.00    +0.000 A 
ATOM      5  C   UNL     1      87.377  63.938  91.020  0.00  0.00    +0.000 A 
ATOM      6  C   UNL     1      88.370  64.143  90.055  0.00  0.00    +0.000 A 
ATOM      7  C   UNL     1      88.319  63.498  88.812  0.00  0.00    +0.000 A 
ATOM      8  C   UNL     1      87.206  62.684  88.549  0.00  0.00    +0.000 A 
ATOM      9  C   UNL     1      86.211  62.476  89.511  0.00  0.00    +0.000 A 
ENDBRANCH   1   7
BRANCH   1  10
ATOM     10  S   UNL     1      88.797  64.355  86.293  0.00  0.00    +0.000 S 
BRANCH  10  11
ATOM     11  C   UNL     1      88.828  66.118  86.606  0.00  0.00    +0.000 A 
ATOM     12  C   UNL     1      87.827  66.805  87.299  0.00  0.00    +0.000 A 
ATOM     13  C   UNL     1      87.918  68.186  87.506  0.00  0.00    +0.000 A 
ATOM     14  C   UNL     1      89.019  68.904  87.032  0.00  0.00    +0.000 A 
ATOM     15  C   UNL     1      90.014  68.225  86.323  0.00  0.00    +0.000 A 
ATOM     16  C   UNL     1      89.921  66.845  86.118  0.00  0.00    +0.000 A 
ATOM     17  C   UNL     1      89.100  70.390  87.224  0.00  0.00    +0.000 C 
ENDBRANCH  10  11
ENDBRANCH   1  10
TORSDOF 3
ENDMDL
