REMARK  Name = *****
REMARK  5 active torsions:
REMARK  status: ('A' for Active; 'I' for Inactive)
REMARK    1  A    between atoms: C_1  and  C_2
REMARK    2  A    between atoms: C_2  and  C_7
REMARK    3  A    between atoms: C_7  and  C_8
REMARK    4  A    between atoms: C_8  and  C_9
REMARK    5  A    between atoms: C_9  and  C_14
REMARK                            x       y       z     vdW  Elec       q    Type
REMARK                         _______ _______ _______ _____ _____    ______ ____
ROOT
ATOM      1  C   UNL     1       0.651   1.289   1.820  0.00  0.00    +0.000 C 
ENDROOT
BRANCH   1   3
ATOM      2  C   UNL     1       0.780  -0.578   0.125  0.00  0.00    +0.000 C 
ATOM      3  C   UNL     1       0.272   0.846   0.385  0.00  0.00    +0.000 C 
ATOM      4  S   UNL     1       1.027   1.942  -0.885  0.00  0.00    +0.000 S 
ATOM      5  C   UNL     1      -0.511   2.684  -1.487  0.00  0.00    +0.000 C 
ATOM      6  C   UNL     1      -1.575   1.608  -1.478  0.00  0.00    +0.000 C 
ATOM      7  S   UNL     1      -1.553   0.839   0.160  0.00  0.00    +0.000 S 
ENDBRANCH   1   3
BRANCH   1   8
ATOM      8  C   UNL     1       0.236   2.721   2.230  0.00  0.00    +0.000 C 
BRANCH   8   9
ATOM      9  C   UNL     1       0.602   3.132   3.676  0.00  0.00    +0.000 C 
ATOM     10  S   UNL     1       2.428   3.145   3.919  0.00  0.00    +0.000 S 
ATOM     11  C   UNL     1       2.597   4.876   4.428  0.00  0.00    +0.000 C 
ATOM     12  C   UNL     1       1.548   5.687   3.699  0.00  0.00    +0.000 C 
ATOM     13  S   UNL     1      -0.030   4.843   3.948  0.00  0.00    +0.000 S 
ATOM     14  C   UNL     1      -0.031   2.228   4.735  0.00  0.00    +0.000 C 
ENDBRANCH   8   9
ENDBRANCH   1   8
TORSDOF 3
