MODEL 1
REMARK VINA RESULT:      -4.9      0.000      0.000
REMARK  Name = *****
REMARK  2 active torsions:
REMARK  status: ('A' for Active; 'I' for Inactive)
REMARK    1  A    between atoms: C_4  and  C_6
REMARK    2  A    between atoms: C_7  and  C_8
REMARK                            x       y       z     vdW  Elec       q    Type
REMARK                         _______ _______ _______ _____ _____    ______ ____
ROOT
ATOM      1  C   UNL     1     101.331 126.936  82.656  0.00  0.00    +0.000 A 
ATOM      2  C   UNL     1     101.836 128.076  83.301  0.00  0.00    +0.000 A 
ATOM      3  C   UNL     1     100.993 129.099  83.732  0.00  0.00    +0.000 A 
ATOM      4  C   UNL     1      99.627 129.009  83.518  0.00  0.00    +0.000 A 
ATOM      5  C   UNL     1      99.104 127.902  82.869  0.00  0.00    +0.000 A 
ATOM      6  C   UNL     1      99.946 126.879  82.437  0.00  0.00    +0.000 A 
ATOM      7  F   UNL     1      99.400 125.837  81.790  0.00  0.00    +0.000 F 
ATOM      8  F   UNL     1      97.785 127.817  82.650  0.00  0.00    +0.000 F 
ATOM      9  F   UNL     1      98.815 129.991  83.932  0.00  0.00    +0.000 F 
ATOM     10  F   UNL     1     101.505 130.171  84.352  0.00  0.00    +0.000 F 
ATOM     11  F   UNL     1     103.154 128.195  83.518  0.00  0.00    +0.000 F 
ENDROOT
BRANCH   1  13
ATOM     12  C   UNL     1     103.083 126.005  81.130  0.00  0.00    +0.000 C 
ATOM     13  C   UNL     1     102.278 125.902  82.199  0.00  0.00    +0.000 C 
BRANCH  12  17
ATOM     14  C   UNL     1     105.519 123.633  79.766  0.00  0.00    +0.000 A 
ATOM     15  C   UNL     1     104.936 122.950  80.803  0.00  0.00    +0.000 A 
ATOM     16  O   UNL     1     104.000 123.719  81.407  0.00  0.00    +0.000 OA
ATOM     17  C   UNL     1     103.954 124.939  80.766  0.00  0.00    +0.000 A 
ATOM     18  C   UNL     1     104.894 124.902  79.741  0.00  0.00    +0.000 A 
ENDBRANCH  12  17
ENDBRANCH   1  13
TORSDOF 2
ENDMDL
