MODEL 1
REMARK VINA RESULT:      -4.3      0.000      0.000
REMARK  Name = *****
REMARK  3 active torsions:
REMARK  status: ('A' for Active; 'I' for Inactive)
REMARK    1  A    between atoms: C_4  and  S_7
REMARK    2  A    between atoms: S_7  and  C_8
REMARK    3  A    between atoms: C_8  and  C_10
REMARK                            x       y       z     vdW  Elec       q    Type
REMARK                         _______ _______ _______ _____ _____    ______ ____
ROOT
ATOM      1  C   UNL     1     103.024 125.355  83.969  0.00  0.00    +0.000 C 
ATOM      2  O   UNL     1     102.618 124.817  84.992  0.00  0.00    +0.000 OA
ENDROOT
BRANCH   1   3
ATOM      3  C   UNL     1     103.662 124.542  82.887  0.00  0.00    +0.000 A 
ATOM      4  C   UNL     1     104.276 123.298  83.104  0.00  0.00    +0.000 A 
ATOM      5  C   UNL     1     104.859 122.602  82.040  0.00  0.00    +0.000 A 
ATOM      6  C   UNL     1     104.830 123.145  80.761  0.00  0.00    +0.000 A 
ATOM      7  C   UNL     1     104.229 124.373  80.523  0.00  0.00    +0.000 A 
ATOM      8  C   UNL     1     103.646 125.072  81.583  0.00  0.00    +0.000 A 
ATOM      9  F   UNL     1     105.391 122.475  79.746  0.00  0.00    +0.000 F 
ENDBRANCH   1   3
BRANCH   1  10
ATOM     10  S   UNL     1     102.891 127.097  83.743  0.00  0.00    +0.000 S 
BRANCH  10  14
ATOM     11  C   UNL     1      98.591 128.339  82.544  0.00  0.00    +0.000 C 
ATOM     12  C   UNL     1      98.925 126.851  82.519  0.00  0.00    +0.000 C 
ATOM     13  C   UNL     1     100.434 126.610  82.561  0.00  0.00    +0.000 C 
ATOM     14  C   UNL     1     101.074 127.301  83.773  0.00  0.00    +0.000 C 
ATOM     15  C   UNL     1     100.747 128.801  83.777  0.00  0.00    +0.000 C 
ATOM     16  C   UNL     1      99.238 129.040  83.735  0.00  0.00    +0.000 C 
ENDBRANCH  10  14
ENDBRANCH   1  10
TORSDOF 3
ENDMDL
