MODEL 1
REMARK VINA RESULT:      -4.1      0.000      0.000
REMARK  Name = *****
REMARK  5 active torsions:
REMARK  status: ('A' for Active; 'I' for Inactive)
REMARK    1  A    between atoms: C_1  and  C_2
REMARK    2  A    between atoms: C_2  and  C_3
REMARK    3  A    between atoms: C_2  and  C_11
REMARK    4  A    between atoms: C_3  and  C_4
REMARK    5  A    between atoms: C_4  and  C_5
REMARK                            x       y       z     vdW  Elec       q    Type
REMARK                         _______ _______ _______ _____ _____    ______ ____
ROOT
ATOM      1  C   UNL     1     100.909 126.546  83.726  0.00  0.00    +0.000 C 
ENDROOT
BRANCH   1   3
ATOM      2  C   UNL     1      98.714 126.785  82.428  0.00  0.00    +0.000 C 
ATOM      3  C   UNL     1      99.444 127.031  83.754  0.00  0.00    +0.000 C 
BRANCH   3   4
ATOM      4  C   UNL     1      99.357 128.484  84.170  0.00  0.00    +0.000 C 
ATOM      5  C   UNL     1      99.524 129.529  83.347  0.00  0.00    +0.000 C 
ATOM      6  C   UNL     1      99.419 130.883  83.978  0.00  0.00    +0.000 C 
ATOM      7  C   UNL     1      98.789 130.712  85.358  0.00  0.00    +0.000 C 
ATOM      8  S   UNL     1      99.054 128.969  85.816  0.00  0.00    +0.000 S 
ENDBRANCH   3   4
ENDBRANCH   1   3
BRANCH   1   9
ATOM      9  C   UNL     1     101.442 126.330  82.305  0.00  0.00    +0.000 C 
BRANCH   9  10
ATOM     10  C   UNL     1     102.597 127.253  81.998  0.00  0.00    +0.000 A 
ATOM     11  C   UNL     1     103.034 128.188  82.945  0.00  0.00    +0.000 A 
ATOM     12  C   UNL     1     104.093 129.049  82.653  0.00  0.00    +0.000 A 
ATOM     13  C   UNL     1     104.722 128.987  81.411  0.00  0.00    +0.000 A 
ATOM     14  C   UNL     1     104.291 128.063  80.458  0.00  0.00    +0.000 A 
ATOM     15  C   UNL     1     103.233 127.202  80.750  0.00  0.00    +0.000 A 
ENDBRANCH   9  10
ENDBRANCH   1   9
TORSDOF 4
ENDMDL
