REMARK  Name = *****
REMARK  3 active torsions:
REMARK  status: ('A' for Active; 'I' for Inactive)
REMARK    1  A    between atoms: C_1  and  C_2
REMARK    2  A    between atoms: C_7  and  C_8
REMARK    3  A    between atoms: C_8  and  C_9
REMARK                            x       y       z     vdW  Elec       q    Type
REMARK                         _______ _______ _______ _____ _____    ______ ____
ROOT
ATOM      1  C   UNL     1       2.307  -2.794   0.181  0.00  0.00    +0.000 A 
ATOM      2  N   UNL     1       3.214  -2.860   1.140  0.00  0.00    +0.000 NA
ATOM      3  C   UNL     1       4.392  -3.029   0.458  0.00  0.00    +0.000 A 
ATOM      4  C   UNL     1       5.710  -3.157   0.914  0.00  0.00    +0.000 A 
ATOM      5  C   UNL     1       6.726  -3.325  -0.039  0.00  0.00    +0.000 A 
ATOM      6  C   UNL     1       6.435  -3.364  -1.409  0.00  0.00    +0.000 A 
ATOM      7  C   UNL     1       5.121  -3.238  -1.880  0.00  0.00    +0.000 A 
ATOM      8  C   UNL     1       4.146  -3.073  -0.904  0.00  0.00    +0.000 A 
ATOM      9  O   UNL     1       2.802  -2.930  -1.092  0.00  0.00    +0.000 OA
ENDROOT
BRANCH   1  10
ATOM     10  C   UNL     1       0.833  -2.621   0.310  0.00  0.00    +0.000 C 
BRANCH  10  17
ATOM     11  C   UNL     1      -0.542  -1.546  -2.170  0.00  0.00    +0.000 C 
ATOM     12  C   UNL     1      -0.246  -0.676  -0.979  0.00  0.00    +0.000 A 
ATOM     13  C   UNL     1      -0.629   0.676  -1.019  0.00  0.00    +0.000 A 
ATOM     14  C   UNL     1      -0.376   1.526   0.058  0.00  0.00    +0.000 A 
ATOM     15  C   UNL     1       0.264   1.038   1.191  0.00  0.00    +0.000 A 
ATOM     16  C   UNL     1       0.643  -0.301   1.250  0.00  0.00    +0.000 A 
ATOM     17  C   UNL     1       0.390  -1.177   0.176  0.00  0.00    +0.000 A 
ENDBRANCH  10  17
ENDBRANCH   1  10
TORSDOF 2
