REMARK  Name = *****
REMARK  3 active torsions:
REMARK  status: ('A' for Active; 'I' for Inactive)
REMARK    1  A    between atoms: C_4  and  C_7
REMARK    2  A    between atoms: C_7  and  S_9
REMARK    3  A    between atoms: S_9  and  C_10
REMARK                            x       y       z     vdW  Elec       q    Type
REMARK                         _______ _______ _______ _____ _____    ______ ____
ROOT
ATOM      1  C   UNL     1      -2.859  -0.103  -0.120  0.00  0.00    +0.000 C 
ATOM      2  O   UNL     1      -3.472   0.958  -0.100  0.00  0.00    +0.000 OA
ENDROOT
BRANCH   1   6
ATOM      3  C   UNL     1       1.444   0.024  -0.058  0.00  0.00    +0.000 A 
ATOM      4  C   UNL     1       0.804  -1.212   0.012  0.00  0.00    +0.000 A 
ATOM      5  C   UNL     1      -0.593  -1.284  -0.009  0.00  0.00    +0.000 A 
ATOM      6  C   UNL     1      -1.363  -0.116  -0.103  0.00  0.00    +0.000 A 
ATOM      7  C   UNL     1      -0.704   1.123  -0.169  0.00  0.00    +0.000 A 
ATOM      8  C   UNL     1       0.691   1.192  -0.148  0.00  0.00    +0.000 A 
ENDBRANCH   1   6
BRANCH   1   9
ATOM      9  S   UNL     1      -3.708  -1.645  -0.204  0.00  0.00    +0.000 S 
BRANCH   9  10
ATOM     10  C   UNL     1      -5.060  -1.364   0.923  0.00  0.00    +0.000 A 
ATOM     11  C   UNL     1      -6.375  -1.499   0.467  0.00  0.00    +0.000 A 
ATOM     12  C   UNL     1      -7.448  -1.317   1.343  0.00  0.00    +0.000 A 
ATOM     13  C   UNL     1      -7.211  -1.005   2.680  0.00  0.00    +0.000 A 
ATOM     14  C   UNL     1      -5.903  -0.877   3.144  0.00  0.00    +0.000 A 
ATOM     15  C   UNL     1      -4.830  -1.060   2.269  0.00  0.00    +0.000 A 
ENDBRANCH   9  10
ENDBRANCH   1   9
TORSDOF 3
