MODEL 1
REMARK VINA RESULT:      -4.2      0.000      0.000
REMARK  Name = *****
REMARK  4 active torsions:
REMARK  status: ('A' for Active; 'I' for Inactive)
REMARK    1  A    between atoms: C_4  and  O_7
REMARK    2  A    between atoms: O_7  and  C_8
REMARK    3  A    between atoms: C_8  and  S_9
REMARK    4  A    between atoms: S_9  and  C_10
REMARK                            x       y       z     vdW  Elec       q    Type
REMARK                         _______ _______ _______ _____ _____    ______ ____
ROOT
ATOM      1  C   UNL     1      89.225  68.738  86.239  0.00  0.00    +0.000 C 
ENDROOT
BRANCH   1   2
ATOM      2  O   UNL     1      90.319  67.886  86.562  0.00  0.00    +0.000 OA
BRANCH   2   6
ATOM      3  C   UNL     1      90.079  63.835  85.632  0.00  0.00    +0.000 A 
ATOM      4  C   UNL     1      89.101  64.381  86.463  0.00  0.00    +0.000 A 
ATOM      5  C   UNL     1      89.140  65.736  86.804  0.00  0.00    +0.000 A 
ATOM      6  C   UNL     1      90.162  66.551  86.314  0.00  0.00    +0.000 A 
ATOM      7  C   UNL     1      91.136  65.998  85.478  0.00  0.00    +0.000 A 
ATOM      8  C   UNL     1      91.098  64.645  85.139  0.00  0.00    +0.000 A 
ENDBRANCH   2   6
ENDBRANCH   1   2
BRANCH   1   9
ATOM      9  S   UNL     1      89.089  70.126  87.416  0.00  0.00    +0.000 S 
BRANCH   9  10
ATOM     10  C   UNL     1      87.514  70.882  87.021  0.00  0.00    +0.000 A 
ATOM     11  C   UNL     1      87.054  71.171  85.732  0.00  0.00    +0.000 A 
ATOM     12  C   UNL     1      85.803  71.765  85.536  0.00  0.00    +0.000 A 
ATOM     13  C   UNL     1      84.996  72.080  86.627  0.00  0.00    +0.000 A 
ATOM     14  C   UNL     1      85.440  71.800  87.915  0.00  0.00    +0.000 A 
ATOM     15  C   UNL     1      86.689  71.206  88.109  0.00  0.00    +0.000 A 
ENDBRANCH   9  10
ENDBRANCH   1   9
TORSDOF 4
ENDMDL
