REMARK  Name = *****
REMARK  4 active torsions:
REMARK  status: ('A' for Active; 'I' for Inactive)
REMARK    1  A    between atoms: C_1  and  S_2
REMARK    2  A    between atoms: S_2  and  C_3
REMARK    3  A    between atoms: C_5  and  C_8
REMARK    4  A    between atoms: C_9  and  C_10
REMARK                            x       y       z     vdW  Elec       q    Type
REMARK                         _______ _______ _______ _____ _____    ______ ____
ROOT
ATOM      1  C   UNL     1       3.462   4.176  -3.229  0.00  0.00    +0.000 C 
ATOM      2  C   UNL     1       2.965   5.192  -2.502  0.00  0.00    +0.000 C 
ENDROOT
BRANCH   2   3
ATOM      3  C   UNL     1       2.905   6.582  -2.978  0.00  0.00    +0.000 A 
ATOM      4  C   UNL     1       2.500   6.908  -4.279  0.00  0.00    +0.000 A 
ATOM      5  C   UNL     1       2.425   8.242  -4.686  0.00  0.00    +0.000 A 
ATOM      6  C   UNL     1       2.744   9.263  -3.793  0.00  0.00    +0.000 A 
ATOM      7  C   UNL     1       3.133   8.952  -2.492  0.00  0.00    +0.000 A 
ATOM      8  C   UNL     1       3.207   7.618  -2.085  0.00  0.00    +0.000 A 
ENDBRANCH   2   3
BRANCH   1  11
ATOM      9  C   UNL     1       3.338   0.894  -1.484  0.00  0.00    +0.000 A 
ATOM     10  C   UNL     1       3.118   2.253  -1.566  0.00  0.00    +0.000 A 
ATOM     11  C   UNL     1       3.549   2.807  -2.812  0.00  0.00    +0.000 A 
ATOM     12  C   UNL     1       4.095   1.835  -3.627  0.00  0.00    +0.000 A 
ATOM     13  S   UNL     1       4.088   0.289  -2.894  0.00  0.00    +0.000 S 
BRANCH   9  15
ATOM     14  C   UNL     1       1.779  -1.271  -0.836  0.00  0.00    +0.000 C 
ATOM     15  S   UNL     1       2.948  -0.109  -0.094  0.00  0.00    +0.000 S 
ENDBRANCH   9  15
ENDBRANCH   1  11
TORSDOF 3
