REMARK  Name = *****
REMARK  5 active torsions:
REMARK  status: ('A' for Active; 'I' for Inactive)
REMARK    1  A    between atoms: C_1  and  C_2
REMARK    2  A    between atoms: C_3  and  C_18
REMARK    3  A    between atoms: C_4  and  O_8
REMARK    4  A    between atoms: O_8  and  C_9
REMARK    5  A    between atoms: C_9  and  C_11
REMARK                            x       y       z     vdW  Elec       q    Type
REMARK                         _______ _______ _______ _____ _____    ______ ____
ROOT
ATOM      1  O   UNL     1      -1.136  -2.176  -1.290  0.00  0.00    +0.000 OA
ENDROOT
BRANCH   1   5
ATOM      2  C   UNL     1       1.906   1.219   0.687  0.00  0.00    +0.000 C 
ATOM      3  C   UNL     1       0.543   0.717   0.291  0.00  0.00    +0.000 A 
ATOM      4  C   UNL     1       0.362  -0.561  -0.281  0.00  0.00    +0.000 A 
ATOM      5  C   UNL     1      -0.942  -0.954  -0.630  0.00  0.00    +0.000 A 
ATOM      6  C   UNL     1      -2.044  -0.121  -0.427  0.00  0.00    +0.000 A 
ATOM      7  C   UNL     1      -1.858   1.124   0.163  0.00  0.00    +0.000 A 
ATOM      8  C   UNL     1      -0.575   1.538   0.521  0.00  0.00    +0.000 A 
ATOM      9  C   UNL     1       1.536  -1.458  -0.564  0.00  0.00    +0.000 C 
ENDBRANCH   1   5
BRANCH   1  10
ATOM     10  C   UNL     1      -1.764  -3.145  -0.532  0.00  0.00    +0.000 C 
ATOM     11  O   UNL     1      -2.160  -3.049   0.620  0.00  0.00    +0.000 OA
BRANCH  10  12
ATOM     12  C   UNL     1      -1.909  -4.392  -1.336  0.00  0.00    +0.000 A 
ATOM     13  C   UNL     1      -1.419  -4.513  -2.645  0.00  0.00    +0.000 A 
ATOM     14  C   UNL     1      -1.582  -5.711  -3.350  0.00  0.00    +0.000 A 
ATOM     15  C   UNL     1      -2.233  -6.788  -2.750  0.00  0.00    +0.000 A 
ATOM     16  C   UNL     1      -2.724  -6.680  -1.451  0.00  0.00    +0.000 A 
ATOM     17  C   UNL     1      -2.561  -5.485  -0.744  0.00  0.00    +0.000 A 
ATOM     18 CL   UNL     1      -2.432  -8.258  -3.621  0.00  0.00    +0.000 Cl
ENDBRANCH  10  12
ENDBRANCH   1  10
TORSDOF 3
