MODEL 1
REMARK VINA RESULT:      -4.6      0.000      0.000
REMARK  Name = *****
REMARK  3 active torsions:
REMARK  status: ('A' for Active; 'I' for Inactive)
REMARK    1  A    between atoms: C_4  and  O_7
REMARK    2  A    between atoms: O_7  and  C_8
REMARK    3  A    between atoms: C_8  and  C_10
REMARK                            x       y       z     vdW  Elec       q    Type
REMARK                         _______ _______ _______ _____ _____    ______ ____
ROOT
ATOM      1  C   UNL     1      99.290 127.506  82.904  0.00  0.00    +0.000 C 
ATOM      2  O   UNL     1      98.493 127.122  82.064  0.00  0.00    +0.000 OA
ENDROOT
BRANCH   1   3
ATOM      3  C   UNL     1      99.004 128.597  83.852  0.00  0.00    +0.000 A 
ATOM      4  C   UNL     1      99.500 129.868  83.522  0.00  0.00    +0.000 A 
ATOM      5  C   UNL     1      99.267 130.954  84.364  0.00  0.00    +0.000 A 
ATOM      6  C   UNL     1      98.547 130.776  85.544  0.00  0.00    +0.000 A 
ATOM      7  C   UNL     1      98.070 129.508  85.887  0.00  0.00    +0.000 A 
ATOM      8  C   UNL     1      98.301 128.413  85.048  0.00  0.00    +0.000 A 
ATOM      9 CL   UNL     1      97.745 126.868  85.588  0.00  0.00    +0.000 Cl
ENDBRANCH   1   3
BRANCH   1  10
ATOM     10  O   UNL     1     100.487 126.949  83.207  0.00  0.00    +0.000 OA
BRANCH  10  14
ATOM     11  C   UNL     1     104.387 126.823  81.547  0.00  0.00    +0.000 C 
ATOM     12  C   UNL     1     103.349 125.853  80.990  0.00  0.00    +0.000 C 
ATOM     13  C   UNL     1     102.142 125.729  81.914  0.00  0.00    +0.000 C 
ATOM     14  C   UNL     1     101.520 127.095  82.217  0.00  0.00    +0.000 C 
ATOM     15  C   UNL     1     102.567 128.054  82.786  0.00  0.00    +0.000 C 
ATOM     16  C   UNL     1     103.775 128.184  81.864  0.00  0.00    +0.000 C 
ENDBRANCH  10  14
ENDBRANCH   1  10
TORSDOF 3
ENDMDL
