MODEL 1
REMARK VINA RESULT:      -4.7      0.000      0.000
REMARK  Name = *****
REMARK  3 active torsions:
REMARK  status: ('A' for Active; 'I' for Inactive)
REMARK    1  A    between atoms: C_2  and  C_9
REMARK    2  A    between atoms: C_10  and  C_11
REMARK    3  A    between atoms: C_14  and  C_16
REMARK                            x       y       z     vdW  Elec       q    Type
REMARK                         _______ _______ _______ _____ _____    ______ ____
ROOT
ATOM      1  C   UNL     1     102.262 126.271  81.914  0.00  0.00    +0.000 C 
ATOM      2  C   UNL     1     103.110 125.588  81.407  0.00  0.00    +0.000 C 
ENDROOT
BRANCH   1   4
ATOM      3  C   UNL     1      99.911 126.746  82.395  0.00  0.00    +0.000 A 
ATOM      4  C   UNL     1     101.257 127.091  82.515  0.00  0.00    +0.000 A 
ATOM      5  C   UNL     1     101.622 128.240  83.224  0.00  0.00    +0.000 A 
ATOM      6  C   UNL     1     100.635 129.035  83.808  0.00  0.00    +0.000 A 
ATOM      7  C   UNL     1      99.289 128.696  83.692  0.00  0.00    +0.000 A 
ATOM      8  C   UNL     1      98.942 127.552  82.984  0.00  0.00    +0.000 A 
ATOM      9  F   UNL     1      97.651 127.219  82.868  0.00  0.00    +0.000 F 
ATOM     10 BR   UNL     1     101.129 130.588  84.766  0.00  0.00    +0.000 Br
ENDBRANCH   1   4
BRANCH   2  11
ATOM     11  C   UNL     1     104.119 124.782  80.806  0.00  0.00    +0.000 A 
ATOM     12  C   UNL     1     104.465 123.514  81.210  0.00  0.00    +0.000 A 
ATOM     13  S   UNL     1     105.721 122.920  80.205  0.00  0.00    +0.000 S 
ATOM     14  C   UNL     1     105.707 124.405  79.329  0.00  0.00    +0.000 A 
ATOM     15  N   UNL     1     104.815 125.290  79.733  0.00  0.00    +0.000 NA
BRANCH  14  16
ATOM     16  C   UNL     1     106.644 124.603  78.182  0.00  0.00    +0.000 C 
ATOM     17  F   UNL     1     106.050 124.319  76.987  0.00  0.00    +0.000 F 
ENDBRANCH  14  16
ENDBRANCH   2  11
TORSDOF 3
ENDMDL
