MODEL 1
REMARK VINA RESULT:      -4.3      0.000      0.000
REMARK  Name = *****
REMARK  3 active torsions:
REMARK  status: ('A' for Active; 'I' for Inactive)
REMARK    1  A    between atoms: C_5  and  O_7
REMARK    2  A    between atoms: O_7  and  C_8
REMARK    3  A    between atoms: C_8  and  C_10
REMARK                            x       y       z     vdW  Elec       q    Type
REMARK                         _______ _______ _______ _____ _____    ______ ____
ROOT
ATOM      1  O   UNL     1     102.383 125.605  81.830  0.00  0.00    +0.000 OA
ENDROOT
BRANCH   1   6
ATOM      2  C   UNL     1     105.536 124.418  80.138  0.00  0.00    +0.000 C 
ATOM      3  C   UNL     1     106.223 125.768  79.949  0.00  0.00    +0.000 C 
ATOM      4  C   UNL     1     105.965 126.710  81.127  0.00  0.00    +0.000 C 
ATOM      5  C   UNL     1     104.477 126.871  81.448  0.00  0.00    +0.000 C 
ATOM      6  C   UNL     1     103.808 125.494  81.637  0.00  0.00    +0.000 C 
ATOM      7  C   UNL     1     104.049 124.568  80.440  0.00  0.00    +0.000 C 
ATOM      8 CL   UNL     1     103.670 127.820  80.146  0.00  0.00    +0.000 Cl
ENDBRANCH   1   6
BRANCH   1   9
ATOM      9  C   UNL     1     101.976 125.851  83.099  0.00  0.00    +0.000 C 
ATOM     10  O   UNL     1     102.350 125.249  84.093  0.00  0.00    +0.000 OA
BRANCH   9  11
ATOM     11  C   UNL     1     100.992 126.966  83.129  0.00  0.00    +0.000 A 
ATOM     12  C   UNL     1      99.729 126.752  82.559  0.00  0.00    +0.000 A 
ATOM     13  C   UNL     1      98.771 127.767  82.568  0.00  0.00    +0.000 A 
ATOM     14  C   UNL     1      99.068 129.000  83.148  0.00  0.00    +0.000 A 
ATOM     15  C   UNL     1     100.321 129.221  83.719  0.00  0.00    +0.000 A 
ATOM     16  C   UNL     1     101.283 128.208  83.712  0.00  0.00    +0.000 A 
ENDBRANCH   9  11
ENDBRANCH   1   9
TORSDOF 3
ENDMDL
