MODEL 1
REMARK VINA RESULT:      -4.1      0.000      0.000
REMARK  Name = *****
REMARK  5 active torsions:
REMARK  status: ('A' for Active; 'I' for Inactive)
REMARK    1  A    between atoms: C_1  and  C_2
REMARK    2  A    between atoms: C_2  and  C_3
REMARK    3  A    between atoms: C_2  and  C_9
REMARK    4  A    between atoms: C_2  and  S_12
REMARK    5  A    between atoms: S_12  and  C_13
REMARK                            x       y       z     vdW  Elec       q    Type
REMARK                         _______ _______ _______ _____ _____    ______ ____
ROOT
ATOM      1  C   UNL     1      90.467  70.746  84.310  0.00  0.00    +0.000 C 
ATOM      2  C   UNL     1      88.924  70.643  84.431  0.00  0.00    +0.000 C 
ENDROOT
BRANCH   2   3
ATOM      3  C   UNL     1      88.425  70.760  85.888  0.00  0.00    +0.000 A 
ATOM      4  C   UNL     1      87.086  71.085  86.178  0.00  0.00    +0.000 A 
ATOM      5  C   UNL     1      86.622  71.166  87.496  0.00  0.00    +0.000 A 
ATOM      6  C   UNL     1      87.481  70.911  88.559  0.00  0.00    +0.000 A 
ATOM      7  C   UNL     1      88.804  70.570  88.304  0.00  0.00    +0.000 A 
ATOM      8  C   UNL     1      89.268  70.490  86.987  0.00  0.00    +0.000 A 
ENDBRANCH   2   3
BRANCH   2   9
ATOM      9  C   UNL     1      88.324  71.792  83.552  0.00  0.00    +0.000 C 
ATOM     10  O   UNL     1      87.373  71.603  82.791  0.00  0.00    +0.000 OA
ATOM     11 CL   UNL     1      89.104  73.358  83.712  0.00  0.00    +0.000 Cl
ENDBRANCH   2   9
BRANCH   2  12
ATOM     12  S   UNL     1      88.433  69.008  83.608  0.00  0.00    +0.000 S 
BRANCH  12  13
ATOM     13  C   UNL     1      88.708  67.811  84.899  0.00  0.00    +0.000 A 
ATOM     14  C   UNL     1      89.982  67.313  85.188  0.00  0.00    +0.000 A 
ATOM     15  C   UNL     1      90.162  66.383  86.214  0.00  0.00    +0.000 A 
ATOM     16  C   UNL     1      89.071  65.953  86.967  0.00  0.00    +0.000 A 
ATOM     17  C   UNL     1      87.800  66.460  86.701  0.00  0.00    +0.000 A 
ATOM     18  C   UNL     1      87.621  67.391  85.675  0.00  0.00    +0.000 A 
ENDBRANCH  12  13
ENDBRANCH   2  12
TORSDOF 4
ENDMDL
