MODEL 1
REMARK VINA RESULT:      -4.6      0.000      0.000
REMARK  Name = *****
REMARK  5 active torsions:
REMARK  status: ('A' for Active; 'I' for Inactive)
REMARK    1  A    between atoms: C_1  and  C_2
REMARK    2  A    between atoms: C_5  and  S_8
REMARK    3  A    between atoms: S_8  and  C_9
REMARK    4  A    between atoms: C_9  and  C_10
REMARK    5  A    between atoms: C_9  and  C_11
REMARK                            x       y       z     vdW  Elec       q    Type
REMARK                         _______ _______ _______ _____ _____    ______ ____
ROOT
ATOM      1  S   UNL     1      89.168  70.255  87.082  0.00  0.00    +0.000 S 
ENDROOT
BRANCH   1   6
ATOM      2  C   UNL     1      88.885  64.200  86.445  0.00  0.00    +0.000 C 
ATOM      3  C   UNL     1      88.940  65.693  86.575  0.00  0.00    +0.000 A 
ATOM      4  C   UNL     1      90.041  66.408  86.090  0.00  0.00    +0.000 A 
ATOM      5  C   UNL     1      90.107  67.796  86.241  0.00  0.00    +0.000 A 
ATOM      6  C   UNL     1      89.071  68.488  86.873  0.00  0.00    +0.000 A 
ATOM      7  C   UNL     1      87.989  67.772  87.392  0.00  0.00    +0.000 A 
ATOM      8  C   UNL     1      87.922  66.384  87.242  0.00  0.00    +0.000 A 
ENDBRANCH   1   6
BRANCH   1   9
ATOM      9  C   UNL     1      87.849  70.561  88.337  0.00  0.00    +0.000 C 
ATOM     10  C   UNL     1      88.424  71.227  89.591  0.00  0.00    +0.000 C 
BRANCH   9  11
ATOM     11  C   UNL     1      86.614  71.220  87.746  0.00  0.00    +0.000 A 
ATOM     12  C   UNL     1      85.554  71.695  88.535  0.00  0.00    +0.000 A 
ATOM     13  C   UNL     1      84.443  72.307  87.949  0.00  0.00    +0.000 A 
ATOM     14  C   UNL     1      84.373  72.456  86.566  0.00  0.00    +0.000 A 
ATOM     15  C   UNL     1      85.416  71.996  85.766  0.00  0.00    +0.000 A 
ATOM     16  C   UNL     1      86.527  71.385  86.351  0.00  0.00    +0.000 A 
ENDBRANCH   9  11
ENDBRANCH   1   9
TORSDOF 3
ENDMDL
