MODEL 1
REMARK VINA RESULT:      -4.4      0.000      0.000
REMARK  Name = *****
REMARK  3 active torsions:
REMARK  status: ('A' for Active; 'I' for Inactive)
REMARK    1  A    between atoms: C_4  and  C_7
REMARK    2  A    between atoms: C_7  and  C_9
REMARK    3  A    between atoms: C_9  and  C_10
REMARK                            x       y       z     vdW  Elec       q    Type
REMARK                         _______ _______ _______ _____ _____    ______ ____
ROOT
ATOM      1  C   UNL     1     100.674 127.008  82.821  0.00  0.00    +0.000 C 
ATOM      2  O   UNL     1      99.714 126.495  82.243  0.00  0.00    +0.000 OA
ENDROOT
BRANCH   1   6
ATOM      3  C   UNL     1     100.346 130.788  84.955  0.00  0.00    +0.000 C 
ATOM      4  C   UNL     1     101.738 130.232  84.669  0.00  0.00    +0.000 C 
ATOM      5  C   UNL     1     101.692 128.755  84.289  0.00  0.00    +0.000 C 
ATOM      6  C   UNL     1     100.733 128.503  83.121  0.00  0.00    +0.000 C 
ATOM      7  C   UNL     1      99.336 129.059  83.421  0.00  0.00    +0.000 C 
ATOM      8  C   UNL     1      99.391 130.538  83.792  0.00  0.00    +0.000 C 
ENDBRANCH   1   6
BRANCH   1   9
ATOM      9  C   UNL     1     101.839 126.158  83.297  0.00  0.00    +0.000 C 
BRANCH   9  10
ATOM     10  C   UNL     1     102.811 125.835  82.190  0.00  0.00    +0.000 A 
ATOM     11  C   UNL     1     103.030 126.742  81.143  0.00  0.00    +0.000 A 
ATOM     12  C   UNL     1     103.929 126.433  80.120  0.00  0.00    +0.000 A 
ATOM     13  C   UNL     1     104.612 125.218  80.138  0.00  0.00    +0.000 A 
ATOM     14  C   UNL     1     104.407 124.310  81.174  0.00  0.00    +0.000 A 
ATOM     15  C   UNL     1     103.508 124.618  82.198  0.00  0.00    +0.000 A 
ATOM     16 CL   UNL     1     105.718 124.840  78.875  0.00  0.00    +0.000 Cl
ENDBRANCH   9  10
ENDBRANCH   1   9
TORSDOF 3
ENDMDL
