MODEL 1
REMARK VINA RESULT:      -3.8      0.000      0.000
REMARK  Name = *****
REMARK  4 active torsions:
REMARK  status: ('A' for Active; 'I' for Inactive)
REMARK    1  A    between atoms: C_4  and  C_7
REMARK    2  A    between atoms: C_7  and  C_8
REMARK    3  A    between atoms: C_8  and  S_10
REMARK    4  A    between atoms: S_10  and  C_11
REMARK                            x       y       z     vdW  Elec       q    Type
REMARK                         _______ _______ _______ _____ _____    ______ ____
ROOT
ATOM      1  C   UNL     1      87.806  63.442  86.638  0.00  0.00    +0.000 C 
ATOM      2  F   UNL     1      88.446  63.318  85.441  0.00  0.00    +0.000 F 
ENDROOT
BRANCH   1   3
ATOM      3  C   UNL     1      86.310  63.200  86.424  0.00  0.00    +0.000 C 
BRANCH   3   7
ATOM      4  C   UNL     1      84.428  61.618  89.975  0.00  0.00    +0.000 A 
ATOM      5  C   UNL     1      83.718  62.470  89.130  0.00  0.00    +0.000 A 
ATOM      6  C   UNL     1      84.323  62.980  87.980  0.00  0.00    +0.000 A 
ATOM      7  C   UNL     1      85.645  62.639  87.663  0.00  0.00    +0.000 A 
ATOM      8  C   UNL     1      86.351  61.784  88.521  0.00  0.00    +0.000 A 
ATOM      9  C   UNL     1      85.744  61.276  89.670  0.00  0.00    +0.000 A 
ENDBRANCH   3   7
ENDBRANCH   1   3
BRANCH   1  10
ATOM     10  S   UNL     1      88.074  65.136  87.269  0.00  0.00    +0.000 S 
BRANCH  10  11
ATOM     11  C   UNL     1      87.763  64.891  89.009  0.00  0.00    +0.000 A 
ATOM     12  C   UNL     1      86.631  65.411  89.646  0.00  0.00    +0.000 A 
ATOM     13  C   UNL     1      86.420  65.184  91.008  0.00  0.00    +0.000 A 
ATOM     14  C   UNL     1      87.334  64.429  91.741  0.00  0.00    +0.000 A 
ATOM     15  C   UNL     1      88.455  63.893  91.111  0.00  0.00    +0.000 A 
ATOM     16  C   UNL     1      88.666  64.120  89.749  0.00  0.00    +0.000 A 
ENDBRANCH  10  11
ENDBRANCH   1  10
TORSDOF 4
ENDMDL
