MODEL 1
REMARK VINA RESULT:      -5.0      0.000      0.000
REMARK  Name = *****
REMARK  1 active torsions:
REMARK  status: ('A' for Active; 'I' for Inactive)
REMARK    1  A    between atoms: N_7  and  C_9
REMARK                            x       y       z     vdW  Elec       q    Type
REMARK                         _______ _______ _______ _____ _____    ______ ____
ROOT
ATOM      1  C   UNL     1     102.629 126.729  81.616  0.00  0.00    +0.000 A 
ATOM      2  C   UNL     1     102.977 125.369  81.622  0.00  0.00    +0.000 A 
ATOM      3  C   UNL     1     104.070 124.867  80.882  0.00  0.00    +0.000 A 
ATOM      4  C   UNL     1     104.402 123.502  80.894  0.00  0.00    +0.000 A 
ATOM      5  C   UNL     1     105.488 123.021  80.161  0.00  0.00    +0.000 A 
ATOM      6  C   UNL     1     106.258 123.898  79.404  0.00  0.00    +0.000 A 
ATOM      7  C   UNL     1     105.942 125.257  79.378  0.00  0.00    +0.000 A 
ATOM      8  C   UNL     1     104.852 125.753  80.113  0.00  0.00    +0.000 A 
ATOM      9  C   UNL     1     104.522 127.111  80.103  0.00  0.00    +0.000 A 
ATOM     10  C   UNL     1     103.432 127.584  80.844  0.00  0.00    +0.000 A 
ENDROOT
BRANCH   1  17
ATOM     11  C   UNL     1     101.720 127.103  84.762  0.00  0.00    +0.000 C 
ATOM     12  C   UNL     1     100.390 126.315  84.708  0.00  0.00    +0.000 C 
ATOM     13  C   UNL     1      99.546 126.837  83.528  0.00  0.00    +0.000 C 
ATOM     14  C   UNL     1      99.375 128.332  83.648  0.00  0.00    +0.000 C 
ATOM     15  C   UNL     1     100.547 128.988  83.663  0.00  0.00    +0.000 C 
ATOM     16  C   UNL     1     101.762 128.080  83.570  0.00  0.00    +0.000 C 
ATOM     17  N   UNL     1     101.561 127.267  82.351  0.00  0.00    +0.000 N 
ATOM     18  O   UNL     1     100.292 126.583  82.307  0.00  0.00    +0.000 OA
ENDBRANCH   1  17
TORSDOF 1
ENDMDL
