MODEL 1
REMARK VINA RESULT:      -4.2      0.000      0.000
REMARK  Name = *****
REMARK  3 active torsions:
REMARK  status: ('A' for Active; 'I' for Inactive)
REMARK    1  A    between atoms: C_4  and  C_7
REMARK    2  A    between atoms: C_7  and  S_8
REMARK    3  A    between atoms: S_8  and  C_9
REMARK                            x       y       z     vdW  Elec       q    Type
REMARK                         _______ _______ _______ _____ _____    ______ ____
ROOT
ATOM      1  S   UNL     1     103.069 126.833  81.466  0.00  0.00    +0.000 S 
ENDROOT
BRANCH   1   2
ATOM      2  C   UNL     1     104.023 125.432  80.906  0.00  0.00    +0.000 A 
ATOM      3  N   UNL     1     103.921 124.265  81.582  0.00  0.00    +0.000 NA
ATOM      4  C   UNL     1     104.648 123.217  81.139  0.00  0.00    +0.000 A 
ATOM      5  C   UNL     1     105.482 123.275  80.041  0.00  0.00    +0.000 A 
ATOM      6  C   UNL     1     105.565 124.483  79.366  0.00  0.00    +0.000 A 
ATOM      7  C   UNL     1     104.832 125.583  79.792  0.00  0.00    +0.000 A 
ATOM      8 CL   UNL     1     106.589 124.620  77.989  0.00  0.00    +0.000 Cl
ENDBRANCH   1   2
BRANCH   1   9
ATOM      9  C   UNL     1     101.664 125.986  82.274  0.00  0.00    +0.000 C 
BRANCH   9  13
ATOM     10  C   UNL     1      99.342 129.523  83.439  0.00  0.00    +0.000 C 
ATOM     11  C   UNL     1      98.596 128.201  83.294  0.00  0.00    +0.000 C 
ATOM     12  C   UNL     1      99.405 127.177  82.502  0.00  0.00    +0.000 C 
ATOM     13  C   UNL     1     100.802 126.953  83.110  0.00  0.00    +0.000 C 
ATOM     14  C   UNL     1     101.539 128.298  83.251  0.00  0.00    +0.000 C 
ATOM     15  C   UNL     1     100.725 129.317  84.044  0.00  0.00    +0.000 C 
ENDBRANCH   9  13
ENDBRANCH   1   9
TORSDOF 3
ENDMDL
