MODEL 1
REMARK VINA RESULT:      -4.7      0.000      0.000
REMARK  Name = *****
REMARK  3 active torsions:
REMARK  status: ('A' for Active; 'I' for Inactive)
REMARK    1  A    between atoms: C_3  and  O_8
REMARK    2  A    between atoms: O_8  and  C_9
REMARK    3  A    between atoms: C_9  and  C_11
REMARK                            x       y       z     vdW  Elec       q    Type
REMARK                         _______ _______ _______ _____ _____    ______ ____
ROOT
ATOM      1  C   UNL     1     103.296 126.755  81.656  0.00  0.00    +0.000 C 
ATOM      2  O   UNL     1     103.316 127.456  80.655  0.00  0.00    +0.000 OA
ENDROOT
BRANCH   1   3
ATOM      3  C   UNL     1     103.798 125.352  81.674  0.00  0.00    +0.000 A 
ATOM      4  C   UNL     1     103.855 124.580  82.844  0.00  0.00    +0.000 A 
ATOM      5  C   UNL     1     104.337 123.268  82.799  0.00  0.00    +0.000 A 
ATOM      6  C   UNL     1     104.762 122.724  81.588  0.00  0.00    +0.000 A 
ATOM      7  C   UNL     1     104.711 123.480  80.418  0.00  0.00    +0.000 A 
ATOM      8  C   UNL     1     104.230 124.792  80.462  0.00  0.00    +0.000 A 
ATOM      9 CL   UNL     1     105.355 121.110  81.538  0.00  0.00    +0.000 Cl
ENDBRANCH   1   3
BRANCH   1  10
ATOM     10  O   UNL     1     102.830 127.100  82.910  0.00  0.00    +0.000 OA
BRANCH  10  13
ATOM     11  C   UNL     1      99.821 129.106  83.566  0.00  0.00    +0.000 A 
ATOM     12  C   UNL     1     101.160 128.721  83.487  0.00  0.00    +0.000 A 
ATOM     13  C   UNL     1     101.486 127.484  82.927  0.00  0.00    +0.000 A 
ATOM     14  C   UNL     1     100.499 126.611  82.477  0.00  0.00    +0.000 A 
ATOM     15  C   UNL     1      99.171 127.009  82.562  0.00  0.00    +0.000 A 
ATOM     16  C   UNL     1      98.824 128.247  83.099  0.00  0.00    +0.000 A 
ATOM     17  F   UNL     1      98.207 126.188  82.129  0.00  0.00    +0.000 F 
ENDBRANCH  10  13
ENDBRANCH   1  10
TORSDOF 3
ENDMDL
