MODEL 1
REMARK VINA RESULT:      -4.3      0.000      0.000
REMARK  Name = *****
REMARK  4 active torsions:
REMARK  status: ('A' for Active; 'I' for Inactive)
REMARK    1  A    between atoms: C_1  and  C_2
REMARK    2  A    between atoms: C_7  and  C_8
REMARK    3  A    between atoms: C_8  and  O_10
REMARK    4  A    between atoms: O_10  and  C_11
REMARK                            x       y       z     vdW  Elec       q    Type
REMARK                         _______ _______ _______ _____ _____    ______ ____
ROOT
ATOM      1  C   UNL     1      88.346  70.589  85.662  0.00  0.00    +0.000 C 
ATOM      2  O   UNL     1      89.427  71.157  85.640  0.00  0.00    +0.000 OA
ENDROOT
BRANCH   1   9
ATOM      3  C   UNL     1      88.184  70.388  88.703  0.00  0.00    +0.000 C 
ATOM      4  C   UNL     1      87.106  71.001  87.854  0.00  0.00    +0.000 A 
ATOM      5  C   UNL     1      85.968  71.528  88.490  0.00  0.00    +0.000 A 
ATOM      6  C   UNL     1      84.924  72.084  87.749  0.00  0.00    +0.000 A 
ATOM      7  C   UNL     1      84.996  72.124  86.360  0.00  0.00    +0.000 A 
ATOM      8  C   UNL     1      86.124  71.623  85.711  0.00  0.00    +0.000 A 
ATOM      9  C   UNL     1      87.187  71.081  86.449  0.00  0.00    +0.000 A 
ENDBRANCH   1   9
BRANCH   1  10
ATOM     10  O   UNL     1      88.012  69.374  85.095  0.00  0.00    +0.000 OA
BRANCH  10  11
ATOM     11  C   UNL     1      88.438  68.213  85.757  0.00  0.00    +0.000 A 
ATOM     12  C   UNL     1      87.458  67.460  86.403  0.00  0.00    +0.000 A 
ATOM     13  C   UNL     1      87.811  66.264  87.026  0.00  0.00    +0.000 A 
ATOM     14  C   UNL     1      89.135  65.822  86.989  0.00  0.00    +0.000 A 
ATOM     15  C   UNL     1      90.107  66.571  86.322  0.00  0.00    +0.000 A 
ATOM     16  C   UNL     1      89.758  67.767  85.694  0.00  0.00    +0.000 A 
ENDBRANCH  10  11
ENDBRANCH   1  10
TORSDOF 3
ENDMDL
