REMARK  Name = *****
REMARK  1 active torsions:
REMARK  status: ('A' for Active; 'I' for Inactive)
REMARK    1  A    between atoms: C_3  and  C_8
REMARK                            x       y       z     vdW  Elec       q    Type
REMARK                         _______ _______ _______ _____ _____    ______ ____
ROOT
ATOM      1  C   UNL     1       2.045   2.962   0.390  0.00  0.00    +0.000 A 
ATOM      2  N   UNL     1       1.769   4.036   1.110  0.00  0.00    +0.000 NA
ATOM      3  C   UNL     1       2.529   5.021   0.534  0.00  0.00    +0.000 A 
ATOM      4  C   UNL     1       3.243   4.501  -0.532  0.00  0.00    +0.000 A 
ATOM      5  O   UNL     1       2.938   3.176  -0.632  0.00  0.00    +0.000 OA
ATOM      6  C   UNL     1       4.111   5.227  -1.338  0.00  0.00    +0.000 A 
ATOM      7  C   UNL     1       4.241   6.579  -1.006  0.00  0.00    +0.000 A 
ATOM      8  C   UNL     1       3.541   7.150   0.065  0.00  0.00    +0.000 A 
ATOM      9  C   UNL     1       2.672   6.378   0.852  0.00  0.00    +0.000 A 
ATOM     10 CL   UNL     1       5.295   7.570  -1.943  0.00  0.00    +0.000 Cl
ENDROOT
BRANCH   1  13
ATOM     11  C   UNL     1       0.065   0.038   1.700  0.00  0.00    +0.000 A 
ATOM     12  C   UNL     1       0.575   1.328   1.529  0.00  0.00    +0.000 A 
ATOM     13  C   UNL     1       1.531   1.602   0.538  0.00  0.00    +0.000 A 
ATOM     14  C   UNL     1       1.969   0.550  -0.281  0.00  0.00    +0.000 A 
ATOM     15  C   UNL     1       1.459  -0.737  -0.105  0.00  0.00    +0.000 A 
ATOM     16  C   UNL     1       0.510  -0.997   0.881  0.00  0.00    +0.000 A 
ATOM     17 CL   UNL     1       2.009  -2.017  -1.116  0.00  0.00    +0.000 Cl
ENDBRANCH   1  13
TORSDOF 1
