REMARK  Name = *****
REMARK  5 active torsions:
REMARK  status: ('A' for Active; 'I' for Inactive)
REMARK    1  A    between atoms: C_1  and  C_2
REMARK    2  A    between atoms: C_2  and  C_3
REMARK    3  A    between atoms: C_3  and  C_4
REMARK    4  A    between atoms: C_3  and  S_10
REMARK    5  A    between atoms: S_10  and  C_11
REMARK                            x       y       z     vdW  Elec       q    Type
REMARK                         _______ _______ _______ _____ _____    ______ ____
ROOT
ATOM      1  C   UNL     1       3.130  -1.108  -0.673  0.00  0.00    +0.000 C 
ENDROOT
BRANCH   1   2
ATOM      2  C   UNL     1       2.537   0.177  -0.111  0.00  0.00    +0.000 A 
ATOM      3  C   UNL     1       2.749   1.422  -0.726  0.00  0.00    +0.000 A 
ATOM      4  C   UNL     1       2.199   2.587  -0.186  0.00  0.00    +0.000 A 
ATOM      5  C   UNL     1       1.433   2.524   0.976  0.00  0.00    +0.000 A 
ATOM      6  C   UNL     1       1.218   1.298   1.601  0.00  0.00    +0.000 A 
ATOM      7  C   UNL     1       1.766   0.133   1.062  0.00  0.00    +0.000 A 
ENDBRANCH   1   2
BRANCH   1   9
ATOM      8  C   UNL     1       3.006  -2.736  -2.654  0.00  0.00    +0.000 C 
ATOM      9  C   UNL     1       2.696  -1.336  -2.136  0.00  0.00    +0.000 C 
ENDBRANCH   1   9
BRANCH   1  10
ATOM     10  S   UNL     1       4.970  -1.113  -0.525  0.00  0.00    +0.000 S 
BRANCH  10  11
ATOM     11  C   UNL     1       5.124  -1.391   1.229  0.00  0.00    +0.000 A 
ATOM     12  C   UNL     1       5.111  -2.693   1.738  0.00  0.00    +0.000 A 
ATOM     13  C   UNL     1       5.231  -2.911   3.113  0.00  0.00    +0.000 A 
ATOM     14  C   UNL     1       5.370  -1.828   3.981  0.00  0.00    +0.000 A 
ATOM     15  C   UNL     1       5.393  -0.529   3.476  0.00  0.00    +0.000 A 
ATOM     16  C   UNL     1       5.275  -0.311   2.102  0.00  0.00    +0.000 A 
ENDBRANCH  10  11
ENDBRANCH   1  10
TORSDOF 4
