MODEL 1
REMARK VINA RESULT:      -3.9      0.000      0.000
REMARK  Name = *****
REMARK  2 active torsions:
REMARK  status: ('A' for Active; 'I' for Inactive)
REMARK    1  A    between atoms: C_3  and  C_5
REMARK    2  A    between atoms: C_7  and  C_9
REMARK                            x       y       z     vdW  Elec       q    Type
REMARK                         _______ _______ _______ _____ _____    ______ ____
ROOT
ATOM      1  C   UNL     1      97.308 117.982  80.460  0.00  0.00    +0.000 C 
ATOM      2  C   UNL     1      97.089 116.685  81.265  0.00  0.00    +0.000 C 
ATOM      3  C   UNL     1      97.199 115.887  79.950  0.00  0.00    +0.000 C 
ATOM      4  C   UNL     1      97.865 117.123  79.305  0.00  0.00    +0.000 C 
ENDROOT
BRANCH   1   7
ATOM      5  C   UNL     1      97.749 120.116  82.720  0.00  0.00    +0.000 C 
ATOM      6  C   UNL     1      98.721 118.951  82.459  0.00  0.00    +0.000 C 
ATOM      7  C   UNL     1      98.345 118.997  80.969  0.00  0.00    +0.000 C 
ATOM      8  C   UNL     1      97.716 120.386  81.206  0.00  0.00    +0.000 C 
ENDBRANCH   1   7
BRANCH   3   9
ATOM      9  C   UNL     1      95.896 115.501  79.234  0.00  0.00    +0.000 C 
ATOM     10  C   UNL     1      95.145 114.230  79.688  0.00  0.00    +0.000 C 
ATOM     11  C   UNL     1      94.886 113.953  78.188  0.00  0.00    +0.000 C 
ATOM     12  C   UNL     1      96.163 114.769  77.898  0.00  0.00    +0.000 C 
ENDBRANCH   3   9
TORSDOF 2
ENDMDL
