MODEL 1
REMARK VINA RESULT:      -5.4      0.000      0.000
REMARK  Name = *****
REMARK  5 active torsions:
REMARK  status: ('A' for Active; 'I' for Inactive)
REMARK    1  A    between atoms: C_4  and  N_17
REMARK    2  A    between atoms: C_5  and  C_7
REMARK    3  A    between atoms: C_8  and  C_9
REMARK    4  A    between atoms: C_11  and  N_15
REMARK    5  A    between atoms: N_15  and  O_16
REMARK                            x       y       z     vdW  Elec       q    Type
REMARK                         _______ _______ _______ _____ _____    ______ ____
ROOT
ATOM      1  C   UNL     1     101.684 126.392  82.614  0.00  0.00    +0.000 C 
ATOM      2  C   UNL     1     102.691 126.471  81.729  0.00  0.00    +0.000 C 
ENDROOT
BRANCH   1   7
ATOM      3  C   UNL     1     100.636 129.730  84.042  0.00  0.00    +0.000 A 
ATOM      4  C   UNL     1      99.274 129.753  83.765  0.00  0.00    +0.000 A 
ATOM      5  C   UNL     1      98.682 128.671  83.108  0.00  0.00    +0.000 A 
ATOM      6  C   UNL     1      99.442 127.552  82.722  0.00  0.00    +0.000 A 
ATOM      7  C   UNL     1     100.832 127.543  82.981  0.00  0.00    +0.000 A 
ATOM      8  C   UNL     1     101.410 128.634  83.657  0.00  0.00    +0.000 A 
BRANCH   6   9
ATOM      9  N   UNL     1      98.843 126.501  82.047  0.00  0.00    +0.000 NA
ATOM     10  O   UNL     1      97.724 126.215  82.490  0.00  0.00    +0.000 OA
ENDBRANCH   6   9
ENDBRANCH   1   7
BRANCH   2  11
ATOM     11  C   UNL     1     103.538 125.329  81.355  0.00  0.00    +0.000 A 
ATOM     12  C   UNL     1     104.214 125.271  80.126  0.00  0.00    +0.000 A 
ATOM     13  C   UNL     1     105.053 124.193  79.809  0.00  0.00    +0.000 A 
ATOM     14  C   UNL     1     105.175 123.144  80.728  0.00  0.00    +0.000 A 
ATOM     15  C   UNL     1     104.523 123.198  81.961  0.00  0.00    +0.000 A 
ATOM     16  C   UNL     1     103.717 124.292  82.276  0.00  0.00    +0.000 A 
BRANCH  13  17
ATOM     17  N   UNL     1     105.677 124.078  78.544  0.00  0.00    +0.000 N 
ATOM     18  H   UNL     1     105.659 123.221  78.059  0.00  0.00    +0.000 HD
BRANCH  17  19
ATOM     19  O   UNL     1     106.315 125.187  77.990  0.00  0.00    +0.000 OA
ATOM     20  H   UNL     1     106.870 124.904  77.248  0.00  0.00    +0.000 HD
ENDBRANCH  17  19
ENDBRANCH  13  17
ENDBRANCH   2  11
TORSDOF 5
ENDMDL
