MODEL 1
REMARK VINA RESULT:      -4.6      0.000      0.000
REMARK  Name = *****
REMARK  4 active torsions:
REMARK  status: ('A' for Active; 'I' for Inactive)
REMARK    1  A    between atoms: C_1  and  C_2
REMARK    2  A    between atoms: C_7  and  O_8
REMARK    3  A    between atoms: O_8  and  C_9
REMARK    4  A    between atoms: C_9  and  C_11
REMARK                            x       y       z     vdW  Elec       q    Type
REMARK                         _______ _______ _______ _____ _____    ______ ____
ROOT
ATOM      1  O   UNL     1     102.653 126.943  83.037  0.00  0.00    +0.000 OA
ENDROOT
BRANCH   1   8
ATOM      2  C   UNL     1     102.094 129.510  84.163  0.00  0.00    +0.000 C 
ATOM      3  C   UNL     1     101.035 128.640  83.551  0.00  0.00    +0.000 A 
ATOM      4  C   UNL     1      99.700 129.062  83.517  0.00  0.00    +0.000 A 
ATOM      5  C   UNL     1      98.712 128.251  82.952  0.00  0.00    +0.000 A 
ATOM      6  C   UNL     1      99.046 127.009  82.414  0.00  0.00    +0.000 A 
ATOM      7  C   UNL     1     100.368 126.571  82.450  0.00  0.00    +0.000 A 
ATOM      8  C   UNL     1     101.349 127.374  83.036  0.00  0.00    +0.000 A 
ENDBRANCH   1   8
BRANCH   1   9
ATOM      9  C   UNL     1     103.271 126.637  81.828  0.00  0.00    +0.000 C 
ATOM     10  C   UNL     1     103.362 127.452  80.760  0.00  0.00    +0.000 C 
BRANCH   9  11
ATOM     11  C   UNL     1     103.785 125.253  81.766  0.00  0.00    +0.000 A 
ATOM     12  C   UNL     1     104.240 124.690  80.564  0.00  0.00    +0.000 A 
ATOM     13  C   UNL     1     104.729 123.382  80.528  0.00  0.00    +0.000 A 
ATOM     14  C   UNL     1     104.775 122.621  81.693  0.00  0.00    +0.000 A 
ATOM     15  C   UNL     1     104.338 123.168  82.897  0.00  0.00    +0.000 A 
ATOM     16  C   UNL     1     103.849 124.477  82.933  0.00  0.00    +0.000 A 
ENDBRANCH   9  11
ENDBRANCH   1   9
TORSDOF 3
ENDMDL
