MODEL 1
REMARK VINA RESULT:      -4.4      0.000      0.000
REMARK  Name = *****
REMARK  4 active torsions:
REMARK  status: ('A' for Active; 'I' for Inactive)
REMARK    1  A    between atoms: C_5  and  C_7
REMARK    2  A    between atoms: C_7  and  O_8
REMARK    3  A    between atoms: O_8  and  C_9
REMARK    4  A    between atoms: C_9  and  C_10
REMARK                            x       y       z     vdW  Elec       q    Type
REMARK                         _______ _______ _______ _____ _____    ______ ____
ROOT
ATOM      1  O   UNL     1     103.545 125.035  80.102  0.00  0.00    +0.000 OA
ENDROOT
BRANCH   1   2
ATOM      2  C   UNL     1     104.815 124.427  80.339  0.00  0.00    +0.000 C 
BRANCH   2   7
ATOM      3  C   UNL     1     104.541 120.799  81.520  0.00  0.00    +0.000 A 
ATOM      4  C   UNL     1     104.439 120.971  82.899  0.00  0.00    +0.000 A 
ATOM      5  C   UNL     1     104.457 122.256  83.439  0.00  0.00    +0.000 A 
ATOM      6  C   UNL     1     104.570 123.357  82.594  0.00  0.00    +0.000 A 
ATOM      7  C   UNL     1     104.655 123.208  81.207  0.00  0.00    +0.000 A 
ATOM      8  C   UNL     1     104.654 121.909  80.678  0.00  0.00    +0.000 A 
ATOM      9  F   UNL     1     104.600 124.583  83.136  0.00  0.00    +0.000 F 
ENDBRANCH   2   7
ENDBRANCH   1   2
BRANCH   1  10
ATOM     10  C   UNL     1     103.599 126.451  80.282  0.00  0.00    +0.000 C 
BRANCH  10  11
ATOM     11  C   UNL     1     102.829 126.849  81.511  0.00  0.00    +0.000 A 
ATOM     12  C   UNL     1     101.847 126.022  82.076  0.00  0.00    +0.000 A 
ATOM     13  C   UNL     1     101.177 126.407  83.241  0.00  0.00    +0.000 A 
ATOM     14  C   UNL     1     101.487 127.616  83.861  0.00  0.00    +0.000 A 
ATOM     15  C   UNL     1     102.474 128.438  83.321  0.00  0.00    +0.000 A 
ATOM     16  C   UNL     1     103.137 128.048  82.161  0.00  0.00    +0.000 A 
ATOM     17  F   UNL     1     104.094 128.846  81.666  0.00  0.00    +0.000 F 
ENDBRANCH  10  11
ENDBRANCH   1  10
TORSDOF 4
ENDMDL
