MODEL 1
REMARK VINA RESULT:      -4.6      0.000      0.000
REMARK  Name = *****
REMARK  4 active torsions:
REMARK  status: ('A' for Active; 'I' for Inactive)
REMARK    1  A    between atoms: C_4  and  C_7
REMARK    2  A    between atoms: C_7  and  C_8
REMARK    3  A    between atoms: C_8  and  C_9
REMARK    4  A    between atoms: C_14  and  C_15
REMARK                            x       y       z     vdW  Elec       q    Type
REMARK                         _______ _______ _______ _____ _____    ______ ____
ROOT
ATOM      1  C   UNL     1      89.590  69.540  86.295  0.00  0.00    +0.000 A 
ATOM      2  C   UNL     1      89.454  68.209  86.732  0.00  0.00    +0.000 A 
ATOM      3  C   UNL     1      89.557  67.141  85.837  0.00  0.00    +0.000 A 
ATOM      4  C   UNL     1      89.786  67.381  84.486  0.00  0.00    +0.000 A 
ATOM      5  C   UNL     1      89.925  68.690  84.030  0.00  0.00    +0.000 A 
ATOM      6  C   UNL     1      89.843  69.766  84.928  0.00  0.00    +0.000 A 
ENDROOT
BRANCH   6   7
ATOM      7  C   UNL     1      90.029  71.121  84.347  0.00  0.00    +0.000 C 
ATOM      8  O   UNL     1      91.186  71.479  84.135  0.00  0.00    +0.000 OA
ATOM      9 CL   UNL     1      88.619  72.120  84.100  0.00  0.00    +0.000 Cl
ENDBRANCH   6   7
BRANCH   1  10
ATOM     10  C   UNL     1      89.412  70.649  87.308  0.00  0.00    +0.000 C 
BRANCH  10  11
ATOM     11  C   UNL     1      88.363  70.307  88.371  0.00  0.00    +0.000 C 
BRANCH  11  15
ATOM     12  C   UNL     1      84.625  72.303  87.576  0.00  0.00    +0.000 A 
ATOM     13  C   UNL     1      85.410  71.848  86.519  0.00  0.00    +0.000 A 
ATOM     14  C   UNL     1      86.618  71.196  86.775  0.00  0.00    +0.000 A 
ATOM     15  C   UNL     1      87.048  70.990  88.093  0.00  0.00    +0.000 A 
ATOM     16  C   UNL     1      86.252  71.456  89.148  0.00  0.00    +0.000 A 
ATOM     17  C   UNL     1      85.045  72.108  88.890  0.00  0.00    +0.000 A 
ENDBRANCH  11  15
ENDBRANCH  10  11
ENDBRANCH   1  10
TORSDOF 4
ENDMDL
