REMARK  Name = *****
REMARK  4 active torsions:
REMARK  status: ('A' for Active; 'I' for Inactive)
REMARK    1  A    between atoms: C_1  and  C_2
REMARK    2  A    between atoms: C_5  and  C_8
REMARK    3  A    between atoms: C_8  and  O_10
REMARK    4  A    between atoms: O_10  and  C_11
REMARK                            x       y       z     vdW  Elec       q    Type
REMARK                         _______ _______ _______ _____ _____    ______ ____
ROOT
ATOM      1  C   UNL     1      -3.346  -0.151  -0.122  0.00  0.00    +0.000 C 
ATOM      2  O   UNL     1      -3.921  -1.198  -0.376  0.00  0.00    +0.000 OA
ENDROOT
BRANCH   1   7
ATOM      3  C   UNL     1       2.440   0.055   0.100  0.00  0.00    +0.000 C 
ATOM      4  C   UNL     1       0.939   0.036   0.070  0.00  0.00    +0.000 A 
ATOM      5  C   UNL     1       0.204   1.212  -0.127  0.00  0.00    +0.000 A 
ATOM      6  C   UNL     1      -1.194   1.176  -0.172  0.00  0.00    +0.000 A 
ATOM      7  C   UNL     1      -1.869  -0.042  -0.024  0.00  0.00    +0.000 A 
ATOM      8  C   UNL     1      -1.135  -1.218   0.176  0.00  0.00    +0.000 A 
ATOM      9  C   UNL     1       0.259  -1.177   0.229  0.00  0.00    +0.000 A 
ENDBRANCH   1   7
BRANCH   1  10
ATOM     10  O   UNL     1      -3.934   1.046   0.119  0.00  0.00    +0.000 OA
BRANCH  10  11
ATOM     11  C   UNL     1      -5.364   1.060  -0.025  0.00  0.00    +0.000 C 
ATOM     12  C   UNL     1      -5.708   1.301  -1.503  0.00  0.00    +0.000 C 
ATOM     13  C   UNL     1      -7.148   1.772  -1.677  0.00  0.00    +0.000 C 
ATOM     14  C   UNL     1      -7.405   3.066  -0.900  0.00  0.00    +0.000 C 
ATOM     15  C   UNL     1      -6.812   3.048   0.478  0.00  0.00    +0.000 C 
ATOM     16  C   UNL     1      -5.901   2.144   0.872  0.00  0.00    +0.000 C 
ENDBRANCH  10  11
ENDBRANCH   1  10
TORSDOF 3
