REMARK  Name = *****
REMARK  3 active torsions:
REMARK  status: ('A' for Active; 'I' for Inactive)
REMARK    1  A    between atoms: C_6  and  C_7
REMARK    2  A    between atoms: C_7  and  C_8
REMARK    3  A    between atoms: C_8  and  C_10
REMARK                            x       y       z     vdW  Elec       q    Type
REMARK                         _______ _______ _______ _____ _____    ______ ____
ROOT
ATOM      1  C   UNL     1      -4.053   1.492   0.038  0.00  0.00    +0.000 C 
ATOM      2  O   UNL     1      -4.278   2.100   1.086  0.00  0.00    +0.000 OA
ENDROOT
BRANCH   1   3
ATOM      3  C   UNL     1      -4.415   2.132  -1.265  0.00  0.00    +0.000 A 
ATOM      4  C   UNL     1      -4.022   1.613  -2.504  0.00  0.00    +0.000 A 
ATOM      5  C   UNL     1      -4.404   2.251  -3.690  0.00  0.00    +0.000 A 
ATOM      6  C   UNL     1      -5.176   3.410  -3.640  0.00  0.00    +0.000 A 
ATOM      7  C   UNL     1      -5.566   3.943  -2.415  0.00  0.00    +0.000 A 
ATOM      8  C   UNL     1      -5.185   3.306  -1.231  0.00  0.00    +0.000 A 
ATOM      9 BR   UNL     1      -5.692   4.264  -5.245  0.00  0.00    +0.000 Br
ENDBRANCH   1   3
BRANCH   1  10
ATOM     10  C   UNL     1      -3.425   0.110   0.059  0.00  0.00    +0.000 C 
BRANCH  10  16
ATOM     11  C   UNL     1      -1.217  -0.581  -0.967  0.00  0.00    +0.000 A 
ATOM     12  C   UNL     1       0.179  -0.575  -0.987  0.00  0.00    +0.000 A 
ATOM     13  C   UNL     1       0.878   0.132  -0.016  0.00  0.00    +0.000 A 
ATOM     14  C   UNL     1       0.206   0.833   0.978  0.00  0.00    +0.000 A 
ATOM     15  C   UNL     1      -1.189   0.831   0.998  0.00  0.00    +0.000 A 
ATOM     16  C   UNL     1      -1.916   0.131   0.020  0.00  0.00    +0.000 A 
ATOM     17  F   UNL     1       2.217   0.132  -0.035  0.00  0.00    +0.000 F 
ENDBRANCH  10  16
ENDBRANCH   1  10
TORSDOF 3
