MODEL 1
REMARK VINA RESULT:      -4.7      0.000      0.000
REMARK  Name = *****
REMARK  3 active torsions:
REMARK  status: ('A' for Active; 'I' for Inactive)
REMARK    1  A    between atoms: C_3  and  C_8
REMARK    2  A    between atoms: C_8  and  C_9
REMARK    3  A    between atoms: C_9  and  C_11
REMARK                            x       y       z     vdW  Elec       q    Type
REMARK                         _______ _______ _______ _____ _____    ______ ____
ROOT
ATOM      1  C   UNL     1      87.862  70.697  86.018  0.00  0.00    +0.000 C 
ATOM      2  O   UNL     1      87.956  70.702  84.790  0.00  0.00    +0.000 OA
ENDROOT
BRANCH   1   3
ATOM      3  C   UNL     1      86.643  71.285  86.657  0.00  0.00    +0.000 A 
ATOM      4  C   UNL     1      85.615  71.884  85.923  0.00  0.00    +0.000 A 
ATOM      5  C   UNL     1      84.505  72.413  86.586  0.00  0.00    +0.000 A 
ATOM      6  C   UNL     1      84.406  72.353  87.975  0.00  0.00    +0.000 A 
ATOM      7  C   UNL     1      85.427  71.759  88.713  0.00  0.00    +0.000 A 
ATOM      8  C   UNL     1      86.541  71.228  88.056  0.00  0.00    +0.000 A 
ATOM      9 CL   UNL     1      83.243  73.148  85.675  0.00  0.00    +0.000 Cl
ENDBRANCH   1   3
BRANCH   1  10
ATOM     10  C   UNL     1      88.960  70.095  86.876  0.00  0.00    +0.000 C 
BRANCH  10  13
ATOM     11  C   UNL     1      87.978  66.438  87.376  0.00  0.00    +0.000 A 
ATOM     12  C   UNL     1      87.950  67.834  87.413  0.00  0.00    +0.000 A 
ATOM     13  C   UNL     1      88.995  68.586  86.855  0.00  0.00    +0.000 A 
ATOM     14  C   UNL     1      90.054  67.910  86.229  0.00  0.00    +0.000 A 
ATOM     15  C   UNL     1      90.076  66.515  86.195  0.00  0.00    +0.000 A 
ATOM     16  C   UNL     1      89.045  65.777  86.769  0.00  0.00    +0.000 A 
ATOM     17 CL   UNL     1      91.388  65.703  85.435  0.00  0.00    +0.000 Cl
ENDBRANCH  10  13
ENDBRANCH   1  10
TORSDOF 3
ENDMDL
