MODEL 1
REMARK VINA RESULT:      -5.1      0.000      0.000
REMARK  Name = *****
REMARK  2 active torsions:
REMARK  status: ('A' for Active; 'I' for Inactive)
REMARK    1  A    between atoms: C_4  and  N_8
REMARK    2  A    between atoms: C_9  and  C_10
REMARK                            x       y       z     vdW  Elec       q    Type
REMARK                         _______ _______ _______ _____ _____    ______ ____
ROOT
ATOM      1  N   UNL     1     101.572 125.991  82.229  0.00  0.00    +0.000 NA
ATOM      2  C   UNL     1     102.737 126.289  81.748  0.00  0.00    +0.000 C 
ENDROOT
BRANCH   1   6
ATOM      3  C   UNL     1      99.253 129.253  83.568  0.00  0.00    +0.000 A 
ATOM      4  C   UNL     1      98.616 128.185  82.941  0.00  0.00    +0.000 A 
ATOM      5  C   UNL     1      99.373 127.098  82.502  0.00  0.00    +0.000 A 
ATOM      6  C   UNL     1     100.766 127.050  82.686  0.00  0.00    +0.000 A 
ATOM      7  C   UNL     1     101.390 128.136  83.302  0.00  0.00    +0.000 A 
ATOM      8  C   UNL     1     100.633 129.219  83.741  0.00  0.00    +0.000 A 
ATOM      9  F   UNL     1     101.244 130.251  84.338  0.00  0.00    +0.000 F 
ATOM     10  F   UNL     1      98.737 126.080  81.900  0.00  0.00    +0.000 F 
ENDBRANCH   1   6
BRANCH   2  11
ATOM     11  C   UNL     1     103.660 125.248  81.259  0.00  0.00    +0.000 A 
ATOM     12  C   UNL     1     103.903 124.096  82.012  0.00  0.00    +0.000 A 
ATOM     13  C   UNL     1     104.780 123.135  81.520  0.00  0.00    +0.000 A 
ATOM     14  C   UNL     1     105.416 123.302  80.296  0.00  0.00    +0.000 A 
ATOM     15  C   UNL     1     105.165 124.454  79.561  0.00  0.00    +0.000 A 
ATOM     16  C   UNL     1     104.293 125.433  80.028  0.00  0.00    +0.000 A 
ATOM     17  F   UNL     1     105.772 124.626  78.380  0.00  0.00    +0.000 F 
ATOM     18  F   UNL     1     105.016 122.030  82.237  0.00  0.00    +0.000 F 
ENDBRANCH   2  11
TORSDOF 2
ENDMDL
