MODEL 1
REMARK VINA RESULT:      -4.8      0.000      0.000
REMARK  Name = *****
REMARK  3 active torsions:
REMARK  status: ('A' for Active; 'I' for Inactive)
REMARK    1  A    between atoms: C_4  and  C_7
REMARK    2  A    between atoms: C_7  and  N_9
REMARK    3  A    between atoms: N_9  and  C_10
REMARK                            x       y       z     vdW  Elec       q    Type
REMARK                         _______ _______ _______ _____ _____    ______ ____
ROOT
ATOM      1  N   UNL     1     101.630 126.246  81.842  0.00  0.00    +0.000 N 
ATOM      2  H   UNL     1     101.136 125.406  81.703  0.00  0.00    +0.000 HD
ENDROOT
BRANCH   1   3
ATOM      3  C   UNL     1     100.895 127.213  82.572  0.00  0.00    +0.000 A 
ATOM      4  C   UNL     1     101.420 128.280  83.297  0.00  0.00    +0.000 A 
ATOM      5  C   UNL     1     100.570 129.170  83.970  0.00  0.00    +0.000 A 
ATOM      6  C   UNL     1      99.186 129.008  83.923  0.00  0.00    +0.000 A 
ATOM      7  C   UNL     1      98.645 127.954  83.196  0.00  0.00    +0.000 A 
ATOM      8  C   UNL     1      99.497 127.076  82.532  0.00  0.00    +0.000 A 
ATOM      9  F   UNL     1      98.957 126.065  81.831  0.00  0.00    +0.000 F 
ENDBRANCH   1   3
BRANCH   1  10
ATOM     10  C   UNL     1     102.901 126.233  81.284  0.00  0.00    +0.000 C 
ATOM     11  S   UNL     1     103.675 127.407  80.372  0.00  0.00    +0.000 S 
BRANCH  10  15
ATOM     12  C   UNL     1     104.910 122.554  82.144  0.00  0.00    +0.000 A 
ATOM     13  C   UNL     1     104.334 123.286  83.184  0.00  0.00    +0.000 A 
ATOM     14  C   UNL     1     103.684 124.491  82.915  0.00  0.00    +0.000 A 
ATOM     15  C   UNL     1     103.618 124.963  81.599  0.00  0.00    +0.000 A 
ATOM     16  C   UNL     1     104.193 124.227  80.554  0.00  0.00    +0.000 A 
ATOM     17  C   UNL     1     104.840 123.023  80.830  0.00  0.00    +0.000 A 
ENDBRANCH  10  15
ENDBRANCH   1  10
TORSDOF 3
ENDMDL
