MODEL 1
REMARK VINA RESULT:      -4.3      0.000      0.000
REMARK  Name = *****
REMARK  4 active torsions:
REMARK  status: ('A' for Active; 'I' for Inactive)
REMARK    1  A    between atoms: C_4  and  C_7
REMARK    2  A    between atoms: C_7  and  S_8
REMARK    3  A    between atoms: S_8  and  C_9
REMARK    4  A    between atoms: C_10  and  C_16
REMARK                            x       y       z     vdW  Elec       q    Type
REMARK                         _______ _______ _______ _____ _____    ______ ____
ROOT
ATOM      1  C   UNL     1     103.766 124.773  82.449  0.00  0.00    +0.000 A 
ATOM      2  C   UNL     1     104.295 123.465  82.580  0.00  0.00    +0.000 A 
ATOM      3  C   UNL     1     104.866 122.828  81.463  0.00  0.00    +0.000 A 
ATOM      4  C   UNL     1     104.918 123.472  80.226  0.00  0.00    +0.000 A 
ATOM      5  C   UNL     1     104.401 124.755  80.091  0.00  0.00    +0.000 A 
ATOM      6  C   UNL     1     103.831 125.398  81.192  0.00  0.00    +0.000 A 
ATOM      7 CL   UNL     1     105.533 121.232  81.546  0.00  0.00    +0.000 Cl
ENDROOT
BRANCH   2   8
ATOM      8  C   UNL     1     104.259 122.769  83.839  0.00  0.00    +0.000 C 
ATOM      9  N   UNL     1     104.213 122.217  84.859  0.00  0.00    +0.000 NA
ENDBRANCH   2   8
BRANCH   1  10
ATOM     10  S   UNL     1     103.036 125.587  83.885  0.00  0.00    +0.000 S 
BRANCH  10  11
ATOM     11  C   UNL     1     102.742 127.305  83.349  0.00  0.00    +0.000 C 
BRANCH  11  15
ATOM     12  C   UNL     1      98.535 128.097  82.812  0.00  0.00    +0.000 A 
ATOM     13  C   UNL     1      99.082 126.900  82.357  0.00  0.00    +0.000 A 
ATOM     14  C   UNL     1     100.443 126.641  82.530  0.00  0.00    +0.000 A 
ATOM     15  C   UNL     1     101.270 127.579  83.169  0.00  0.00    +0.000 A 
ATOM     16  C   UNL     1     100.708 128.785  83.612  0.00  0.00    +0.000 A 
ATOM     17  C   UNL     1      99.348 129.041  83.438  0.00  0.00    +0.000 A 
ENDBRANCH  11  15
ENDBRANCH  10  11
ENDBRANCH   1  10
TORSDOF 4
ENDMDL
