MODEL 1
REMARK VINA RESULT:      -4.9      0.000      0.000
REMARK  Name = *****
REMARK  5 active torsions:
REMARK  status: ('A' for Active; 'I' for Inactive)
REMARK    1  A    between atoms: C_1  and  C_2
REMARK    2  A    between atoms: C_5  and  C_8
REMARK    3  A    between atoms: C_9  and  C_10
REMARK    4  A    between atoms: C_15  and  C_16
REMARK    5  A    between atoms: C_16  and  C_17
REMARK                            x       y       z     vdW  Elec       q    Type
REMARK                         _______ _______ _______ _____ _____    ______ ____
ROOT
ATOM      1  C   UNL     1     102.872 125.357  82.097  0.00  0.00    +0.000 C 
ATOM      2  C   UNL     1     102.030 126.173  82.361  0.00  0.00    +0.000 C 
ENDROOT
BRANCH   1   7
ATOM      3  C   UNL     1     106.893 121.418  80.999  0.00  0.00    +0.000 C 
ATOM      4  C   UNL     1     105.821 122.429  81.280  0.00  0.00    +0.000 A 
ATOM      5  C   UNL     1     105.341 123.257  80.257  0.00  0.00    +0.000 A 
ATOM      6  C   UNL     1     104.366 124.220  80.524  0.00  0.00    +0.000 A 
ATOM      7  C   UNL     1     103.867 124.370  81.819  0.00  0.00    +0.000 A 
ATOM      8  C   UNL     1     104.349 123.557  82.847  0.00  0.00    +0.000 A 
ATOM      9  C   UNL     1     105.326 122.596  82.580  0.00  0.00    +0.000 A 
ENDBRANCH   1   7
BRANCH   2  10
ATOM     10  C   UNL     1     101.021 127.128  82.710  0.00  0.00    +0.000 A 
ATOM     11  C   UNL     1      99.691 126.848  82.375  0.00  0.00    +0.000 A 
ATOM     12  C   UNL     1      98.676 127.743  82.709  0.00  0.00    +0.000 A 
ATOM     13  C   UNL     1      98.983 128.921  83.385  0.00  0.00    +0.000 A 
ATOM     14  C   UNL     1     100.306 129.208  83.725  0.00  0.00    +0.000 A 
ATOM     15  C   UNL     1     101.344 128.320  83.387  0.00  0.00    +0.000 A 
BRANCH  15  16
ATOM     16  C   UNL     1     102.767 128.660  83.774  0.00  0.00    +0.000 C 
BRANCH  16  17
ATOM     17  C   UNL     1     102.914 130.032  84.286  0.00  0.00    +0.000 C 
ATOM     18  N   UNL     1     103.011 131.123  84.672  0.00  0.00    +0.000 NA
ENDBRANCH  16  17
ENDBRANCH  15  16
ENDBRANCH   2  10
TORSDOF 4
ENDMDL
