REMARK  Name = *****
REMARK  3 active torsions:
REMARK  status: ('A' for Active; 'I' for Inactive)
REMARK    1  A    between atoms: C_4  and  C_7
REMARK    2  A    between atoms: C_7  and  S_8
REMARK    3  A    between atoms: S_8  and  C_9
REMARK                            x       y       z     vdW  Elec       q    Type
REMARK                         _______ _______ _______ _____ _____    ______ ____
ROOT
ATOM      1  C   UNL     1       0.600  -2.896   0.239  0.00  0.00    +0.000 C 
ENDROOT
BRANCH   1   5
ATOM      2  C   UNL     1      -0.315   1.393   0.241  0.00  0.00    +0.000 C 
ATOM      3  C   UNL     1      -1.391   0.433  -0.251  0.00  0.00    +0.000 C 
ATOM      4  C   UNL     1      -1.129  -0.991   0.245  0.00  0.00    +0.000 C 
ATOM      5  C   UNL     1       0.318  -1.418   0.122  0.00  0.00    +0.000 C 
ATOM      6  C   UNL     1       1.296  -0.524  -0.123  0.00  0.00    +0.000 C 
ATOM      7  C   UNL     1       1.070   0.956  -0.236  0.00  0.00    +0.000 C 
ENDBRANCH   1   5
BRANCH   1   8
ATOM      8  S   UNL     1       0.513  -3.412   1.985  0.00  0.00    +0.000 S 
BRANCH   8   9
ATOM      9  C   UNL     1       0.649  -5.178   1.785  0.00  0.00    +0.000 A 
ATOM     10  C   UNL     1       1.771  -5.763   1.188  0.00  0.00    +0.000 A 
ATOM     11  C   UNL     1       1.854  -7.151   1.052  0.00  0.00    +0.000 A 
ATOM     12  C   UNL     1       0.821  -7.961   1.521  0.00  0.00    +0.000 A 
ATOM     13  C   UNL     1      -0.293  -7.386   2.130  0.00  0.00    +0.000 A 
ATOM     14  C   UNL     1      -0.376  -5.998   2.266  0.00  0.00    +0.000 A 
ENDBRANCH   8   9
ENDBRANCH   1   8
TORSDOF 3
