MODEL 1
REMARK VINA RESULT:      -4.0      0.000      0.000
REMARK  Name = *****
REMARK  4 active torsions:
REMARK  status: ('A' for Active; 'I' for Inactive)
REMARK    1  A    between atoms: C_1  and  C_2
REMARK    2  A    between atoms: C_5  and  C_7
REMARK    3  A    between atoms: C_7  and  S_8
REMARK    4  A    between atoms: S_8  and  C_9
REMARK                            x       y       z     vdW  Elec       q    Type
REMARK                         _______ _______ _______ _____ _____    ______ ____
ROOT
ATOM      1  C   UNL     1     103.180 127.154  81.201  0.00  0.00    +0.000 C 
ENDROOT
BRANCH   1   6
ATOM      2  C   UNL     1     104.740 122.244  82.612  0.00  0.00    +0.000 C 
ATOM      3  C   UNL     1     104.452 123.487  81.844  0.00  0.00    +0.000 A 
ATOM      4  C   UNL     1     104.692 123.749  80.512  0.00  0.00    +0.000 A 
ATOM      5  C   UNL     1     104.276 125.059  80.136  0.00  0.00    +0.000 A 
ATOM      6  C   UNL     1     103.736 125.763  81.196  0.00  0.00    +0.000 A 
ATOM      7  S   UNL     1     103.731 124.824  82.629  0.00  0.00    +0.000 S 
ENDBRANCH   1   6
BRANCH   1   8
ATOM      8  S   UNL     1     102.933 127.743  82.911  0.00  0.00    +0.000 S 
BRANCH   8   9
ATOM      9  C   UNL     1     101.151 127.770  82.977  0.00  0.00    +0.000 A 
ATOM     10  C   UNL     1     100.513 128.866  83.567  0.00  0.00    +0.000 A 
ATOM     11  C   UNL     1      99.119 128.924  83.628  0.00  0.00    +0.000 A 
ATOM     12  C   UNL     1      98.355 127.889  83.093  0.00  0.00    +0.000 A 
ATOM     13  C   UNL     1      98.982 126.800  82.490  0.00  0.00    +0.000 A 
ATOM     14  C   UNL     1     100.376 126.743  82.428  0.00  0.00    +0.000 A 
ENDBRANCH   8   9
ENDBRANCH   1   8
TORSDOF 3
ENDMDL
