MODEL 1
REMARK VINA RESULT:      -4.4      0.000      0.000
REMARK  Name = *****
REMARK  3 active torsions:
REMARK  status: ('A' for Active; 'I' for Inactive)
REMARK    1  A    between atoms: C_4  and  O_7
REMARK    2  A    between atoms: O_7  and  C_8
REMARK    3  A    between atoms: C_8  and  C_10
REMARK                            x       y       z     vdW  Elec       q    Type
REMARK                         _______ _______ _______ _____ _____    ______ ____
ROOT
ATOM      1  C   UNL     1     101.733 126.046  82.841  0.00  0.00    +0.000 C 
ATOM      2  O   UNL     1     102.148 125.328  83.735  0.00  0.00    +0.000 OA
ENDROOT
BRANCH   1   3
ATOM      3  C   UNL     1     100.871 127.205  83.067  0.00  0.00    +0.000 A 
ATOM      4  C   UNL     1      99.545 127.202  82.645  0.00  0.00    +0.000 A 
ATOM      5  C   UNL     1      98.734 128.319  82.846  0.00  0.00    +0.000 A 
ATOM      6  C   UNL     1      99.256 129.453  83.470  0.00  0.00    +0.000 A 
ATOM      7  C   UNL     1     100.588 129.461  83.889  0.00  0.00    +0.000 A 
ATOM      8  C   UNL     1     101.389 128.339  83.682  0.00  0.00    +0.000 A 
ATOM      9  F   UNL     1     102.658 128.368  84.115  0.00  0.00    +0.000 F 
ATOM     10  F   UNL     1      99.023 126.134  82.024  0.00  0.00    +0.000 F 
ENDBRANCH   1   3
BRANCH   1  11
ATOM     11  O   UNL     1     101.922 125.929  81.477  0.00  0.00    +0.000 OA
BRANCH  11  15
ATOM     12  C   UNL     1     105.802 126.286  79.967  0.00  0.00    +0.000 A 
ATOM     13  C   UNL     1     105.193 125.029  79.981  0.00  0.00    +0.000 A 
ATOM     14  C   UNL     1     103.903 124.881  80.491  0.00  0.00    +0.000 A 
ATOM     15  C   UNL     1     103.240 125.997  81.002  0.00  0.00    +0.000 A 
ATOM     16  C   UNL     1     103.832 127.259  80.973  0.00  0.00    +0.000 A 
ATOM     17  C   UNL     1     105.121 127.401  80.459  0.00  0.00    +0.000 A 
ENDBRANCH  11  15
ENDBRANCH   1  11
TORSDOF 3
ENDMDL
