MODEL 1
REMARK VINA RESULT:      -4.9      0.000      0.000
REMARK  Name = *****
REMARK  1 active torsions:
REMARK  status: ('A' for Active; 'I' for Inactive)
REMARK    1  A    between atoms: C_8  and  C_10
REMARK                            x       y       z     vdW  Elec       q    Type
REMARK                         _______ _______ _______ _____ _____    ______ ____
ROOT
ATOM      1  C   UNL     1     105.347 123.626  80.253  0.00  0.00    +0.000 A 
ATOM      2  C   UNL     1     105.515 123.082  81.519  0.00  0.00    +0.000 A 
ATOM      3  C   UNL     1     104.775 123.561  82.602  0.00  0.00    +0.000 A 
ATOM      4  C   UNL     1     103.856 124.607  82.390  0.00  0.00    +0.000 A 
ATOM      5  C   UNL     1     103.673 125.174  81.129  0.00  0.00    +0.000 A 
ATOM      6  C   UNL     1     104.434 124.666  80.049  0.00  0.00    +0.000 A 
ATOM      7  C   UNL     1     102.693 126.221  81.169  0.00  0.00    +0.000 A 
ATOM      8  C   UNL     1     102.164 126.438  82.427  0.00  0.00    +0.000 A 
ATOM      9  S   UNL     1     102.833 125.343  83.560  0.00  0.00    +0.000 S 
ENDROOT
BRANCH   8  10
ATOM     10  C   UNL     1     101.133 127.403  82.834  0.00  0.00    +0.000 A 
ATOM     11  C   UNL     1     101.482 128.552  83.556  0.00  0.00    +0.000 A 
ATOM     12  C   UNL     1     100.527 129.486  83.964  0.00  0.00    +0.000 A 
ATOM     13  C   UNL     1      99.184 129.285  83.656  0.00  0.00    +0.000 A 
ATOM     14  C   UNL     1      98.808 128.146  82.949  0.00  0.00    +0.000 A 
ATOM     15  C   UNL     1      99.774 127.220  82.549  0.00  0.00    +0.000 A 
ATOM     16  F   UNL     1      99.349 126.124  81.900  0.00  0.00    +0.000 F 
ATOM     17  F   UNL     1     102.764 128.793  83.876  0.00  0.00    +0.000 F 
ENDBRANCH   8  10
TORSDOF 1
ENDMDL
