MODEL 1
REMARK VINA RESULT:      -4.7      0.000      0.000
REMARK  Name = *****
REMARK  3 active torsions:
REMARK  status: ('A' for Active; 'I' for Inactive)
REMARK    1  A    between atoms: C_1  and  C_2
REMARK    2  A    between atoms: C_4  and  C_9
REMARK    3  A    between atoms: C_10  and  C_11
REMARK                            x       y       z     vdW  Elec       q    Type
REMARK                         _______ _______ _______ _____ _____    ______ ____
ROOT
ATOM      1  C   UNL     1      97.492 127.095  83.151  0.00  0.00    +0.000 C 
ATOM      2  C   UNL     1      98.913 127.574  83.212  0.00  0.00    +0.000 A 
ATOM      3  C   UNL     1      99.937 126.839  82.595  0.00  0.00    +0.000 A 
ATOM      4  C   UNL     1     101.271 127.261  82.674  0.00  0.00    +0.000 A 
ATOM      5  C   UNL     1     101.583 128.424  83.388  0.00  0.00    +0.000 A 
ATOM      6  C   UNL     1     100.569 129.153  84.017  0.00  0.00    +0.000 A 
ATOM      7  C   UNL     1      99.241 128.726  83.933  0.00  0.00    +0.000 A 
ATOM      8 BR   UNL     1     103.363 129.069  83.551  0.00  0.00    +0.000 Br
ENDROOT
BRANCH   4   9
ATOM      9  C   UNL     1     102.272 126.473  82.016  0.00  0.00    +0.000 C 
ATOM     10  C   UNL     1     103.109 125.812  81.463  0.00  0.00    +0.000 C 
BRANCH  10  11
ATOM     11  C   UNL     1     104.093 125.019  80.794  0.00  0.00    +0.000 A 
ATOM     12  C   UNL     1     104.280 123.682  81.155  0.00  0.00    +0.000 A 
ATOM     13  C   UNL     1     105.241 122.909  80.501  0.00  0.00    +0.000 A 
ATOM     14  C   UNL     1     106.016 123.472  79.486  0.00  0.00    +0.000 A 
ATOM     15  C   UNL     1     105.830 124.806  79.124  0.00  0.00    +0.000 A 
ATOM     16  C   UNL     1     104.869 125.580  79.778  0.00  0.00    +0.000 A 
ENDBRANCH  10  11
ENDBRANCH   4   9
TORSDOF 2
ENDMDL
