REMARK  Name = *****
REMARK  5 active torsions:
REMARK  status: ('A' for Active; 'I' for Inactive)
REMARK    1  A    between atoms: C_1  and  N_2
REMARK    2  A    between atoms: N_2  and  C_3
REMARK    3  A    between atoms: N_2  and  C_10
REMARK    4  A    between atoms: C_10  and  C_11
REMARK    5  A    between atoms: C_10  and  C_17
REMARK                            x       y       z     vdW  Elec       q    Type
REMARK                         _______ _______ _______ _____ _____    ______ ____
ROOT
ATOM      1  C   UNL     1       3.365  -0.113  -1.138  0.00  0.00    +0.000 C 
ENDROOT
BRANCH   1   2
ATOM      2  C   UNL     1       3.680  -1.444  -1.822  0.00  0.00    +0.000 A 
ATOM      3  C   UNL     1       2.758  -2.500  -1.882  0.00  0.00    +0.000 A 
ATOM      4  C   UNL     1       3.078  -3.694  -2.532  0.00  0.00    +0.000 A 
ATOM      5  C   UNL     1       4.324  -3.851  -3.134  0.00  0.00    +0.000 A 
ATOM      6  C   UNL     1       5.250  -2.813  -3.091  0.00  0.00    +0.000 A 
ATOM      7  C   UNL     1       4.931  -1.617  -2.444  0.00  0.00    +0.000 A 
ENDBRANCH   1   2
BRANCH   1   8
ATOM      8  C   UNL     1       2.780   0.916  -2.141  0.00  0.00    +0.000 C 
ATOM      9  O   UNL     1       1.939   0.638  -2.995  0.00  0.00    +0.000 OA
ATOM     10 CL   UNL     1       3.400   2.530  -1.862  0.00  0.00    +0.000 Cl
ENDBRANCH   1   8
BRANCH   1  12
ATOM     11  C   UNL     1       1.081   0.010  -0.021  0.00  0.00    +0.000 C 
ATOM     12  N   UNL     1       2.509  -0.294   0.080  0.00  0.00    +0.000 N 
BRANCH  12  13
ATOM     13  C   UNL     1       3.132  -0.231   1.330  0.00  0.00    +0.000 A 
ATOM     14  C   UNL     1       4.366  -0.872   1.554  0.00  0.00    +0.000 A 
ATOM     15  C   UNL     1       5.008  -0.827   2.797  0.00  0.00    +0.000 A 
ATOM     16  C   UNL     1       4.416  -0.142   3.845  0.00  0.00    +0.000 A 
ATOM     17  C   UNL     1       3.196   0.490   3.672  0.00  0.00    +0.000 A 
ATOM     18  C   UNL     1       2.560   0.440   2.426  0.00  0.00    +0.000 A 
ATOM     19  F   UNL     1       5.025  -0.097   5.036  0.00  0.00    +0.000 F 
ENDBRANCH  12  13
ENDBRANCH   1  12
TORSDOF 4
