MODEL 1
REMARK VINA RESULT:      -4.5      0.000      0.000
REMARK  Name = *****
REMARK  3 active torsions:
REMARK  status: ('A' for Active; 'I' for Inactive)
REMARK    1  A    between atoms: C_5  and  C_7
REMARK    2  A    between atoms: C_7  and  C_15
REMARK    3  A    between atoms: C_8  and  C_9
REMARK                            x       y       z     vdW  Elec       q    Type
REMARK                         _______ _______ _______ _____ _____    ______ ____
ROOT
ATOM      1  C   UNL     1     102.375 126.488  82.347  0.00  0.00    +0.000 C 
ATOM      2  C   UNL     1     103.003 126.808  81.199  0.00  0.00    +0.000 C 
ENDROOT
BRANCH   1   7
ATOM      3  C   UNL     1      98.725 127.384  82.647  0.00  0.00    +0.000 A 
ATOM      4  C   UNL     1      98.776 128.592  83.341  0.00  0.00    +0.000 A 
ATOM      5  C   UNL     1     100.007 129.127  83.718  0.00  0.00    +0.000 A 
ATOM      6  C   UNL     1     101.192 128.456  83.401  0.00  0.00    +0.000 A 
ATOM      7  C   UNL     1     101.153 127.238  82.702  0.00  0.00    +0.000 A 
ATOM      8  C   UNL     1      99.906 126.710  82.329  0.00  0.00    +0.000 A 
ATOM      9 CL   UNL     1     102.684 129.174  83.900  0.00  0.00    +0.000 Cl
ENDBRANCH   1   7
BRANCH   2  10
ATOM     10  C   UNL     1     104.222 126.185  80.669  0.00  0.00    +0.000 A 
ATOM     11  C   UNL     1     105.419 126.899  80.646  0.00  0.00    +0.000 A 
ATOM     12  N   UNL     1     106.586 126.423  80.151  0.00  0.00    +0.000 NA
ATOM     13  C   UNL     1     106.561 125.171  79.646  0.00  0.00    +0.000 A 
ATOM     14  C   UNL     1     105.424 124.383  79.604  0.00  0.00    +0.000 A 
ATOM     15  C   UNL     1     104.236 124.902  80.117  0.00  0.00    +0.000 A 
ENDBRANCH   2  10
BRANCH   1  16
ATOM     16  C   UNL     1     102.836 125.483  83.252  0.00  0.00    +0.000 C 
ATOM     17  N   UNL     1     103.204 124.662  83.986  0.00  0.00    +0.000 NA
ENDBRANCH   1  16
TORSDOF 3
ENDMDL
