MODEL 1
REMARK VINA RESULT:      -4.7      0.000      0.000
REMARK  Name = *****
REMARK  4 active torsions:
REMARK  status: ('A' for Active; 'I' for Inactive)
REMARK    1  A    between atoms: C_5  and  C_7
REMARK    2  A    between atoms: C_7  and  O_9
REMARK    3  A    between atoms: O_9  and  C_10
REMARK    4  A    between atoms: C_10  and  C_11
REMARK                            x       y       z     vdW  Elec       q    Type
REMARK                         _______ _______ _______ _____ _____    ______ ____
ROOT
ATOM      1  O   UNL     1     103.514 125.019  80.155  0.00  0.00    +0.000 OA
ENDROOT
BRANCH   1   2
ATOM      2  C   UNL     1     104.684 124.344  80.200  0.00  0.00    +0.000 C 
ATOM      3  O   UNL     1     105.701 124.627  79.583  0.00  0.00    +0.000 OA
BRANCH   2   8
ATOM      4  C   UNL     1     104.555 120.819  81.518  0.00  0.00    +0.000 A 
ATOM      5  C   UNL     1     104.490 121.020  82.895  0.00  0.00    +0.000 A 
ATOM      6  C   UNL     1     104.479 122.318  83.408  0.00  0.00    +0.000 A 
ATOM      7  C   UNL     1     104.539 123.410  82.544  0.00  0.00    +0.000 A 
ATOM      8  C   UNL     1     104.619 123.222  81.163  0.00  0.00    +0.000 A 
ATOM      9  C   UNL     1     104.616 121.915  80.652  0.00  0.00    +0.000 A 
ATOM     10  F   UNL     1     104.493 124.636  83.085  0.00  0.00    +0.000 F 
ENDBRANCH   2   8
ENDBRANCH   1   2
BRANCH   1  11
ATOM     11  C   UNL     1     103.602 126.443  80.274  0.00  0.00    +0.000 C 
BRANCH  11  12
ATOM     12  C   UNL     1     102.857 126.903  81.503  0.00  0.00    +0.000 A 
ATOM     13  C   UNL     1     103.225 128.048  82.227  0.00  0.00    +0.000 A 
ATOM     14  C   UNL     1     102.519 128.426  83.373  0.00  0.00    +0.000 A 
ATOM     15  C   UNL     1     101.445 127.655  83.809  0.00  0.00    +0.000 A 
ATOM     16  C   UNL     1     101.071 126.509  83.114  0.00  0.00    +0.000 A 
ATOM     17  C   UNL     1     101.777 126.132  81.970  0.00  0.00    +0.000 A 
ATOM     18 CL   UNL     1     100.576 128.119  85.219  0.00  0.00    +0.000 Cl
ATOM     19 CL   UNL     1     104.554 129.044  81.746  0.00  0.00    +0.000 Cl
ENDBRANCH  11  12
ENDBRANCH   1  11
TORSDOF 4
ENDMDL
