MODEL 1
REMARK VINA RESULT:      -4.2      0.000      0.000
REMARK  Name = *****
REMARK  5 active torsions:
REMARK  status: ('A' for Active; 'I' for Inactive)
REMARK    1  A    between atoms: C_1  and  C_2
REMARK    2  A    between atoms: C_2  and  C_3
REMARK    3  A    between atoms: C_2  and  O_8
REMARK    4  A    between atoms: O_8  and  C_9
REMARK    5  A    between atoms: C_9  and  C_11
REMARK                            x       y       z     vdW  Elec       q    Type
REMARK                         _______ _______ _______ _____ _____    ______ ____
ROOT
ATOM      1  O   UNL     1     100.555 126.702  83.131  0.00  0.00    +0.000 OA
ENDROOT
BRANCH   1   3
ATOM      2  C   UNL     1     102.606 127.960  82.919  0.00  0.00    +0.000 C 
ATOM      3  C   UNL     1     101.629 127.017  82.223  0.00  0.00    +0.000 C 
BRANCH   3   4
ATOM      4  C   UNL     1     102.316 125.711  81.789  0.00  0.00    +0.000 C 
ATOM      5  C   UNL     1     103.185 125.091  82.885  0.00  0.00    +0.000 C 
ATOM      6  C   UNL     1     104.035 124.064  82.145  0.00  0.00    +0.000 C 
ATOM      7  C   UNL     1     104.146 124.568  80.707  0.00  0.00    +0.000 C 
ATOM      8  C   UNL     1     103.317 125.847  80.640  0.00  0.00    +0.000 C 
ENDBRANCH   3   4
ENDBRANCH   1   3
BRANCH   1   9
ATOM      9  C   UNL     1      99.342 127.274  82.866  0.00  0.00    +0.000 C 
ATOM     10  O   UNL     1      98.550 126.848  82.034  0.00  0.00    +0.000 OA
BRANCH   9  11
ATOM     11  C   UNL     1      99.162 128.436  83.717  0.00  0.00    +0.000 A 
ATOM     12  C   UNL     1      99.357 129.777  83.432  0.00  0.00    +0.000 A 
ATOM     13  C   UNL     1      99.070 130.622  84.542  0.00  0.00    +0.000 A 
ATOM     14  C   UNL     1      98.665 129.903  85.643  0.00  0.00    +0.000 A 
ATOM     15  S   UNL     1      98.631 128.223  85.335  0.00  0.00    +0.000 S 
ENDBRANCH   9  11
ENDBRANCH   1   9
TORSDOF 4
ENDMDL
