MODEL 1
REMARK VINA RESULT:      -4.2      0.000      0.000
REMARK  Name = *****
REMARK  4 active torsions:
REMARK  status: ('A' for Active; 'I' for Inactive)
REMARK    1  A    between atoms: C_4  and  C_7
REMARK    2  A    between atoms: C_7  and  O_8
REMARK    3  A    between atoms: O_8  and  C_9
REMARK    4  A    between atoms: C_9  and  C_11
REMARK                            x       y       z     vdW  Elec       q    Type
REMARK                         _______ _______ _______ _____ _____    ______ ____
ROOT
ATOM      1  O   UNL     1      88.716  66.276  86.272  0.00  0.00    +0.000 OA
ENDROOT
BRANCH   1   2
ATOM      2  C   UNL     1      89.896  66.956  86.287  0.00  0.00    +0.000 C 
ATOM      3  O   UNL     1      90.997  66.460  86.092  0.00  0.00    +0.000 OA
BRANCH   2   4
ATOM      4  C   UNL     1      89.645  68.427  86.555  0.00  0.00    +0.000 C 
ATOM      5  C   UNL     1      88.248  68.605  87.156  0.00  0.00    +0.000 C 
ATOM      6  C   UNL     1      87.914  70.080  87.370  0.00  0.00    +0.000 C 
ATOM      7  C   UNL     1      88.085  70.889  86.086  0.00  0.00    +0.000 C 
ATOM      8  C   UNL     1      89.477  70.712  85.489  0.00  0.00    +0.000 C 
ATOM      9  C   UNL     1      89.811  69.238  85.267  0.00  0.00    +0.000 C 
ENDBRANCH   2   4
ENDBRANCH   1   2
BRANCH   1  10
ATOM     10  C   UNL     1      88.776  64.969  86.860  0.00  0.00    +0.000 C 
BRANCH  10  14
ATOM     11  C   UNL     1      86.829  64.158  90.693  0.00  0.00    +0.000 C 
ATOM     12  C   UNL     1      88.317  63.850  90.565  0.00  0.00    +0.000 C 
ATOM     13  C   UNL     1      88.759  63.789  89.104  0.00  0.00    +0.000 C 
ATOM     14  C   UNL     1      88.385  65.072  88.341  0.00  0.00    +0.000 C 
ATOM     15  C   UNL     1      86.888  65.374  88.481  0.00  0.00    +0.000 C 
ATOM     16  C   UNL     1      86.456  65.433  89.945  0.00  0.00    +0.000 C 
ENDBRANCH  10  14
ENDBRANCH   1  10
TORSDOF 4
ENDMDL
