MODEL 1
REMARK VINA RESULT:      -5.0      0.000      0.000
REMARK  Name = *****
REMARK  2 active torsions:
REMARK  status: ('A' for Active; 'I' for Inactive)
REMARK    1  A    between atoms: C_2  and  C_12
REMARK    2  A    between atoms: C_3  and  C_4
REMARK                            x       y       z     vdW  Elec       q    Type
REMARK                         _______ _______ _______ _____ _____    ______ ____
ROOT
ATOM      1  C   UNL     1     103.004 125.439  83.730  0.00  0.00    +0.000 C 
ATOM      2  C   UNL     1     102.710 126.607  82.826  0.00  0.00    +0.000 C 
ATOM      3  C   UNL     1     102.731 125.189  82.269  0.00  0.00    +0.000 C 
ENDROOT
BRANCH   3   4
ATOM      4  C   UNL     1     103.843 124.766  81.338  0.00  0.00    +0.000 A 
ATOM      5  C   UNL     1     104.566 123.579  81.526  0.00  0.00    +0.000 A 
ATOM      6  C   UNL     1     105.584 123.177  80.660  0.00  0.00    +0.000 A 
ATOM      7  C   UNL     1     105.906 123.960  79.555  0.00  0.00    +0.000 A 
ATOM      8  C   UNL     1     105.200 125.138  79.327  0.00  0.00    +0.000 A 
ATOM      9  C   UNL     1     104.186 125.521  80.207  0.00  0.00    +0.000 A 
ATOM     10  F   UNL     1     103.521 126.658  79.945  0.00  0.00    +0.000 F 
ATOM     11  F   UNL     1     104.280 122.789  82.572  0.00  0.00    +0.000 F 
ENDBRANCH   3   4
BRANCH   2  12
ATOM     12  C   UNL     1     101.398 127.347  82.931  0.00  0.00    +0.000 A 
ATOM     13  C   UNL     1     100.200 126.791  82.453  0.00  0.00    +0.000 A 
ATOM     14  C   UNL     1      98.984 127.469  82.566  0.00  0.00    +0.000 A 
ATOM     15  C   UNL     1      98.941 128.723  83.171  0.00  0.00    +0.000 A 
ATOM     16  C   UNL     1     100.111 129.292  83.664  0.00  0.00    +0.000 A 
ATOM     17  C   UNL     1     101.323 128.607  83.548  0.00  0.00    +0.000 A 
ENDBRANCH   2  12
TORSDOF 2
ENDMDL
