MODEL 1
REMARK VINA RESULT:      -4.5      0.000      0.000
REMARK  Name = *****
REMARK  3 active torsions:
REMARK  status: ('A' for Active; 'I' for Inactive)
REMARK    1  A    between atoms: C_1  and  C_2
REMARK    2  A    between atoms: C_5  and  N_8
REMARK    3  A    between atoms: C_9  and  C_10
REMARK                            x       y       z     vdW  Elec       q    Type
REMARK                         _______ _______ _______ _____ _____    ______ ____
ROOT
ATOM      1  N   UNL     1     101.643 125.995  82.489  0.00  0.00    +0.000 NA
ATOM      2  C   UNL     1     102.911 125.893  82.730  0.00  0.00    +0.000 C 
ENDROOT
BRANCH   1   7
ATOM      3  C   UNL     1      99.178 130.844  84.239  0.00  0.00    +0.000 C 
ATOM      4  C   UNL     1      99.830 129.585  83.750  0.00  0.00    +0.000 A 
ATOM      5  C   UNL     1      99.063 128.574  83.158  0.00  0.00    +0.000 A 
ATOM      6  C   UNL     1      99.666 127.386  82.736  0.00  0.00    +0.000 A 
ATOM      7  C   UNL     1     101.040 127.191  82.900  0.00  0.00    +0.000 A 
ATOM      8  C   UNL     1     101.799 128.186  83.518  0.00  0.00    +0.000 A 
ATOM      9  C   UNL     1     101.201 129.375  83.942  0.00  0.00    +0.000 A 
ENDBRANCH   1   7
BRANCH   2  10
ATOM     10  C   UNL     1     103.681 124.691  82.355  0.00  0.00    +0.000 A 
ATOM     11  C   UNL     1     104.081 123.765  83.324  0.00  0.00    +0.000 A 
ATOM     12  C   UNL     1     104.808 122.634  82.947  0.00  0.00    +0.000 A 
ATOM     13  C   UNL     1     105.132 122.435  81.606  0.00  0.00    +0.000 A 
ATOM     14  C   UNL     1     104.735 123.357  80.636  0.00  0.00    +0.000 A 
ATOM     15  C   UNL     1     104.007 124.490  81.010  0.00  0.00    +0.000 A 
ATOM     16 CL   UNL     1     106.028 121.042  81.140  0.00  0.00    +0.000 Cl
ENDBRANCH   2  10
TORSDOF 2
ENDMDL
