MODEL 1
REMARK VINA RESULT:      -5.0      0.000      0.000
REMARK  Name = *****
REMARK  4 active torsions:
REMARK  status: ('A' for Active; 'I' for Inactive)
REMARK    1  A    between atoms: C_1  and  C_2
REMARK    2  A    between atoms: C_4  and  C_8
REMARK    3  A    between atoms: C_9  and  C_10
REMARK    4  A    between atoms: C_15  and  C_16
REMARK                            x       y       z     vdW  Elec       q    Type
REMARK                         _______ _______ _______ _____ _____    ______ ____
ROOT
ATOM      1  C   UNL     1     102.060 126.122  82.229  0.00  0.00    +0.000 C 
ATOM      2  C   UNL     1     102.951 125.402  81.870  0.00  0.00    +0.000 C 
ENDROOT
BRANCH   1   6
ATOM      3  C   UNL     1     100.612 130.364  84.386  0.00  0.00    +0.000 C 
ATOM      4  C   UNL     1     100.296 129.081  83.675  0.00  0.00    +0.000 A 
ATOM      5  C   UNL     1     101.315 128.192  83.308  0.00  0.00    +0.000 A 
ATOM      6  C   UNL     1     101.011 127.011  82.624  0.00  0.00    +0.000 A 
ATOM      7  C   UNL     1      99.685 126.712  82.304  0.00  0.00    +0.000 A 
ATOM      8  C   UNL     1      98.666 127.595  82.662  0.00  0.00    +0.000 A 
ATOM      9  C   UNL     1      98.971 128.775  83.341  0.00  0.00    +0.000 A 
ENDBRANCH   1   6
BRANCH   2  10
ATOM     10  C   UNL     1     104.027 124.572  81.416  0.00  0.00    +0.000 A 
ATOM     11  C   UNL     1     104.473 124.726  80.096  0.00  0.00    +0.000 A 
ATOM     12  C   UNL     1     105.502 123.924  79.597  0.00  0.00    +0.000 A 
ATOM     13  C   UNL     1     106.095 122.962  80.411  0.00  0.00    +0.000 A 
ATOM     14  C   UNL     1     105.663 122.802  81.727  0.00  0.00    +0.000 A 
ATOM     15  C   UNL     1     104.631 123.605  82.235  0.00  0.00    +0.000 A 
BRANCH  15  16
ATOM     16  C   UNL     1     104.206 123.403  83.639  0.00  0.00    +0.000 C 
ATOM     17  O   UNL     1     103.874 122.301  84.063  0.00  0.00    +0.000 OA
ENDBRANCH  15  16
ENDBRANCH   2  10
TORSDOF 3
ENDMDL
