MODEL 1
REMARK VINA RESULT:      -4.8      0.000      0.000
REMARK  Name = *****
REMARK  5 active torsions:
REMARK  status: ('A' for Active; 'I' for Inactive)
REMARK    1  A    between atoms: C_1  and  O_2
REMARK    2  A    between atoms: O_2  and  C_3
REMARK    3  A    between atoms: C_6  and  C_9
REMARK    4  A    between atoms: C_10  and  C_11
REMARK    5  A    between atoms: C_10  and  C_13
REMARK                            x       y       z     vdW  Elec       q    Type
REMARK                         _______ _______ _______ _____ _____    ______ ____
ROOT
ATOM      1  C   UNL     1     102.435 125.899  82.110  0.00  0.00    +0.000 C 
ATOM      2  C   UNL     1     103.286 126.052  81.075  0.00  0.00    +0.000 C 
ENDROOT
BRANCH   1   6
ATOM      3  C   UNL     1      99.672 128.835  83.543  0.00  0.00    +0.000 A 
ATOM      4  C   UNL     1      99.217 127.707  82.860  0.00  0.00    +0.000 A 
ATOM      5  C   UNL     1     100.129 126.753  82.392  0.00  0.00    +0.000 A 
ATOM      6  C   UNL     1     101.501 126.920  82.596  0.00  0.00    +0.000 A 
ATOM      7  C   UNL     1     101.954 128.045  83.291  0.00  0.00    +0.000 A 
ATOM      8  C   UNL     1     101.043 128.997  83.756  0.00  0.00    +0.000 A 
BRANCH   3  10
ATOM      9  C   UNL     1      99.495 131.122  84.170  0.00  0.00    +0.000 C 
ATOM     10  O   UNL     1      98.893 129.839  84.049  0.00  0.00    +0.000 OA
ENDBRANCH   3  10
ENDBRANCH   1   6
BRANCH   2  11
ATOM     11  C   UNL     1     104.192 124.935  80.722  0.00  0.00    +0.000 A 
ATOM     12  C   UNL     1     105.103 125.051  79.660  0.00  0.00    +0.000 A 
ATOM     13  C   UNL     1     105.964 123.999  79.342  0.00  0.00    +0.000 A 
ATOM     14  C   UNL     1     105.930 122.820  80.083  0.00  0.00    +0.000 A 
ATOM     15  C   UNL     1     105.034 122.691  81.142  0.00  0.00    +0.000 A 
ATOM     16  C   UNL     1     104.172 123.744  81.461  0.00  0.00    +0.000 A 
ENDBRANCH   2  11
BRANCH   2  17
ATOM     17  C   UNL     1     103.401 127.288  80.220  0.00  0.00    +0.000 C 
ATOM     18  F   UNL     1     104.200 128.216  80.818  0.00  0.00    +0.000 F 
ENDBRANCH   2  17
TORSDOF 4
ENDMDL
