MODEL 1
REMARK VINA RESULT:      -4.2      0.000      0.000
REMARK  Name = *****
REMARK  3 active torsions:
REMARK  status: ('A' for Active; 'I' for Inactive)
REMARK    1  A    between atoms: C_2  and  C_12
REMARK    2  A    between atoms: C_3  and  C_4
REMARK    3  A    between atoms: C_3  and  C_6
REMARK                            x       y       z     vdW  Elec       q    Type
REMARK                         _______ _______ _______ _____ _____    ______ ____
ROOT
ATOM      1  C   UNL     1      86.331  63.465  86.772  0.00  0.00    +0.000 C 
ATOM      2  C   UNL     1      87.418  62.893  87.635  0.00  0.00    +0.000 C 
ATOM      3  C   UNL     1      87.787  63.732  86.390  0.00  0.00    +0.000 C 
ENDROOT
BRANCH   3   4
ATOM      4  C   UNL     1      88.286  65.178  86.550  0.00  0.00    +0.000 A 
ATOM      5  C   UNL     1      89.611  65.533  86.240  0.00  0.00    +0.000 A 
ATOM      6  C   UNL     1      90.066  66.849  86.359  0.00  0.00    +0.000 A 
ATOM      7  C   UNL     1      89.197  67.851  86.777  0.00  0.00    +0.000 A 
ATOM      8  C   UNL     1      87.874  67.538  87.069  0.00  0.00    +0.000 A 
ATOM      9  C   UNL     1      87.425  66.219  86.949  0.00  0.00    +0.000 A 
ENDBRANCH   3   4
BRANCH   2  10
ATOM     10  C   UNL     1      87.681  63.386  89.044  0.00  0.00    +0.000 A 
ATOM     11  C   UNL     1      88.969  63.478  89.600  0.00  0.00    +0.000 A 
ATOM     12  C   UNL     1      89.173  63.958  90.898  0.00  0.00    +0.000 A 
ATOM     13  C   UNL     1      88.091  64.372  91.668  0.00  0.00    +0.000 A 
ATOM     14  C   UNL     1      86.807  64.314  91.138  0.00  0.00    +0.000 A 
ATOM     15  C   UNL     1      86.610  63.833  89.840  0.00  0.00    +0.000 A 
ENDBRANCH   2  10
BRANCH   3  16
ATOM     16  C   UNL     1      88.291  62.950  85.269  0.00  0.00    +0.000 C 
ATOM     17  N   UNL     1      88.705  62.311  84.392  0.00  0.00    +0.000 NA
ENDBRANCH   3  16
TORSDOF 3
ENDMDL
