REMARK  Name = *****
REMARK  7 active torsions:
REMARK  status: ('A' for Active; 'I' for Inactive)
REMARK    1  A    between atoms: C_1  and  C_2
REMARK    2  A    between atoms: C_4  and  C_19
REMARK    3  A    between atoms: C_6  and  C_18
REMARK    4  A    between atoms: C_7  and  C_8
REMARK    5  A    between atoms: C_8  and  O_10
REMARK    6  A    between atoms: O_10  and  C_11
REMARK    7  A    between atoms: C_11  and  C_12
REMARK                            x       y       z     vdW  Elec       q    Type
REMARK                         _______ _______ _______ _____ _____    ______ ____
ROOT
ATOM      1  C   UNL     1       3.908   1.792   0.591  0.00  0.00    +0.000 C 
ATOM      2  O   UNL     1       4.750   1.084   1.124  0.00  0.00    +0.000 OA
ENDROOT
BRANCH   1   9
ATOM      3  C   UNL     1       0.881  -0.184  -0.750  0.00  0.00    +0.000 C 
ATOM      4  C   UNL     1       2.192   0.040   0.016  0.00  0.00    +0.000 C 
ATOM      5  C   UNL     1       3.111  -1.192  -0.112  0.00  0.00    +0.000 C 
ATOM      6  C   UNL     1       3.964  -1.213  -1.356  0.00  0.00    +0.000 C 
ATOM      7  C   UNL     1       4.125  -0.134  -2.141  0.00  0.00    +0.000 C 
ATOM      8  C   UNL     1       3.497   1.210  -1.869  0.00  0.00    +0.000 C 
ATOM      9  C   UNL     1       2.892   1.337  -0.452  0.00  0.00    +0.000 C 
ATOM     10  C   UNL     1       4.470   2.344  -2.210  0.00  0.00    +0.000 C 
ATOM     11  C   UNL     1       4.636  -2.522  -1.661  0.00  0.00    +0.000 C 
ENDBRANCH   1   9
BRANCH   1  12
ATOM     12  O   UNL     1       3.737   3.123   0.839  0.00  0.00    +0.000 OA
BRANCH  12  13
ATOM     13  C   UNL     1       4.580   3.677   1.855  0.00  0.00    +0.000 C 
BRANCH  13  14
ATOM     14  C   UNL     1       3.859   3.644   3.178  0.00  0.00    +0.000 A 
ATOM     15  C   UNL     1       4.216   2.710   4.160  0.00  0.00    +0.000 A 
ATOM     16  C   UNL     1       3.535   2.669   5.377  0.00  0.00    +0.000 A 
ATOM     17  C   UNL     1       2.486   3.554   5.621  0.00  0.00    +0.000 A 
ATOM     18  C   UNL     1       2.115   4.479   4.647  0.00  0.00    +0.000 A 
ATOM     19  C   UNL     1       2.796   4.522   3.429  0.00  0.00    +0.000 A 
ENDBRANCH  13  14
ENDBRANCH  12  13
ENDBRANCH   1  12
TORSDOF 4
