REMARK  Name = *****
REMARK  5 active torsions:
REMARK  status: ('A' for Active; 'I' for Inactive)
REMARK    1  A    between atoms: C_1  and  C_2
REMARK    2  A    between atoms: C_5  and  C_8
REMARK    3  A    between atoms: C_8  and  C_9
REMARK    4  A    between atoms: C_9  and  O_11
REMARK    5  A    between atoms: O_11  and  C_12
REMARK                            x       y       z     vdW  Elec       q    Type
REMARK                         _______ _______ _______ _____ _____    ______ ____
ROOT
ATOM      1  C   UNL     1      -3.893   1.546   0.381  0.00  0.00    +0.000 C 
ATOM      2  O   UNL     1      -3.358   2.295   1.188  0.00  0.00    +0.000 OA
ENDROOT
BRANCH   1   3
ATOM      3  C   UNL     1      -3.336   0.202  -0.025  0.00  0.00    +0.000 C 
BRANCH   3   8
ATOM      4  C   UNL     1      -4.967  -4.228   3.392  0.00  0.00    +0.000 C 
ATOM      5  C   UNL     1      -4.556  -3.090   2.506  0.00  0.00    +0.000 A 
ATOM      6  C   UNL     1      -4.839  -3.104   1.136  0.00  0.00    +0.000 A 
ATOM      7  C   UNL     1      -4.454  -2.036   0.321  0.00  0.00    +0.000 A 
ATOM      8  C   UNL     1      -3.784  -0.931   0.863  0.00  0.00    +0.000 A 
ATOM      9  C   UNL     1      -3.504  -0.919   2.236  0.00  0.00    +0.000 A 
ATOM     10  C   UNL     1      -3.892  -1.985   3.050  0.00  0.00    +0.000 A 
ENDBRANCH   3   8
ENDBRANCH   1   3
BRANCH   1  11
ATOM     11  O   UNL     1      -5.065   1.797  -0.269  0.00  0.00    +0.000 OA
BRANCH  11  12
ATOM     12  C   UNL     1      -5.692   3.057   0.032  0.00  0.00    +0.000 C 
ATOM     13  C   UNL     1      -6.523   2.938   1.313  0.00  0.00    +0.000 C 
ATOM     14  C   UNL     1      -7.315   4.213   1.586  0.00  0.00    +0.000 C 
ATOM     15  C   UNL     1      -8.188   4.600   0.395  0.00  0.00    +0.000 C 
ATOM     16  C   UNL     1      -7.377   4.700  -0.894  0.00  0.00    +0.000 C 
ATOM     17  C   UNL     1      -6.585   3.423  -1.157  0.00  0.00    +0.000 C 
ENDBRANCH  11  12
ENDBRANCH   1  11
TORSDOF 4
