MODEL 1
REMARK VINA RESULT:      -4.3      0.000      0.000
REMARK  Name = *****
REMARK  4 active torsions:
REMARK  status: ('A' for Active; 'I' for Inactive)
REMARK    1  A    between atoms: C_1  and  C_2
REMARK    2  A    between atoms: C_7  and  C_8
REMARK    3  A    between atoms: C_8  and  O_10
REMARK    4  A    between atoms: O_10  and  C_11
REMARK                            x       y       z     vdW  Elec       q    Type
REMARK                         _______ _______ _______ _____ _____    ______ ____
ROOT
ATOM      1  C   UNL     1      88.540  70.517  85.674  0.00  0.00    +0.000 C 
ATOM      2  O   UNL     1      89.638  71.049  85.679  0.00  0.00    +0.000 OA
ENDROOT
BRANCH   1   9
ATOM      3  C   UNL     1      88.334  70.349  88.644  0.00  0.00    +0.000 C 
ATOM      4  C   UNL     1      87.249  70.954  87.796  0.00  0.00    +0.000 A 
ATOM      5  C   UNL     1      86.085  71.433  88.421  0.00  0.00    +0.000 A 
ATOM      6  C   UNL     1      85.050  71.995  87.673  0.00  0.00    +0.000 A 
ATOM      7  C   UNL     1      85.155  72.082  86.288  0.00  0.00    +0.000 A 
ATOM      8  C   UNL     1      86.297  71.604  85.648  0.00  0.00    +0.000 A 
ATOM      9  C   UNL     1      87.348  71.042  86.393  0.00  0.00    +0.000 A 
ENDBRANCH   1   9
BRANCH   1  10
ATOM     10  O   UNL     1      88.157  69.384  84.980  0.00  0.00    +0.000 OA
BRANCH  10  11
ATOM     11  C   UNL     1      88.476  68.210  85.666  0.00  0.00    +0.000 A 
ATOM     12  C   UNL     1      89.807  67.787  85.675  0.00  0.00    +0.000 A 
ATOM     13  C   UNL     1      90.141  66.598  86.323  0.00  0.00    +0.000 A 
ATOM     14  C   UNL     1      89.150  65.834  86.941  0.00  0.00    +0.000 A 
ATOM     15  C   UNL     1      87.816  66.253  86.910  0.00  0.00    +0.000 A 
ATOM     16  C   UNL     1      87.475  67.442  86.265  0.00  0.00    +0.000 A 
ATOM     17 CL   UNL     1      85.819  67.922  86.214  0.00  0.00    +0.000 Cl
ENDBRANCH  10  11
ENDBRANCH   1  10
TORSDOF 3
ENDMDL
