MODEL 1
REMARK VINA RESULT:      -5.1      0.000      0.000
REMARK  Name = *****
REMARK  2 active torsions:
REMARK  status: ('A' for Active; 'I' for Inactive)
REMARK    1  A    between atoms: C_4  and  N_7
REMARK    2  A    between atoms: C_8  and  C_9
REMARK                            x       y       z     vdW  Elec       q    Type
REMARK                         _______ _______ _______ _____ _____    ______ ____
ROOT
ATOM      1  C   UNL     1     103.661 125.197  81.598  0.00  0.00    +0.000 A 
ATOM      2  C   UNL     1     104.046 124.078  82.337  0.00  0.00    +0.000 A 
ATOM      3  C   UNL     1     104.941 123.157  81.796  0.00  0.00    +0.000 A 
ATOM      4  C   UNL     1     105.456 123.346  80.521  0.00  0.00    +0.000 A 
ATOM      5  C   UNL     1     105.077 124.457  79.782  0.00  0.00    +0.000 A 
ATOM      6  C   UNL     1     104.185 125.380  80.317  0.00  0.00    +0.000 A 
ATOM      7  F   UNL     1     103.832 126.446  79.584  0.00  0.00    +0.000 F 
ATOM      8  F   UNL     1     105.571 124.644  78.550  0.00  0.00    +0.000 F 
ATOM      9  F   UNL     1     106.316 122.459  80.005  0.00  0.00    +0.000 F 
ATOM     10  F   UNL     1     105.311 122.085  82.511  0.00  0.00    +0.000 F 
ATOM     11  F   UNL     1     103.581 123.859  83.574  0.00  0.00    +0.000 F 
ENDROOT
BRANCH   1  13
ATOM     12  N   UNL     1     101.443 126.002  82.148  0.00  0.00    +0.000 NA
ATOM     13  C   UNL     1     102.720 126.207  82.106  0.00  0.00    +0.000 C 
BRANCH  12  17
ATOM     14  C   UNL     1      99.104 129.159  83.638  0.00  0.00    +0.000 A 
ATOM     15  C   UNL     1     100.486 129.170  83.828  0.00  0.00    +0.000 A 
ATOM     16  C   UNL     1     101.265 128.122  83.334  0.00  0.00    +0.000 A 
ATOM     17  C   UNL     1     100.668 127.054  82.658  0.00  0.00    +0.000 A 
ATOM     18  C   UNL     1      99.286 127.060  82.456  0.00  0.00    +0.000 A 
ATOM     19  C   UNL     1      98.504 128.107  82.949  0.00  0.00    +0.000 A 
ENDBRANCH  12  17
ENDBRANCH   1  13
TORSDOF 2
ENDMDL
