MODEL 1
REMARK VINA RESULT:      -4.6      0.000      0.000
REMARK  Name = *****
REMARK  5 active torsions:
REMARK  status: ('A' for Active; 'I' for Inactive)
REMARK    1  A    between atoms: C_1  and  C_2
REMARK    2  A    between atoms: C_7  and  S_8
REMARK    3  A    between atoms: S_8  and  C_9
REMARK    4  A    between atoms: C_9  and  C_10
REMARK    5  A    between atoms: C_10  and  C_11
REMARK                            x       y       z     vdW  Elec       q    Type
REMARK                         _______ _______ _______ _____ _____    ______ ____
ROOT
ATOM      1  S   UNL     1     104.562 125.224  83.185  0.00  0.00    +0.000 S 
ENDROOT
BRANCH   1   8
ATOM      2  C   UNL     1     104.731 124.497  80.088  0.00  0.00    +0.000 C 
ATOM      3  C   UNL     1     104.645 123.365  81.076  0.00  0.00    +0.000 A 
ATOM      4  C   UNL     1     104.643 122.044  80.596  0.00  0.00    +0.000 A 
ATOM      5  C   UNL     1     104.581 120.962  81.475  0.00  0.00    +0.000 A 
ATOM      6  C   UNL     1     104.524 121.184  82.847  0.00  0.00    +0.000 A 
ATOM      7  C   UNL     1     104.523 122.489  83.340  0.00  0.00    +0.000 A 
ATOM      8  C   UNL     1     104.575 123.584  82.465  0.00  0.00    +0.000 A 
ENDBRANCH   1   8
BRANCH   1   9
ATOM      9  C   UNL     1     102.775 125.341  83.548  0.00  0.00    +0.000 C 
BRANCH   9  10
ATOM     10  C   UNL     1     102.029 125.939  82.354  0.00  0.00    +0.000 C 
BRANCH  10  11
ATOM     11  C   UNL     1     100.948 126.953  82.674  0.00  0.00    +0.000 A 
ATOM     12  C   UNL     1      99.593 126.775  82.363  0.00  0.00    +0.000 A 
ATOM     13  C   UNL     1      98.652 127.759  82.684  0.00  0.00    +0.000 A 
ATOM     14  C   UNL     1      99.052 128.931  83.321  0.00  0.00    +0.000 A 
ATOM     15  C   UNL     1     100.392 129.123  83.639  0.00  0.00    +0.000 A 
ATOM     16  C   UNL     1     101.333 128.142  83.318  0.00  0.00    +0.000 A 
ENDBRANCH  10  11
ENDBRANCH   9  10
ENDBRANCH   1   9
TORSDOF 4
ENDMDL
