REMARK  Name = *****
REMARK  4 active torsions:
REMARK  status: ('A' for Active; 'I' for Inactive)
REMARK    1  A    between atoms: C_4  and  C_7
REMARK    2  A    between atoms: C_7  and  P_8
REMARK    3  A    between atoms: P_8  and  C_9
REMARK    4  A    between atoms: C_9  and  C_10
REMARK                            x       y       z     vdW  Elec       q    Type
REMARK                         _______ _______ _______ _____ _____    ______ ____
ROOT
ATOM      1  P   UNL     1      -3.617  -1.149  -0.881  0.00  0.00    +0.000 P 
ATOM      2  H   UNL     1      -3.264  -2.231  -0.100  0.00  0.00    +0.000 HD
ENDROOT
BRANCH   1   3
ATOM      3  C   UNL     1      -2.932   0.417  -0.232  0.00  0.00    +0.000 C 
BRANCH   3   7
ATOM      4  C   UNL     1       1.279  -0.376   0.293  0.00  0.00    +0.000 A 
ATOM      5  C   UNL     1       0.803   0.078  -0.935  0.00  0.00    +0.000 A 
ATOM      6  C   UNL     1      -0.559   0.330  -1.108  0.00  0.00    +0.000 A 
ATOM      7  C   UNL     1      -1.465   0.126  -0.054  0.00  0.00    +0.000 A 
ATOM      8  C   UNL     1      -0.969  -0.328   1.180  0.00  0.00    +0.000 A 
ATOM      9  C   UNL     1       0.394  -0.578   1.350  0.00  0.00    +0.000 A 
ENDBRANCH   3   7
ENDBRANCH   1   3
BRANCH   1  10
ATOM     10  C   UNL     1      -5.401  -0.764  -0.751  0.00  0.00    +0.000 C 
BRANCH  10  11
ATOM     11  C   UNL     1      -6.078  -2.078  -1.032  0.00  0.00    +0.000 A 
ATOM     12  C   UNL     1      -6.425  -2.945   0.018  0.00  0.00    +0.000 A 
ATOM     13  C   UNL     1      -7.072  -4.155  -0.242  0.00  0.00    +0.000 A 
ATOM     14  C   UNL     1      -7.383  -4.513  -1.552  0.00  0.00    +0.000 A 
ATOM     15  C   UNL     1      -7.049  -3.663  -2.604  0.00  0.00    +0.000 A 
ATOM     16  C   UNL     1      -6.403  -2.453  -2.347  0.00  0.00    +0.000 A 
ENDBRANCH  10  11
ENDBRANCH   1  10
TORSDOF 4
