MODEL 1
REMARK VINA RESULT:      -4.1      0.000      0.000
REMARK  Name = *****
REMARK  4 active torsions:
REMARK  status: ('A' for Active; 'I' for Inactive)
REMARK    1  A    between atoms: C_1  and  O_2
REMARK    2  A    between atoms: O_2  and  C_3
REMARK    3  A    between atoms: C_6  and  C_9
REMARK    4  A    between atoms: C_10  and  C_11
REMARK                            x       y       z     vdW  Elec       q    Type
REMARK                         _______ _______ _______ _____ _____    ______ ____
ROOT
ATOM      1  C   UNL     1      99.646 128.678  83.670  0.00  0.00    +0.000 A 
ATOM      2  C   UNL     1      99.244 127.531  82.984  0.00  0.00    +0.000 A 
ATOM      3  C   UNL     1     100.199 126.695  82.391  0.00  0.00    +0.000 A 
ATOM      4  C   UNL     1     101.558 127.003  82.482  0.00  0.00    +0.000 A 
ATOM      5  C   UNL     1     101.963 128.147  83.169  0.00  0.00    +0.000 A 
ATOM      6  C   UNL     1     101.008 128.979  83.759  0.00  0.00    +0.000 A 
ENDROOT
BRANCH   1   8
ATOM      7  C   UNL     1      99.246 130.932  84.312  0.00  0.00    +0.000 C 
ATOM      8  O   UNL     1      98.821 129.575  84.290  0.00  0.00    +0.000 OA
ENDBRANCH   1   8
BRANCH   4   9
ATOM      9  C   UNL     1     102.529 126.148  81.873  0.00  0.00    +0.000 C 
ATOM     10  C   UNL     1     103.348 125.434  81.360  0.00  0.00    +0.000 C 
BRANCH  10  11
ATOM     11  C   UNL     1     104.323 124.591  80.752  0.00  0.00    +0.000 A 
ATOM     12  C   UNL     1     104.483 123.249  81.023  0.00  0.00    +0.000 A 
ATOM     13  C   UNL     1     105.541 122.667  80.262  0.00  0.00    +0.000 A 
ATOM     14  C   UNL     1     106.149 123.590  79.438  0.00  0.00    +0.000 A 
ATOM     15  S   UNL     1     105.444 125.143  79.587  0.00  0.00    +0.000 S 
ENDBRANCH  10  11
ENDBRANCH   4   9
TORSDOF 3
ENDMDL
