REMARK  Name = *****
REMARK  5 active torsions:
REMARK  status: ('A' for Active; 'I' for Inactive)
REMARK    1  A    between atoms: C_1  and  C_2
REMARK    2  A    between atoms: C_8  and  C_9
REMARK    3  A    between atoms: C_9  and  C_10
REMARK    4  A    between atoms: C_9  and  S_12
REMARK    5  A    between atoms: S_12  and  C_13
REMARK                            x       y       z     vdW  Elec       q    Type
REMARK                         _______ _______ _______ _____ _____    ______ ____
ROOT
ATOM      1  C   UNL     1       2.696  -2.357  -0.586  0.00  0.00    +0.000 C 
ENDROOT
BRANCH   1   9
ATOM      2  C   UNL     1       1.519   0.531  -0.536  0.00  0.00    +0.000 C 
ATOM      3  C   UNL     1       2.929   0.251  -0.086  0.00  0.00    +0.000 C 
ATOM      4  C   UNL     1       3.446   1.194   0.986  0.00  0.00    +0.000 C 
ATOM      5  C   UNL     1       4.169   2.391   0.359  0.00  0.00    +0.000 C 
ATOM      6  C   UNL     1       5.123   2.033  -0.794  0.00  0.00    +0.000 C 
ATOM      7  C   UNL     1       5.297   0.531  -1.019  0.00  0.00    +0.000 C 
ATOM      8  C   UNL     1       3.953  -0.127  -1.136  0.00  0.00    +0.000 C 
ATOM      9  C   UNL     1       3.503  -1.165  -0.132  0.00  0.00    +0.000 C 
ENDBRANCH   1   9
BRANCH   1  10
ATOM     10  C   UNL     1       1.826  -2.891   0.532  0.00  0.00    +0.000 C 
ATOM     11  O   UNL     1       0.606  -2.745   0.574  0.00  0.00    +0.000 OA
ENDBRANCH   1  10
BRANCH   1  12
ATOM     12  S   UNL     1       3.901  -3.654  -1.085  0.00  0.00    +0.000 S 
BRANCH  12  13
ATOM     13  C   UNL     1       2.800  -4.898  -1.734  0.00  0.00    +0.000 A 
ATOM     14  C   UNL     1       1.930  -4.628  -2.796  0.00  0.00    +0.000 A 
ATOM     15  C   UNL     1       1.085  -5.626  -3.286  0.00  0.00    +0.000 A 
ATOM     16  C   UNL     1       1.113  -6.901  -2.726  0.00  0.00    +0.000 A 
ATOM     17  C   UNL     1       1.989  -7.183  -1.680  0.00  0.00    +0.000 A 
ATOM     18  C   UNL     1       2.834  -6.185  -1.189  0.00  0.00    +0.000 A 
ENDBRANCH  12  13
ENDBRANCH   1  12
TORSDOF 4
