REMARK  Name = *****
REMARK  3 active torsions:
REMARK  status: ('A' for Active; 'I' for Inactive)
REMARK    1  A    between atoms: C_6  and  C_7
REMARK    2  A    between atoms: C_7  and  S_8
REMARK    3  A    between atoms: S_8  and  C_10
REMARK                            x       y       z     vdW  Elec       q    Type
REMARK                         _______ _______ _______ _____ _____    ______ ____
ROOT
ATOM      1  S   UNL     1       5.666   2.007  -0.262  0.00  0.00    +0.000 S 
ATOM      2  O   UNL     1       5.296   2.951   0.848  0.00  0.00    +0.000 OA
ENDROOT
BRANCH   1   3
ATOM      3  C   UNL     1       7.444   1.722  -0.078  0.00  0.00    +0.000 A 
ATOM      4  C   UNL     1       8.142   1.034  -1.080  0.00  0.00    +0.000 A 
ATOM      5  C   UNL     1       9.514   0.811  -0.949  0.00  0.00    +0.000 A 
ATOM      6  C   UNL     1      10.183   1.281   0.175  0.00  0.00    +0.000 A 
ATOM      7  C   UNL     1       9.507   1.975   1.172  0.00  0.00    +0.000 A 
ATOM      8  C   UNL     1       8.135   2.198   1.044  0.00  0.00    +0.000 A 
ATOM      9  F   UNL     1      11.499   1.066   0.297  0.00  0.00    +0.000 F 
ENDBRANCH   1   3
BRANCH   1  10
ATOM     10  C   UNL     1       5.124   0.333   0.231  0.00  0.00    +0.000 C 
BRANCH  10  16
ATOM     11  C   UNL     1       2.778   0.693   1.095  0.00  0.00    +0.000 A 
ATOM     12  C   UNL     1       1.393   0.551   0.987  0.00  0.00    +0.000 A 
ATOM     13  C   UNL     1       0.850  -0.115  -0.109  0.00  0.00    +0.000 A 
ATOM     14  C   UNL     1       1.682  -0.637  -1.099  0.00  0.00    +0.000 A 
ATOM     15  C   UNL     1       3.067  -0.494  -0.990  0.00  0.00    +0.000 A 
ATOM     16  C   UNL     1       3.630   0.168   0.111  0.00  0.00    +0.000 A 
ATOM     17  I   UNL     1      -1.211  -0.327  -0.273  0.00  0.00    +0.000 I 
ENDBRANCH  10  16
ENDBRANCH   1  10
TORSDOF 3
