MODEL 1
REMARK VINA RESULT:      -4.7      0.000      0.000
REMARK  Name = *****
REMARK  3 active torsions:
REMARK  status: ('A' for Active; 'I' for Inactive)
REMARK    1  A    between atoms: C_4  and  C_7
REMARK    2  A    between atoms: C_7  and  C_8
REMARK    3  A    between atoms: C_8  and  C_10
REMARK                            x       y       z     vdW  Elec       q    Type
REMARK                         _______ _______ _______ _____ _____    ______ ____
ROOT
ATOM      1  C   UNL     1     102.782 127.383  82.850  0.00  0.00    +0.000 C 
ATOM      2 CL   UNL     1     103.600 128.958  83.100  0.00  0.00    +0.000 Cl
ENDROOT
BRANCH   1   6
ATOM      3  C   UNL     1      98.505 128.003  83.031  0.00  0.00    +0.000 A 
ATOM      4  C   UNL     1      99.376 128.962  83.542  0.00  0.00    +0.000 A 
ATOM      5  C   UNL     1     100.756 128.757  83.479  0.00  0.00    +0.000 A 
ATOM      6  C   UNL     1     101.282 127.584  82.912  0.00  0.00    +0.000 A 
ATOM      7  C   UNL     1     100.390 126.636  82.384  0.00  0.00    +0.000 A 
ATOM      8  C   UNL     1      99.010 126.843  82.449  0.00  0.00    +0.000 A 
ENDBRANCH   1   6
BRANCH   1   9
ATOM      9  C   UNL     1     103.272 126.753  81.547  0.00  0.00    +0.000 C 
ATOM     10  O   UNL     1     103.254 127.335  80.461  0.00  0.00    +0.000 OA
BRANCH   9  11
ATOM     11  C   UNL     1     103.794 125.352  81.580  0.00  0.00    +0.000 A 
ATOM     12  C   UNL     1     104.255 124.686  80.437  0.00  0.00    +0.000 A 
ATOM     13  C   UNL     1     104.727 123.373  80.532  0.00  0.00    +0.000 A 
ATOM     14  C   UNL     1     104.746 122.721  81.764  0.00  0.00    +0.000 A 
ATOM     15  C   UNL     1     104.299 123.379  82.907  0.00  0.00    +0.000 A 
ATOM     16  C   UNL     1     103.828 124.691  82.817  0.00  0.00    +0.000 A 
ENDBRANCH   9  11
ENDBRANCH   1   9
TORSDOF 3
ENDMDL
