MODEL 1
REMARK VINA RESULT:      -4.8      0.000      0.000
REMARK  Name = *****
REMARK  4 active torsions:
REMARK  status: ('A' for Active; 'I' for Inactive)
REMARK    1  A    between atoms: C_1  and  O_2
REMARK    2  A    between atoms: O_2  and  C_3
REMARK    3  A    between atoms: C_6  and  C_9
REMARK    4  A    between atoms: C_10  and  C_11
REMARK                            x       y       z     vdW  Elec       q    Type
REMARK                         _______ _______ _______ _____ _____    ______ ____
ROOT
ATOM      1  C   UNL     1     102.826 125.472  81.907  0.00  0.00    +0.000 C 
ATOM      2  C   UNL     1     101.957 126.220  82.268  0.00  0.00    +0.000 C 
ENDROOT
BRANCH   2   3
ATOM      3  C   UNL     1     100.931 127.137  82.669  0.00  0.00    +0.000 A 
ATOM      4  C   UNL     1      99.595 126.803  82.416  0.00  0.00    +0.000 A 
ATOM      5  C   UNL     1      98.567 127.676  82.776  0.00  0.00    +0.000 A 
ATOM      6  C   UNL     1      98.866 128.890  83.392  0.00  0.00    +0.000 A 
ATOM      7  C   UNL     1     100.194 129.231  83.652  0.00  0.00    +0.000 A 
ATOM      8  C   UNL     1     101.227 128.358  83.293  0.00  0.00    +0.000 A 
ATOM      9 CL   UNL     1     102.850 128.842  83.642  0.00  0.00    +0.000 Cl
ENDBRANCH   2   3
BRANCH   1  13
ATOM     10  C   UNL     1     105.998 123.008  80.572  0.00  0.00    +0.000 A 
ATOM     11  C   UNL     1     105.493 124.013  79.745  0.00  0.00    +0.000 A 
ATOM     12  C   UNL     1     104.435 124.818  80.184  0.00  0.00    +0.000 A 
ATOM     13  C   UNL     1     103.876 124.619  81.448  0.00  0.00    +0.000 A 
ATOM     14  C   UNL     1     104.364 123.602  82.267  0.00  0.00    +0.000 A 
ATOM     15  C   UNL     1     105.418 122.798  81.826  0.00  0.00    +0.000 A 
BRANCH  10  17
ATOM     16  C   UNL     1     107.226 121.060  81.137  0.00  0.00    +0.000 C 
ATOM     17  O   UNL     1     107.035 122.170  80.270  0.00  0.00    +0.000 OA
ENDBRANCH  10  17
ENDBRANCH   1  13
TORSDOF 3
ENDMDL
