MODEL 1
REMARK VINA RESULT:      -4.8      0.000      0.000
REMARK  Name = *****
REMARK  4 active torsions:
REMARK  status: ('A' for Active; 'I' for Inactive)
REMARK    1  A    between atoms: C_1  and  C_2
REMARK    2  A    between atoms: C_5  and  S_8
REMARK    3  A    between atoms: S_8  and  N_9
REMARK    4  A    between atoms: N_9  and  C_10
REMARK                            x       y       z     vdW  Elec       q    Type
REMARK                         _______ _______ _______ _____ _____    ______ ____
ROOT
ATOM      1  S   UNL     1     103.372 126.037  82.052  0.00  0.00    +0.000 S 
ATOM      2  O   UNL     1     104.345 126.790  82.816  0.00  0.00    +0.000 OA
ATOM      3 CL   UNL     1     103.513 126.814  80.154  0.00  0.00    +0.000 Cl
ENDROOT
BRANCH   1   8
ATOM      4  C   UNL     1     105.583 120.386  81.691  0.00  0.00    +0.000 C 
ATOM      5  C   UNL     1     105.014 121.773  81.769  0.00  0.00    +0.000 A 
ATOM      6  C   UNL     1     104.934 122.571  80.620  0.00  0.00    +0.000 A 
ATOM      7  C   UNL     1     104.439 123.875  80.693  0.00  0.00    +0.000 A 
ATOM      8  C   UNL     1     104.019 124.386  81.924  0.00  0.00    +0.000 A 
ATOM      9  C   UNL     1     104.131 123.611  83.083  0.00  0.00    +0.000 A 
ATOM     10  C   UNL     1     104.626 122.309  83.003  0.00  0.00    +0.000 A 
ENDBRANCH   1   8
BRANCH   1  11
ATOM     11  N   UNL     1     101.859 125.994  82.294  0.00  0.00    +0.000 NA
BRANCH  11  12
ATOM     12  C   UNL     1     100.963 127.032  82.690  0.00  0.00    +0.000 A 
ATOM     13  C   UNL     1     101.316 128.214  83.343  0.00  0.00    +0.000 A 
ATOM     14  C   UNL     1     100.340 129.164  83.670  0.00  0.00    +0.000 A 
ATOM     15  C   UNL     1      99.005 128.941  83.344  0.00  0.00    +0.000 A 
ATOM     16  C   UNL     1      98.642 127.767  82.692  0.00  0.00    +0.000 A 
ATOM     17  C   UNL     1      99.619 126.822  82.367  0.00  0.00    +0.000 A 
ENDBRANCH  11  12
ENDBRANCH   1  11
TORSDOF 3
ENDMDL
