MODEL 1
REMARK VINA RESULT:      -4.7      0.000      0.000
REMARK  Name = *****
REMARK  5 active torsions:
REMARK  status: ('A' for Active; 'I' for Inactive)
REMARK    1  A    between atoms: C_4  and  C_7
REMARK    2  A    between atoms: C_7  and  C_8
REMARK    3  A    between atoms: C_7  and  C_11
REMARK    4  A    between atoms: C_8  and  C_9
REMARK    5  A    between atoms: C_11  and  C_12
REMARK                            x       y       z     vdW  Elec       q    Type
REMARK                         _______ _______ _______ _____ _____    ______ ____
ROOT
ATOM      1  C   UNL     1     102.693 127.639  82.861  0.00  0.00    +0.000 C 
ENDROOT
BRANCH   1   5
ATOM      2  C   UNL     1      98.366 127.922  83.051  0.00  0.00    +0.000 A 
ATOM      3  C   UNL     1      99.168 128.930  83.578  0.00  0.00    +0.000 A 
ATOM      4  C   UNL     1     100.558 128.822  83.517  0.00  0.00    +0.000 A 
ATOM      5  C   UNL     1     101.169 127.701  82.931  0.00  0.00    +0.000 A 
ATOM      6  C   UNL     1     100.346 126.696  82.400  0.00  0.00    +0.000 A 
ATOM      7  C   UNL     1      98.955 126.807  82.461  0.00  0.00    +0.000 A 
ENDBRANCH   1   5
BRANCH   1   8
ATOM      8  C   UNL     1     103.320 128.807  83.643  0.00  0.00    +0.000 C 
BRANCH   8   9
ATOM      9  C   UNL     1     104.504 129.414  82.937  0.00  0.00    +0.000 C 
ATOM     10  O   UNL     1     104.924 130.543  83.177  0.00  0.00    +0.000 OA
ENDBRANCH   8   9
ENDBRANCH   1   8
BRANCH   1  11
ATOM     11  C   UNL     1     103.241 127.499  81.420  0.00  0.00    +0.000 C 
BRANCH  11  12
ATOM     12  C   UNL     1     103.806 126.127  81.119  0.00  0.00    +0.000 A 
ATOM     13  C   UNL     1     103.603 125.065  82.014  0.00  0.00    +0.000 A 
ATOM     14  C   UNL     1     104.133 123.803  81.741  0.00  0.00    +0.000 A 
ATOM     15  C   UNL     1     104.864 123.603  80.576  0.00  0.00    +0.000 A 
ATOM     16  C   UNL     1     105.074 124.641  79.677  0.00  0.00    +0.000 A 
ATOM     17  C   UNL     1     104.545 125.904  79.948  0.00  0.00    +0.000 A 
ATOM     18  F   UNL     1     105.372 122.391  80.316  0.00  0.00    +0.000 F 
ENDBRANCH  11  12
ENDBRANCH   1  11
TORSDOF 5
ENDMDL
