REMARK  Name = *****
REMARK  4 active torsions:
REMARK  status: ('A' for Active; 'I' for Inactive)
REMARK    1  A    between atoms: C_1  and  C_2
REMARK    2  A    between atoms: C_5  and  S_8
REMARK    3  A    between atoms: S_8  and  N_9
REMARK    4  A    between atoms: N_9  and  C_10
REMARK                            x       y       z     vdW  Elec       q    Type
REMARK                         _______ _______ _______ _____ _____    ______ ____
ROOT
ATOM      1  S   UNL     1      -3.553   0.112  -1.123  0.00  0.00    +0.000 S 
ENDROOT
BRANCH   1   6
ATOM      2  C   UNL     1       2.358   1.325  -0.215  0.00  0.00    +0.000 C 
ATOM      3  C   UNL     1       0.909   1.001  -0.425  0.00  0.00    +0.000 A 
ATOM      4  C   UNL     1       0.011   1.039   0.648  0.00  0.00    +0.000 A 
ATOM      5  C   UNL     1      -1.346   0.768   0.445  0.00  0.00    +0.000 A 
ATOM      6  C   UNL     1      -1.826   0.471  -0.834  0.00  0.00    +0.000 A 
ATOM      7  C   UNL     1      -0.932   0.440  -1.907  0.00  0.00    +0.000 A 
ATOM      8  C   UNL     1       0.425   0.710  -1.706  0.00  0.00    +0.000 A 
ENDBRANCH   1   6
BRANCH   1   9
ATOM      9  N   UNL     1      -4.277   1.376  -0.321  0.00  0.00    +0.000 NA
ATOM     10  H   UNL     1      -4.014   2.225  -0.821  0.00  0.00    +0.000 HD
BRANCH   9  11
ATOM     11  C   UNL     1      -5.736   1.430  -0.147  0.00  0.00    +0.000 C 
ATOM     12  C   UNL     1      -6.126   2.830   0.356  0.00  0.00    +0.000 C 
ATOM     13  C   UNL     1      -7.628   2.942   0.611  0.00  0.00    +0.000 C 
ATOM     14  C   UNL     1      -8.115   1.865   1.574  0.00  0.00    +0.000 C 
ATOM     15  C   UNL     1      -7.728   0.470   1.095  0.00  0.00    +0.000 C 
ATOM     16  C   UNL     1      -6.226   0.356   0.840  0.00  0.00    +0.000 C 
ENDBRANCH   9  11
ENDBRANCH   1   9
TORSDOF 3
