MODEL 1
REMARK VINA RESULT:      -4.1      0.000      0.000
REMARK  Name = *****
REMARK  3 active torsions:
REMARK  status: ('A' for Active; 'I' for Inactive)
REMARK    1  A    between atoms: C_1  and  C_2
REMARK    2  A    between atoms: C_5  and  C_7
REMARK    3  A    between atoms: C_8  and  C_9
REMARK                            x       y       z     vdW  Elec       q    Type
REMARK                         _______ _______ _______ _____ _____    ______ ____
ROOT
ATOM      1  C   UNL     1      86.438  62.058  88.941  0.00  0.00    +0.000 C 
ATOM      2  C   UNL     1      85.808  61.261  89.581  0.00  0.00    +0.000 C 
ENDROOT
BRANCH   1   7
ATOM      3  C   UNL     1      88.409  65.140  85.120  0.00  0.00    +0.000 C 
ATOM      4  C   UNL     1      88.135  64.458  86.416  0.00  0.00    +0.000 A 
ATOM      5  C   UNL     1      88.765  64.635  87.632  0.00  0.00    +0.000 A 
ATOM      6  C   UNL     1      88.214  63.794  88.635  0.00  0.00    +0.000 A 
ATOM      7  C   UNL     1      87.188  63.002  88.178  0.00  0.00    +0.000 A 
ATOM      8  S   UNL     1      86.892  63.284  86.515  0.00  0.00    +0.000 S 
ATOM      9 BR   UNL     1      88.892  63.832  90.402  0.00  0.00    +0.000 Br
ENDBRANCH   1   7
BRANCH   2  10
ATOM     10  C   UNL     1      85.058  60.309  90.341  0.00  0.00    +0.000 A 
ATOM     11  C   UNL     1      85.694  59.192  90.888  0.00  0.00    +0.000 A 
ATOM     12  C   UNL     1      84.960  58.264  91.629  0.00  0.00    +0.000 A 
ATOM     13  C   UNL     1      83.592  58.452  91.824  0.00  0.00    +0.000 A 
ATOM     14  C   UNL     1      82.955  59.566  91.279  0.00  0.00    +0.000 A 
ATOM     15  C   UNL     1      83.688  60.496  90.537  0.00  0.00    +0.000 A 
ENDBRANCH   2  10
TORSDOF 2
ENDMDL
