MODEL 1
REMARK VINA RESULT:      -4.7      0.000      0.000
REMARK  Name = *****
REMARK  3 active torsions:
REMARK  status: ('A' for Active; 'I' for Inactive)
REMARK    1  A    between atoms: C_1  and  C_2
REMARK    2  A    between atoms: C_6  and  C_7
REMARK    3  A    between atoms: C_8  and  C_9
REMARK                            x       y       z     vdW  Elec       q    Type
REMARK                         _______ _______ _______ _____ _____    ______ ____
ROOT
ATOM      1  C   UNL     1     104.291 123.779  83.063  0.00  0.00    +0.000 C 
ATOM      2  C   UNL     1     104.653 123.778  81.580  0.00  0.00    +0.000 C 
ATOM      3  C   UNL     1     106.114 124.259  81.341  0.00  0.00    +0.000 C 
ATOM      4  C   UNL     1     105.932 125.768  81.152  0.00  0.00    +0.000 C 
ATOM      5  C   UNL     1     104.939 125.605  79.994  0.00  0.00    +0.000 C 
ATOM      6  C   UNL     1     103.823 124.743  80.651  0.00  0.00    +0.000 C 
ATOM      7  C   UNL     1     105.777 124.703  79.109  0.00  0.00    +0.000 C 
ATOM      8  C   UNL     1     106.482 123.899  79.919  0.00  0.00    +0.000 C 
ENDROOT
BRANCH   6   9
ATOM      9  C   UNL     1     102.834 125.578  81.359  0.00  0.00    +0.000 C 
ATOM     10  C   UNL     1     102.033 126.283  81.915  0.00  0.00    +0.000 C 
BRANCH  10  11
ATOM     11  C   UNL     1     101.074 127.144  82.542  0.00  0.00    +0.000 A 
ATOM     12  C   UNL     1      99.709 126.880  82.419  0.00  0.00    +0.000 A 
ATOM     13  C   UNL     1      98.773 127.730  83.015  0.00  0.00    +0.000 A 
ATOM     14  C   UNL     1      99.202 128.846  83.734  0.00  0.00    +0.000 A 
ATOM     15  C   UNL     1     100.566 129.110  83.861  0.00  0.00    +0.000 A 
ATOM     16  C   UNL     1     101.502 128.260  83.267  0.00  0.00    +0.000 A 
ENDBRANCH  10  11
ENDBRANCH   6   9
TORSDOF 2
ENDMDL
