MODEL 1
REMARK VINA RESULT:      -4.7      0.000      0.000
REMARK  Name = *****
REMARK  3 active torsions:
REMARK  status: ('A' for Active; 'I' for Inactive)
REMARK    1  A    between atoms: C_4  and  C_7
REMARK    2  A    between atoms: C_7  and  N_9
REMARK    3  A    between atoms: N_9  and  C_10
REMARK                            x       y       z     vdW  Elec       q    Type
REMARK                         _______ _______ _______ _____ _____    ______ ____
ROOT
ATOM      1  N   UNL     1     101.689 126.020  81.892  0.00  0.00    +0.000 N 
ATOM      2  H   UNL     1     101.305 125.116  81.943  0.00  0.00    +0.000 HD
ENDROOT
BRANCH   1   3
ATOM      3  C   UNL     1     100.871 127.017  82.474  0.00  0.00    +0.000 A 
ATOM      4  C   UNL     1      99.478 127.065  82.406  0.00  0.00    +0.000 A 
ATOM      5  C   UNL     1      98.766 128.092  83.037  0.00  0.00    +0.000 A 
ATOM      6  C   UNL     1      99.447 129.070  83.746  0.00  0.00    +0.000 A 
ATOM      7  C   UNL     1     100.830 129.037  83.843  0.00  0.00    +0.000 A 
ATOM      8  C   UNL     1     101.538 128.011  83.213  0.00  0.00    +0.000 A 
ATOM      9  F   UNL     1      98.764 130.049  84.351  0.00  0.00    +0.000 F 
ENDBRANCH   1   3
BRANCH   1  10
ATOM     10  C   UNL     1     102.929 126.063  81.266  0.00  0.00    +0.000 C 
ATOM     11  S   UNL     1     103.615 127.290  80.350  0.00  0.00    +0.000 S 
BRANCH  10  15
ATOM     12  C   UNL     1     105.134 122.465  81.980  0.00  0.00    +0.000 A 
ATOM     13  C   UNL     1     104.507 123.113  83.046  0.00  0.00    +0.000 A 
ATOM     14  C   UNL     1     103.794 124.292  82.826  0.00  0.00    +0.000 A 
ATOM     15  C   UNL     1     103.716 124.823  81.533  0.00  0.00    +0.000 A 
ATOM     16  C   UNL     1     104.340 124.171  80.462  0.00  0.00    +0.000 A 
ATOM     17  C   UNL     1     105.052 122.992  80.690  0.00  0.00    +0.000 A 
ENDBRANCH  10  15
ENDBRANCH   1  10
TORSDOF 3
ENDMDL
