REMARK  Name = *****
REMARK  6 active torsions:
REMARK  status: ('A' for Active; 'I' for Inactive)
REMARK    1  A    between atoms: C_1  and  C_2
REMARK    2  A    between atoms: C_5  and  C_8
REMARK    3  A    between atoms: C_8  and  C_18
REMARK    4  A    between atoms: N_9  and  C_10
REMARK    5  A    between atoms: C_11  and  C_17
REMARK    6  A    between atoms: C_13  and  C_16
REMARK                            x       y       z     vdW  Elec       q    Type
REMARK                         _______ _______ _______ _____ _____    ______ ____
ROOT
ATOM      1  C   UNL     1      -3.384   0.007  -0.122  0.00  0.00    +0.000 C 
ATOM      2  N   UNL     1      -4.002  -1.006   0.409  0.00  0.00    +0.000 NA
ATOM      3  C   UNL     1      -4.171   1.289  -0.276  0.00  0.00    +0.000 C 
ENDROOT
BRANCH   2   4
ATOM      4  C   UNL     1      -3.348  -2.227   0.641  0.00  0.00    +0.000 A 
ATOM      5  C   UNL     1      -3.718  -3.378  -0.076  0.00  0.00    +0.000 A 
ATOM      6  C   UNL     1      -3.068  -4.596   0.185  0.00  0.00    +0.000 A 
ATOM      7  C   UNL     1      -2.075  -4.687   1.169  0.00  0.00    +0.000 A 
ATOM      8  C   UNL     1      -1.724  -3.542   1.888  0.00  0.00    +0.000 A 
ATOM      9  C   UNL     1      -2.367  -2.328   1.636  0.00  0.00    +0.000 A 
ATOM     10  C   UNL     1      -1.367  -5.987   1.413  0.00  0.00    +0.000 C 
ATOM     11  C   UNL     1      -4.810  -3.316  -1.106  0.00  0.00    +0.000 C 
ENDBRANCH   2   4
BRANCH   1  16
ATOM     12  C   UNL     1       2.093   0.245  -1.965  0.00  0.00    +0.000 C 
ATOM     13  C   UNL     1       0.679   0.162  -1.467  0.00  0.00    +0.000 A 
ATOM     14  C   UNL     1      -0.217  -0.752  -2.036  0.00  0.00    +0.000 A 
ATOM     15  C   UNL     1      -1.541  -0.813  -1.598  0.00  0.00    +0.000 A 
ATOM     16  C   UNL     1      -1.975   0.046  -0.587  0.00  0.00    +0.000 A 
ATOM     17  C   UNL     1      -1.097   0.977  -0.026  0.00  0.00    +0.000 A 
ATOM     18  C   UNL     1       0.226   1.035  -0.469  0.00  0.00    +0.000 A 
ENDBRANCH   1  16
TORSDOF 2
