MODEL 1
REMARK VINA RESULT:      -4.0      0.000      0.000
REMARK  Name = *****
REMARK  6 active torsions:
REMARK  status: ('A' for Active; 'I' for Inactive)
REMARK    1  A    between atoms: C_1  and  C_2
REMARK    2  A    between atoms: C_2  and  O_3
REMARK    3  A    between atoms: O_3  and  C_4
REMARK    4  A    between atoms: C_7  and  N_9
REMARK    5  A    between atoms: N_9  and  C_10
REMARK    6  A    between atoms: C_10  and  C_11
REMARK                            x       y       z     vdW  Elec       q    Type
REMARK                         _______ _______ _______ _____ _____    ______ ____
ROOT
ATOM      1  C   UNL     1      90.246  67.500  85.086  0.00  0.00    +0.000 A 
ATOM      2  N   UNL     1      90.208  67.642  86.393  0.00  0.00    +0.000 NA
ATOM      3  C   UNL     1      89.634  68.861  86.694  0.00  0.00    +0.000 A 
ATOM      4  C   UNL     1      89.273  69.659  85.621  0.00  0.00    +0.000 A 
ATOM      5  S   UNL     1      89.625  68.805  84.170  0.00  0.00    +0.000 S 
ENDROOT
BRANCH   1   6
ATOM      6  O   UNL     1      90.733  66.417  84.480  0.00  0.00    +0.000 OA
BRANCH   6   8
ATOM      7  C   UNL     1      91.682  64.230  84.520  0.00  0.00    +0.000 C 
ATOM      8  C   UNL     1      91.248  65.418  85.358  0.00  0.00    +0.000 C 
ENDBRANCH   6   8
ENDBRANCH   1   6
BRANCH   4   9
ATOM      9  N   UNL     1      88.693  70.887  85.572  0.00  0.00    +0.000 NA
BRANCH   9  10
ATOM     10  C   UNL     1      87.447  70.887  85.216  0.00  0.00    +0.000 C 
BRANCH  10  11
ATOM     11  C   UNL     1      86.384  71.405  86.101  0.00  0.00    +0.000 A 
ATOM     12  C   UNL     1      85.240  72.009  85.572  0.00  0.00    +0.000 A 
ATOM     13  C   UNL     1      84.250  72.489  86.431  0.00  0.00    +0.000 A 
ATOM     14  C   UNL     1      84.403  72.366  87.811  0.00  0.00    +0.000 A 
ATOM     15  C   UNL     1      85.546  71.762  88.338  0.00  0.00    +0.000 A 
ATOM     16  C   UNL     1      86.540  71.280  87.485  0.00  0.00    +0.000 A 
ENDBRANCH  10  11
ENDBRANCH   9  10
ENDBRANCH   4   9
TORSDOF 5
ENDMDL
