MODEL 1
REMARK VINA RESULT:      -3.5      0.000      0.000
REMARK  Name = *****
REMARK  4 active torsions:
REMARK  status: ('A' for Active; 'I' for Inactive)
REMARK    1  A    between atoms: C_4  and  S_6
REMARK    2  A    between atoms: S_6  and  C_7
REMARK    3  A    between atoms: C_7  and  S_9
REMARK    4  A    between atoms: S_9  and  C_10
REMARK                            x       y       z     vdW  Elec       q    Type
REMARK                         _______ _______ _______ _____ _____    ______ ____
ROOT
ATOM      1  C   UNL     1     100.516 126.508  84.086  0.00  0.00    +0.000 C 
ATOM      2  S   UNL     1     101.455 125.887  85.326  0.00  0.00    +0.000 S 
ENDROOT
BRANCH   1   3
ATOM      3  S   UNL     1     100.988 126.474  82.392  0.00  0.00    +0.000 S 
BRANCH   3   7
ATOM      4  C   UNL     1     103.486 125.567  80.385  0.00  0.00    +0.000 C 
ATOM      5  C   UNL     1     103.530 127.092  80.302  0.00  0.00    +0.000 C 
ATOM      6  C   UNL     1     103.478 127.595  81.742  0.00  0.00    +0.000 C 
ATOM      7  C   UNL     1     102.812 126.474  82.539  0.00  0.00    +0.000 C 
ATOM      8  C   UNL     1     103.395 125.227  81.871  0.00  0.00    +0.000 C 
ENDBRANCH   3   7
ENDBRANCH   1   3
BRANCH   1   9
ATOM      9  S   UNL     1      98.941 127.245  84.355  0.00  0.00    +0.000 S 
BRANCH   9  10
ATOM     10  C   UNL     1      99.444 128.945  84.746  0.00  0.00    +0.000 C 
ATOM     11  C   UNL     1      98.458 129.689  85.643  0.00  0.00    +0.000 C 
ATOM     12  C   UNL     1      98.758 131.167  85.394  0.00  0.00    +0.000 C 
ATOM     13  C   UNL     1      99.493 131.236  84.055  0.00  0.00    +0.000 C 
ATOM     14  C   UNL     1      99.466 129.818  83.494  0.00  0.00    +0.000 C 
ENDBRANCH   9  10
ENDBRANCH   1   9
TORSDOF 4
ENDMDL
