REMARK  Name = *****
REMARK  5 active torsions:
REMARK  status: ('A' for Active; 'I' for Inactive)
REMARK    1  A    between atoms: C_4  and  C_7
REMARK    2  A    between atoms: C_7  and  C_8
REMARK    3  A    between atoms: C_8  and  C_9
REMARK    4  A    between atoms: C_8  and  C_11
REMARK    5  A    between atoms: C_9  and  S_10
REMARK                            x       y       z     vdW  Elec       q    Type
REMARK                         _______ _______ _______ _____ _____    ______ ____
ROOT
ATOM      1  C   UNL     1      -3.653  -0.841   0.093  0.00  0.00    +0.000 C 
ENDROOT
BRANCH   1   2
ATOM      2  C   UNL     1      -5.113  -0.631  -0.308  0.00  0.00    +0.000 A 
ATOM      3  C   UNL     1      -5.759  -1.607  -1.085  0.00  0.00    +0.000 A 
ATOM      4  C   UNL     1      -7.094  -1.454  -1.465  0.00  0.00    +0.000 A 
ATOM      5  C   UNL     1      -7.806  -0.325  -1.070  0.00  0.00    +0.000 A 
ATOM      6  C   UNL     1      -7.184   0.648  -0.292  0.00  0.00    +0.000 A 
ATOM      7  C   UNL     1      -5.848   0.497   0.088  0.00  0.00    +0.000 A 
ENDBRANCH   1   2
BRANCH   1   8
ATOM      8  C   UNL     1      -2.796   0.438  -0.076  0.00  0.00    +0.000 C 
BRANCH   8  12
ATOM      9  C   UNL     1       1.456  -0.221   0.308  0.00  0.00    +0.000 A 
ATOM     10  C   UNL     1       0.752  -0.811  -0.739  0.00  0.00    +0.000 A 
ATOM     11  C   UNL     1      -0.621  -0.595  -0.867  0.00  0.00    +0.000 A 
ATOM     12  C   UNL     1      -1.307   0.207   0.057  0.00  0.00    +0.000 A 
ATOM     13  C   UNL     1      -0.583   0.807   1.097  0.00  0.00    +0.000 A 
ATOM     14  C   UNL     1       0.790   0.590   1.223  0.00  0.00    +0.000 A 
ENDBRANCH   8  12
ENDBRANCH   1   8
BRANCH   1  15
ATOM     15  C   UNL     1      -3.532  -1.532   1.471  0.00  0.00    +0.000 C 
BRANCH  15  16
ATOM     16  S   UNL     1      -3.928  -0.518   2.935  0.00  0.00    +0.000 S 
ATOM     17  H   UNL     1      -3.038   0.506   3.031  0.00  0.00    +0.000 HD
ENDBRANCH  15  16
ENDBRANCH   1  15
TORSDOF 5
