MODEL 1
REMARK VINA RESULT:      -4.9      0.000      0.000
REMARK  Name = *****
REMARK  4 active torsions:
REMARK  status: ('A' for Active; 'I' for Inactive)
REMARK    1  A    between atoms: C_4  and  C_7
REMARK    2  A    between atoms: C_7  and  C_8
REMARK    3  A    between atoms: C_8  and  C_9
REMARK    4  A    between atoms: C_14  and  C_15
REMARK                            x       y       z     vdW  Elec       q    Type
REMARK                         _______ _______ _______ _____ _____    ______ ____
ROOT
ATOM      1  C   UNL     1      86.604  71.220  86.632  0.00  0.00    +0.000 A 
ATOM      2  C   UNL     1      85.348  71.847  86.527  0.00  0.00    +0.000 A 
ATOM      3  C   UNL     1      84.658  72.267  87.663  0.00  0.00    +0.000 A 
ATOM      4  C   UNL     1      85.212  72.071  88.923  0.00  0.00    +0.000 A 
ATOM      5  C   UNL     1      86.457  71.454  89.046  0.00  0.00    +0.000 A 
ATOM      6  C   UNL     1      87.173  71.025  87.911  0.00  0.00    +0.000 A 
ENDROOT
BRANCH   6   7
ATOM      7  C   UNL     1      88.517  70.354  88.104  0.00  0.00    +0.000 C 
ATOM      8  F   UNL     1      88.531  69.062  87.677  0.00  0.00    +0.000 F 
ATOM      9  F   UNL     1      89.533  70.969  87.434  0.00  0.00    +0.000 F 
ATOM     10  F   UNL     1      88.904  70.326  89.410  0.00  0.00    +0.000 F 
ENDBRANCH   6   7
BRANCH   1  11
ATOM     11  C   UNL     1      87.302  70.805  85.351  0.00  0.00    +0.000 C 
BRANCH  11  12
ATOM     12  C   UNL     1      87.552  71.998  84.419  0.00  0.00    +0.000 C 
BRANCH  12  16
ATOM     13  C   UNL     1      91.666  72.511  83.177  0.00  0.00    +0.000 A 
ATOM     14  C   UNL     1      90.782  73.580  83.052  0.00  0.00    +0.000 A 
ATOM     15  C   UNL     1      89.447  73.439  83.445  0.00  0.00    +0.000 A 
ATOM     16  C   UNL     1      88.978  72.228  83.967  0.00  0.00    +0.000 A 
ATOM     17  C   UNL     1      89.885  71.160  84.086  0.00  0.00    +0.000 A 
ATOM     18  C   UNL     1      91.217  71.300  83.695  0.00  0.00    +0.000 A 
ENDBRANCH  12  16
ENDBRANCH  11  12
ENDBRANCH   1  11
TORSDOF 4
ENDMDL
