MODEL 1
REMARK VINA RESULT:      -4.3      0.000      0.000
REMARK  Name = *****
REMARK  4 active torsions:
REMARK  status: ('A' for Active; 'I' for Inactive)
REMARK    1  A    between atoms: C_4  and  N_7
REMARK    2  A    between atoms: N_7  and  C_8
REMARK    3  A    between atoms: C_8  and  O_10
REMARK    4  A    between atoms: O_10  and  C_11
REMARK                            x       y       z     vdW  Elec       q    Type
REMARK                         _______ _______ _______ _____ _____    ______ ____
ROOT
ATOM      1  C   UNL     1      88.453  70.880  88.959  0.00  0.00    +0.000 C 
ATOM      2  S   UNL     1      88.403  71.825  90.328  0.00  0.00    +0.000 S 
ENDROOT
BRANCH   1   3
ATOM      3  N   UNL     1      89.509  70.446  88.198  0.00  0.00    +0.000 N 
ATOM      4  H   UNL     1      90.375  70.531  88.658  0.00  0.00    +0.000 HD
BRANCH   3   8
ATOM      5  C   UNL     1      89.883  69.052  84.227  0.00  0.00    +0.000 A 
ATOM      6  C   UNL     1      89.710  68.124  85.249  0.00  0.00    +0.000 A 
ATOM      7  C   UNL     1      89.582  68.547  86.579  0.00  0.00    +0.000 A 
ATOM      8  C   UNL     1      89.627  69.902  86.901  0.00  0.00    +0.000 A 
ATOM      9  C   UNL     1      89.801  70.827  85.859  0.00  0.00    +0.000 A 
ATOM     10  C   UNL     1      89.929  70.407  84.532  0.00  0.00    +0.000 A 
ENDBRANCH   3   8
ENDBRANCH   1   3
BRANCH   1  11
ATOM     11  O   UNL     1      87.278  70.380  88.371  0.00  0.00    +0.000 OA
BRANCH  11  12
ATOM     12  C   UNL     1      86.264  71.161  87.770  0.00  0.00    +0.000 A 
ATOM     13  C   UNL     1      86.269  71.323  86.387  0.00  0.00    +0.000 A 
ATOM     14  C   UNL     1      85.241  72.052  85.792  0.00  0.00    +0.000 A 
ATOM     15  C   UNL     1      84.221  72.592  86.579  0.00  0.00    +0.000 A 
ATOM     16  C   UNL     1      84.221  72.403  87.964  0.00  0.00    +0.000 A 
ATOM     17  C   UNL     1      85.244  71.675  88.568  0.00  0.00    +0.000 A 
ENDBRANCH  11  12
ENDBRANCH   1  11
TORSDOF 4
ENDMDL
