REMARK  Name = *****
REMARK  2 active torsions:
REMARK  status: ('A' for Active; 'I' for Inactive)
REMARK    1  A    between atoms: C_6  and  C_7
REMARK    2  A    between atoms: C_8  and  C_9
REMARK                            x       y       z     vdW  Elec       q    Type
REMARK                         _______ _______ _______ _____ _____    ______ ____
ROOT
ATOM      1  C   UNL     1       2.517   4.955  -0.474  0.00  0.00    +0.000 A 
ATOM      2  C   UNL     1       3.880   5.033  -0.774  0.00  0.00    +0.000 A 
ATOM      3  C   UNL     1       4.483   6.283  -0.900  0.00  0.00    +0.000 A 
ATOM      4  C   UNL     1       3.746   7.449  -0.730  0.00  0.00    +0.000 A 
ATOM      5  C   UNL     1       2.394   7.372  -0.432  0.00  0.00    +0.000 A 
ATOM      6  C   UNL     1       1.779   6.130  -0.304  0.00  0.00    +0.000 A 
ATOM      7  F   UNL     1       0.470   6.071  -0.016  0.00  0.00    +0.000 F 
ATOM      8  F   UNL     1       1.678   8.493  -0.268  0.00  0.00    +0.000 F 
ATOM      9  F   UNL     1       4.341   8.644  -0.855  0.00  0.00    +0.000 F 
ATOM     10  F   UNL     1       5.790   6.350  -1.188  0.00  0.00    +0.000 F 
ENDROOT
BRANCH   1  12
ATOM     11  C   UNL     1       1.354   2.606  -0.238  0.00  0.00    +0.000 C 
ATOM     12  C   UNL     1       1.889   3.676  -0.345  0.00  0.00    +0.000 C 
BRANCH  11  18
ATOM     13  C   UNL     1      -0.684   1.271  -0.044  0.00  0.00    +0.000 A 
ATOM     14  C   UNL     1      -1.268   0.022   0.075  0.00  0.00    +0.000 A 
ATOM     15  N   UNL     1      -0.568  -1.131   0.130  0.00  0.00    +0.000 NA
ATOM     16  C   UNL     1       0.777  -1.032   0.063  0.00  0.00    +0.000 A 
ATOM     17  C   UNL     1       1.455   0.169  -0.058  0.00  0.00    +0.000 A 
ATOM     18  C   UNL     1       0.704   1.339  -0.112  0.00  0.00    +0.000 A 
ENDBRANCH  11  18
ENDBRANCH   1  12
TORSDOF 2
