REMARK  Name = *****
REMARK  5 active torsions:
REMARK  status: ('A' for Active; 'I' for Inactive)
REMARK    1  A    between atoms: C_1  and  C_2
REMARK    2  A    between atoms: C_5  and  C_8
REMARK    3  A    between atoms: C_8  and  C_9
REMARK    4  A    between atoms: C_9  and  C_11
REMARK    5  A    between atoms: C_14  and  C_17
REMARK                            x       y       z     vdW  Elec       q    Type
REMARK                         _______ _______ _______ _____ _____    ______ ____
ROOT
ATOM      1  C   UNL     1      -3.408  -0.531  -0.181  0.00  0.00    +0.000 C 
ATOM      2 CL   UNL     1      -4.476   0.669  -0.972  0.00  0.00    +0.000 Cl
ENDROOT
BRANCH   1   7
ATOM      3  C   UNL     1       2.233   0.923   0.441  0.00  0.00    +0.000 C 
ATOM      4  C   UNL     1       0.780   0.581   0.299  0.00  0.00    +0.000 A 
ATOM      5  C   UNL     1       0.231  -0.487   1.011  0.00  0.00    +0.000 A 
ATOM      6  C   UNL     1      -1.116  -0.828   0.852  0.00  0.00    +0.000 A 
ATOM      7  C   UNL     1      -1.956  -0.105  -0.016  0.00  0.00    +0.000 A 
ATOM      8  C   UNL     1      -1.377   0.935  -0.761  0.00  0.00    +0.000 A 
ATOM      9  C   UNL     1      -0.029   1.276  -0.602  0.00  0.00    +0.000 A 
ENDBRANCH   1   7
BRANCH   1  10
ATOM     10  C   UNL     1      -4.094  -0.995   1.103  0.00  0.00    +0.000 C 
ATOM     11  O   UNL     1      -4.393  -2.186   1.249  0.00  0.00    +0.000 OA
BRANCH  10  12
ATOM     12  C   UNL     1      -4.398  -0.048   2.228  0.00  0.00    +0.000 A 
ATOM     13  C   UNL     1      -3.903   1.258   2.299  0.00  0.00    +0.000 A 
ATOM     14  C   UNL     1      -4.224   2.080   3.386  0.00  0.00    +0.000 A 
ATOM     15  C   UNL     1      -5.051   1.616   4.414  0.00  0.00    +0.000 A 
ATOM     16  C   UNL     1      -5.531   0.305   4.356  0.00  0.00    +0.000 A 
ATOM     17  C   UNL     1      -5.210  -0.517   3.272  0.00  0.00    +0.000 A 
ATOM     18  C   UNL     1      -5.364   2.489   5.593  0.00  0.00    +0.000 C 
ENDBRANCH  10  12
ENDBRANCH   1  10
TORSDOF 3
