MODEL 1
REMARK VINA RESULT:      -4.8      0.000      0.000
REMARK  Name = *****
REMARK  5 active torsions:
REMARK  status: ('A' for Active; 'I' for Inactive)
REMARK    1  A    between atoms: C_1  and  C_2
REMARK    2  A    between atoms: C_4  and  C_17
REMARK    3  A    between atoms: C_5  and  C_9
REMARK    4  A    between atoms: C_6  and  C_8
REMARK    5  A    between atoms: N_10  and  C_11
REMARK                            x       y       z     vdW  Elec       q    Type
REMARK                         _______ _______ _______ _____ _____    ______ ____
ROOT
ATOM      1  C   UNL     1      98.807 131.032  85.150  0.00  0.00    +0.000 C 
ATOM      2  C   UNL     1      99.639 129.978  84.481  0.00  0.00    +0.000 A 
ATOM      3  C   UNL     1      99.032 128.912  83.813  0.00  0.00    +0.000 A 
ATOM      4  C   UNL     1      99.791 127.932  83.147  0.00  0.00    +0.000 A 
ATOM      5  C   UNL     1     101.201 128.030  83.162  0.00  0.00    +0.000 A 
ATOM      6  C   UNL     1     101.827 129.113  83.825  0.00  0.00    +0.000 A 
ATOM      7  C   UNL     1     101.032 130.079  84.467  0.00  0.00    +0.000 A 
ATOM      8  C   UNL     1     103.323 129.282  83.878  0.00  0.00    +0.000 C 
ATOM      9  C   UNL     1      99.046 126.828  82.445  0.00  0.00    +0.000 C 
ENDROOT
BRANCH   5  10
ATOM     10  C   UNL     1     102.070 127.029  82.481  0.00  0.00    +0.000 C 
ATOM     11  N   UNL     1     102.500 125.945  83.048  0.00  0.00    +0.000 NA
BRANCH  11  12
ATOM     12  C   UNL     1     103.315 125.121  82.260  0.00  0.00    +0.000 A 
ATOM     13  C   UNL     1     103.920 123.993  82.817  0.00  0.00    +0.000 A 
ATOM     14  C   UNL     1     104.724 123.162  82.034  0.00  0.00    +0.000 A 
ATOM     15  C   UNL     1     104.917 123.453  80.684  0.00  0.00    +0.000 A 
ATOM     16  C   UNL     1     104.303 124.568  80.116  0.00  0.00    +0.000 A 
ATOM     17  C   UNL     1     103.499 125.397  80.903  0.00  0.00    +0.000 A 
ENDBRANCH  11  12
ENDBRANCH   5  10
TORSDOF 2
ENDMDL
