MODEL 1
REMARK VINA RESULT:      -4.6      0.000      0.000
REMARK  Name = *****
REMARK  7 active torsions:
REMARK  status: ('A' for Active; 'I' for Inactive)
REMARK    1  A    between atoms: C_1  and  C_2
REMARK    2  A    between atoms: C_2  and  O_3
REMARK    3  A    between atoms: O_3  and  P_4
REMARK    4  A    between atoms: P_4  and  C_6
REMARK    5  A    between atoms: P_4  and  S_12
REMARK    6  A    between atoms: S_12  and  C_13
REMARK    7  A    between atoms: C_16  and  C_19
REMARK                            x       y       z     vdW  Elec       q    Type
REMARK                         _______ _______ _______ _____ _____    ______ ____
ROOT
ATOM      1  P   UNL     1      88.758  70.049  86.188  0.00  0.00    +0.000 P 
ATOM      2  O   UNL     1      89.687  70.361  87.368  0.00  0.00    +0.000 OA
ENDROOT
BRANCH   1   3
ATOM      3  C   UNL     1      87.129  70.932  86.225  0.00  0.00    +0.000 A 
ATOM      4  C   UNL     1      86.545  71.386  85.032  0.00  0.00    +0.000 A 
ATOM      5  C   UNL     1      85.328  72.070  85.067  0.00  0.00    +0.000 A 
ATOM      6  C   UNL     1      84.698  72.313  86.287  0.00  0.00    +0.000 A 
ATOM      7  C   UNL     1      85.283  71.882  87.478  0.00  0.00    +0.000 A 
ATOM      8  C   UNL     1      86.497  71.200  87.449  0.00  0.00    +0.000 A 
ENDBRANCH   1   3
BRANCH   1   9
ATOM      9  O   UNL     1      89.382  71.398  85.303  0.00  0.00    +0.000 OA
BRANCH   9  11
ATOM     10  C   UNL     1      90.081  69.858  83.624  0.00  0.00    +0.000 C 
ATOM     11  C   UNL     1      90.461  71.078  84.437  0.00  0.00    +0.000 C 
ENDBRANCH   9  11
ENDBRANCH   1   9
BRANCH   1  12
ATOM     12  S   UNL     1      87.993  68.396  87.272  0.00  0.00    +0.000 S 
BRANCH  12  13
ATOM     13  C   UNL     1      88.898  66.988  86.663  0.00  0.00    +0.000 A 
ATOM     14  C   UNL     1      88.455  65.682  86.883  0.00  0.00    +0.000 A 
ATOM     15  C   UNL     1      89.202  64.591  86.431  0.00  0.00    +0.000 A 
ATOM     16  C   UNL     1      90.413  64.789  85.759  0.00  0.00    +0.000 A 
ATOM     17  C   UNL     1      90.879  66.095  85.577  0.00  0.00    +0.000 A 
ATOM     18  C   UNL     1      90.130  67.185  86.030  0.00  0.00    +0.000 A 
ATOM     19  C   UNL     1      91.231  63.618  85.304  0.00  0.00    +0.000 C 
ENDBRANCH  12  13
ENDBRANCH   1  12
TORSDOF 5
ENDMDL
