MODEL 1
REMARK VINA RESULT:      -4.8      0.000      0.000
REMARK  Name = *****
REMARK  5 active torsions:
REMARK  status: ('A' for Active; 'I' for Inactive)
REMARK    1  A    between atoms: C_1  and  C_2
REMARK    2  A    between atoms: C_2  and  C_4
REMARK    3  A    between atoms: C_7  and  C_10
REMARK    4  A    between atoms: C_11  and  C_12
REMARK    5  A    between atoms: C_15  and  C_18
REMARK                            x       y       z     vdW  Elec       q    Type
REMARK                         _______ _______ _______ _____ _____    ______ ____
ROOT
ATOM      1  C   UNL     1      86.249  62.341  88.196  0.00  0.00    +0.000 C 
ATOM      2  C   UNL     1      86.147  62.030  89.500  0.00  0.00    +0.000 C 
ENDROOT
BRANCH   1   6
ATOM      3  C   UNL     1      89.156  65.089  86.646  0.00  0.00    +0.000 A 
ATOM      4  C   UNL     1      88.724  64.017  85.858  0.00  0.00    +0.000 A 
ATOM      5  C   UNL     1      87.780  63.111  86.357  0.00  0.00    +0.000 A 
ATOM      6  C   UNL     1      87.264  63.253  87.651  0.00  0.00    +0.000 A 
ATOM      7  C   UNL     1      87.687  64.337  88.430  0.00  0.00    +0.000 A 
ATOM      8  C   UNL     1      88.630  65.244  87.935  0.00  0.00    +0.000 A 
BRANCH   3  10
ATOM      9  C   UNL     1      91.180  65.653  85.141  0.00  0.00    +0.000 C 
ATOM     10  C   UNL     1      90.159  66.083  86.162  0.00  0.00    +0.000 C 
ATOM     11  O   UNL     1      90.143  67.233  86.597  0.00  0.00    +0.000 OA
ENDBRANCH   3  10
ENDBRANCH   1   6
BRANCH   2  12
ATOM     12  C   UNL     1      85.120  61.130  90.046  0.00  0.00    +0.000 A 
ATOM     13  C   UNL     1      83.762  61.469  90.061  0.00  0.00    +0.000 A 
ATOM     14  C   UNL     1      82.810  60.572  90.558  0.00  0.00    +0.000 A 
ATOM     15  C   UNL     1      83.198  59.317  91.045  0.00  0.00    +0.000 A 
ATOM     16  C   UNL     1      84.554  58.969  91.004  0.00  0.00    +0.000 A 
ATOM     17  C   UNL     1      85.504  59.866  90.507  0.00  0.00    +0.000 A 
BRANCH  15  18
ATOM     18  C   UNL     1      82.174  58.347  91.565  0.00  0.00    +0.000 C 
ATOM     19 CL   UNL     1      82.296  56.796  90.714  0.00  0.00    +0.000 Cl
ENDBRANCH  15  18
ENDBRANCH   2  12
TORSDOF 4
ENDMDL
