MODEL 1
REMARK VINA RESULT:      -4.4      0.000      0.000
REMARK  Name = *****
REMARK  4 active torsions:
REMARK  status: ('A' for Active; 'I' for Inactive)
REMARK    1  A    between atoms: C_4  and  C_7
REMARK    2  A    between atoms: C_7  and  C_8
REMARK    3  A    between atoms: C_8  and  O_10
REMARK    4  A    between atoms: O_10  and  C_11
REMARK                            x       y       z     vdW  Elec       q    Type
REMARK                         _______ _______ _______ _____ _____    ______ ____
ROOT
ATOM      1  C   UNL     1      87.875  69.667  88.311  0.00  0.00    +0.000 C 
ATOM      2  O   UNL     1      87.230  68.629  88.260  0.00  0.00    +0.000 OA
ENDROOT
BRANCH   1   3
ATOM      3  C   UNL     1      87.356  71.033  88.713  0.00  0.00    +0.000 C 
BRANCH   3   7
ATOM      4  C   UNL     1      84.077  72.473  86.306  0.00  0.00    +0.000 A 
ATOM      5  C   UNL     1      85.226  71.974  85.694  0.00  0.00    +0.000 A 
ATOM      6  C   UNL     1      86.286  71.507  86.472  0.00  0.00    +0.000 A 
ATOM      7  C   UNL     1      86.207  71.533  87.872  0.00  0.00    +0.000 A 
ATOM      8  C   UNL     1      85.050  72.043  88.477  0.00  0.00    +0.000 A 
ATOM      9  C   UNL     1      83.990  72.508  87.695  0.00  0.00    +0.000 A 
ENDBRANCH   3   7
ENDBRANCH   1   3
BRANCH   1  10
ATOM     10  O   UNL     1      89.241  69.795  88.048  0.00  0.00    +0.000 OA
BRANCH  10  11
ATOM     11  C   UNL     1      89.559  69.667  86.695  0.00  0.00    +0.000 A 
ATOM     12  C   UNL     1      89.632  68.401  86.121  0.00  0.00    +0.000 A 
ATOM     13  C   UNL     1      89.902  68.306  84.761  0.00  0.00    +0.000 A 
ATOM     14  C   UNL     1      90.081  69.446  83.979  0.00  0.00    +0.000 A 
ATOM     15  C   UNL     1      89.986  70.709  84.565  0.00  0.00    +0.000 A 
ATOM     16  C   UNL     1      89.716  70.824  85.930  0.00  0.00    +0.000 A 
ATOM     17  F   UNL     1      89.982  67.098  84.188  0.00  0.00    +0.000 F 
ENDBRANCH  10  11
ENDBRANCH   1  10
TORSDOF 4
ENDMDL
