REMARK  Name = *****
REMARK  4 active torsions:
REMARK  status: ('A' for Active; 'I' for Inactive)
REMARK    1  A    between atoms: C_1  and  C_2
REMARK    2  A    between atoms: C_7  and  N_8
REMARK    3  A    between atoms: N_8  and  S_9
REMARK    4  A    between atoms: S_9  and  C_10
REMARK                            x       y       z     vdW  Elec       q    Type
REMARK                         _______ _______ _______ _____ _____    ______ ____
ROOT
ATOM      1  N   UNL     1       1.616  -2.284   0.012  0.00  0.00    +0.000 N 
ATOM      2  H   UNL     1       0.885  -2.892  -0.244  0.00  0.00    +0.000 HD
ENDROOT
BRANCH   1   9
ATOM      3  C   UNL     1      -1.143  -1.736   0.764  0.00  0.00    +0.000 C 
ATOM      4  C   UNL     1       0.028  -1.033   1.399  0.00  0.00    +0.000 A 
ATOM      5  C   UNL     1      -0.232  -0.092   2.413  0.00  0.00    +0.000 A 
ATOM      6  C   UNL     1       0.810   0.572   3.056  0.00  0.00    +0.000 A 
ATOM      7  C   UNL     1       2.123   0.295   2.701  0.00  0.00    +0.000 A 
ATOM      8  C   UNL     1       2.393  -0.633   1.691  0.00  0.00    +0.000 A 
ATOM      9  C   UNL     1       1.362  -1.289   0.995  0.00  0.00    +0.000 A 
ENDBRANCH   1   9
BRANCH   1  10
ATOM     10  S   UNL     1       3.101  -2.466  -0.727  0.00  0.00    +0.000 S 
BRANCH  10  11
ATOM     11  C   UNL     1       3.441  -4.196  -0.217  0.00  0.00    +0.000 C 
ATOM     12  C   UNL     1       2.397  -5.175  -0.767  0.00  0.00    +0.000 C 
ATOM     13  C   UNL     1       2.726  -6.613  -0.363  0.00  0.00    +0.000 C 
ATOM     14  C   UNL     1       2.891  -6.750   1.149  0.00  0.00    +0.000 C 
ATOM     15  C   UNL     1       3.926  -5.770   1.695  0.00  0.00    +0.000 C 
ATOM     16  C   UNL     1       3.600  -4.329   1.302  0.00  0.00    +0.000 C 
ENDBRANCH  10  11
ENDBRANCH   1  10
TORSDOF 3
