MODEL 1
REMARK VINA RESULT:      -4.6      0.000      0.000
REMARK  Name = *****
REMARK  3 active torsions:
REMARK  status: ('A' for Active; 'I' for Inactive)
REMARK    1  A    between atoms: C_2  and  C_13
REMARK    2  A    between atoms: C_3  and  C_4
REMARK    3  A    between atoms: C_3  and  C_6
REMARK                            x       y       z     vdW  Elec       q    Type
REMARK                         _______ _______ _______ _____ _____    ______ ____
ROOT
ATOM      1  C   UNL     1      89.646  65.779  85.948  0.00  0.00    +0.000 C 
ATOM      2  C   UNL     1      89.615  67.077  86.707  0.00  0.00    +0.000 C 
ATOM      3  C   UNL     1      88.350  66.194  86.639  0.00  0.00    +0.000 C 
ENDROOT
BRANCH   3   4
ATOM      4  C   UNL     1      87.980  65.449  87.931  0.00  0.00    +0.000 A 
ATOM      5  C   UNL     1      86.939  65.903  88.765  0.00  0.00    +0.000 A 
ATOM      6  C   UNL     1      86.595  65.222  89.935  0.00  0.00    +0.000 A 
ATOM      7  C   UNL     1      87.285  64.069  90.283  0.00  0.00    +0.000 A 
ATOM      8  C   UNL     1      88.307  63.583  89.481  0.00  0.00    +0.000 A 
ATOM      9  C   UNL     1      88.649  64.269  88.312  0.00  0.00    +0.000 A 
ATOM     10  F   UNL     1      86.955  63.415  91.403  0.00  0.00    +0.000 F 
ENDBRANCH   3   4
BRANCH   2  11
ATOM     11  C   UNL     1      89.718  68.399  85.975  0.00  0.00    +0.000 A 
ATOM     12  C   UNL     1      89.567  69.621  86.654  0.00  0.00    +0.000 A 
ATOM     13  C   UNL     1      89.683  70.846  85.988  0.00  0.00    +0.000 A 
ATOM     14  C   UNL     1      89.966  70.867  84.627  0.00  0.00    +0.000 A 
ATOM     15  C   UNL     1      90.138  69.675  83.931  0.00  0.00    +0.000 A 
ATOM     16  C   UNL     1      90.018  68.455  84.603  0.00  0.00    +0.000 A 
ATOM     17 CL   UNL     1      90.114  72.370  83.803  0.00  0.00    +0.000 Cl
ENDBRANCH   2  11
BRANCH   3  18
ATOM     18  C   UNL     1      87.277  66.594  85.739  0.00  0.00    +0.000 C 
ATOM     19  N   UNL     1      86.417  66.903  85.025  0.00  0.00    +0.000 NA
ENDBRANCH   3  18
TORSDOF 3
ENDMDL
