REMARK  Name = *****
REMARK  5 active torsions:
REMARK  status: ('A' for Active; 'I' for Inactive)
REMARK    1  A    between atoms: C_1  and  C_2
REMARK    2  A    between atoms: C_6  and  C_17
REMARK    3  A    between atoms: N_7  and  N_8
REMARK    4  A    between atoms: N_8  and  C_9
REMARK    5  A    between atoms: C_9  and  C_10
REMARK                            x       y       z     vdW  Elec       q    Type
REMARK                         _______ _______ _______ _____ _____    ______ ____
ROOT
ATOM      1  N   UNL     1       3.695  -2.007   0.372  0.00  0.00    +0.000 NA
ENDROOT
BRANCH   1   8
ATOM      2  C   UNL     1       0.927   0.431   0.079  0.00  0.00    +0.000 C 
ATOM      3  C   UNL     1       2.395  -0.007   0.148  0.00  0.00    +0.000 C 
ATOM      4  C   UNL     1       3.307   0.861  -0.735  0.00  0.00    +0.000 C 
ATOM      5  C   UNL     1       3.150   0.557  -2.221  0.00  0.00    +0.000 C 
ATOM      6  C   UNL     1       3.269  -0.940  -2.484  0.00  0.00    +0.000 C 
ATOM      7  C   UNL     1       2.319  -1.739  -1.580  0.00  0.00    +0.000 C 
ATOM      8  N   UNL     1       2.552  -1.460  -0.138  0.00  0.00    +0.000 NA
ATOM      9  C   UNL     1       2.421  -3.240  -1.879  0.00  0.00    +0.000 C 
ENDBRANCH   1   8
BRANCH   1  10
ATOM     10  C   UNL     1       3.516  -2.540   1.540  0.00  0.00    +0.000 C 
BRANCH  10  11
ATOM     11  C   UNL     1       4.620  -3.188   2.275  0.00  0.00    +0.000 A 
ATOM     12  C   UNL     1       5.904  -3.259   1.725  0.00  0.00    +0.000 A 
ATOM     13  C   UNL     1       6.933  -3.876   2.439  0.00  0.00    +0.000 A 
ATOM     14  C   UNL     1       6.674  -4.418   3.698  0.00  0.00    +0.000 A 
ATOM     15  C   UNL     1       5.394  -4.348   4.250  0.00  0.00    +0.000 A 
ATOM     16  C   UNL     1       4.362  -3.732   3.537  0.00  0.00    +0.000 A 
ATOM     17 CL   UNL     1       7.942  -5.178   4.578  0.00  0.00    +0.000 Cl
ENDBRANCH  10  11
ENDBRANCH   1  10
TORSDOF 3
