MODEL 1
REMARK VINA RESULT:      -4.7      0.000      0.000
REMARK  Name = *****
REMARK  1 active torsions:
REMARK  status: ('A' for Active; 'I' for Inactive)
REMARK    1  A    between atoms: C_4  and  C_6
REMARK                            x       y       z     vdW  Elec       q    Type
REMARK                         _______ _______ _______ _____ _____    ______ ____
ROOT
ATOM      1  C   UNL     1     102.564 126.845  82.325  0.00  0.00    +0.000 A 
ATOM      2  C   UNL     1     101.274 126.339  82.088  0.00  0.00    +0.000 A 
ATOM      3  C   UNL     1     100.181 127.011  82.610  0.00  0.00    +0.000 A 
ATOM      4  C   UNL     1     100.342 128.187  83.350  0.00  0.00    +0.000 A 
ATOM      5  C   UNL     1      99.014 128.747  83.755  0.00  0.00    +0.000 C 
ATOM      6  C   UNL     1      98.105 127.523  83.566  0.00  0.00    +0.000 C 
ATOM      7  C   UNL     1      98.731 126.677  82.449  0.00  0.00    +0.000 C 
ATOM      8  C   UNL     1     101.598 128.714  83.582  0.00  0.00    +0.000 A 
ATOM      9  C   UNL     1     102.709 128.036  83.070  0.00  0.00    +0.000 A 
ENDROOT
BRANCH   1  13
ATOM     10  C   UNL     1     104.280 123.761  81.954  0.00  0.00    +0.000 C 
ATOM     11  C   UNL     1     104.387 124.182  80.499  0.00  0.00    +0.000 C 
ATOM     12  C   UNL     1     103.535 125.441  80.441  0.00  0.00    +0.000 C 
ATOM     13  C   UNL     1     103.796 126.152  81.781  0.00  0.00    +0.000 C 
ATOM     14  C   UNL     1     104.382 125.076  82.718  0.00  0.00    +0.000 C 
ENDBRANCH   1  13
TORSDOF 1
ENDMDL
