REMARK  Name = *****
REMARK  5 active torsions:
REMARK  status: ('A' for Active; 'I' for Inactive)
REMARK    1  A    between atoms: C_1  and  O_2
REMARK    2  A    between atoms: O_2  and  C_3
REMARK    3  A    between atoms: C_3  and  C_5
REMARK    4  A    between atoms: C_10  and  C_11
REMARK    5  A    between atoms: C_12  and  C_13
REMARK                            x       y       z     vdW  Elec       q    Type
REMARK                         _______ _______ _______ _____ _____    ______ ____
ROOT
ATOM      1  C   UNL     1       4.453  -0.484  -1.184  0.00  0.00    +0.000 A 
ATOM      2  C   UNL     1       5.154  -0.868  -0.029  0.00  0.00    +0.000 A 
ATOM      3  C   UNL     1       6.533  -0.669   0.056  0.00  0.00    +0.000 A 
ATOM      4  C   UNL     1       7.217  -0.089  -1.010  0.00  0.00    +0.000 A 
ATOM      5  C   UNL     1       6.524   0.296  -2.161  0.00  0.00    +0.000 A 
ATOM      6  C   UNL     1       5.139   0.102  -2.258  0.00  0.00    +0.000 A 
ENDROOT
BRANCH   1   7
ATOM      7  C   UNL     1       2.995  -0.738  -1.252  0.00  0.00    +0.000 C 
ATOM      8  O   UNL     1       2.418  -1.251  -2.195  0.00  0.00    +0.000 OA
BRANCH   7  10
ATOM      9  C   UNL     1       1.008  -0.466  -0.061  0.00  0.00    +0.000 C 
ATOM     10  O   UNL     1       2.426  -0.301  -0.099  0.00  0.00    +0.000 OA
ENDBRANCH   7  10
ENDBRANCH   1   7
BRANCH   6  11
ATOM     11  C   UNL     1       4.476   0.546  -3.447  0.00  0.00    +0.000 C 
ATOM     12  C   UNL     1       3.916   0.918  -4.443  0.00  0.00    +0.000 C 
BRANCH  12  13
ATOM     13  C   UNL     1       3.240   1.349  -5.622  0.00  0.00    +0.000 C 
ATOM     14  C   UNL     1       2.366   0.514  -6.213  0.00  0.00    +0.000 C 
ATOM     15  C   UNL     1       1.605   0.851  -7.461  0.00  0.00    +0.000 C 
ATOM     16  C   UNL     1       2.128   2.102  -8.169  0.00  0.00    +0.000 C 
ATOM     17  C   UNL     1       2.457   3.204  -7.168  0.00  0.00    +0.000 C 
ATOM     18  C   UNL     1       3.507   2.734  -6.157  0.00  0.00    +0.000 C 
ENDBRANCH  12  13
ENDBRANCH   6  11
TORSDOF 4
