REMARK  Name = *****
REMARK  3 active torsions:
REMARK  status: ('A' for Active; 'I' for Inactive)
REMARK    1  A    between atoms: C_5  and  C_8
REMARK    2  A    between atoms: C_8  and  C_9
REMARK    3  A    between atoms: C_9  and  C_11
REMARK                            x       y       z     vdW  Elec       q    Type
REMARK                         _______ _______ _______ _____ _____    ______ ____
ROOT
ATOM      1  C   UNL     1      -2.186   2.048  -0.520  0.00  0.00    +0.000 C 
ENDROOT
BRANCH   1   6
ATOM      2  C   UNL     1       1.712  -0.495   0.053  0.00  0.00    +0.000 C 
ATOM      3  C   UNL     1       0.642  -1.567  -0.121  0.00  0.00    +0.000 C 
ATOM      4  C   UNL     1      -0.614  -1.325   0.710  0.00  0.00    +0.000 C 
ATOM      5  C   UNL     1      -1.510  -0.244   0.181  0.00  0.00    +0.000 C 
ATOM      6  C   UNL     1      -1.173   1.047  -0.003  0.00  0.00    +0.000 C 
ATOM      7  C   UNL     1       0.216   1.583   0.267  0.00  0.00    +0.000 C 
ATOM      8  C   UNL     1       1.333   0.875  -0.503  0.00  0.00    +0.000 C 
ENDBRANCH   1   6
BRANCH   1   9
ATOM      9  C   UNL     1      -2.483   3.144   0.499  0.00  0.00    +0.000 C 
ATOM     10  O   UNL     1      -1.803   4.172   0.535  0.00  0.00    +0.000 OA
BRANCH   9  11
ATOM     11  C   UNL     1      -3.608   2.987   1.473  0.00  0.00    +0.000 A 
ATOM     12  C   UNL     1      -4.329   1.797   1.623  0.00  0.00    +0.000 A 
ATOM     13  C   UNL     1      -5.370   1.716   2.553  0.00  0.00    +0.000 A 
ATOM     14  C   UNL     1      -5.699   2.819   3.338  0.00  0.00    +0.000 A 
ATOM     15  C   UNL     1      -4.986   4.007   3.199  0.00  0.00    +0.000 A 
ATOM     16  C   UNL     1      -3.945   4.091   2.272  0.00  0.00    +0.000 A 
ENDBRANCH   9  11
ENDBRANCH   1   9
TORSDOF 3
