REMARK  Name = *****
REMARK  2 active torsions:
REMARK  status: ('A' for Active; 'I' for Inactive)
REMARK    1  A    between atoms: C_6  and  N_7
REMARK    2  A    between atoms: C_8  and  C_9
REMARK                            x       y       z     vdW  Elec       q    Type
REMARK                         _______ _______ _______ _____ _____    ______ ____
ROOT
ATOM      1  C   UNL     1      -5.527   1.022   0.133  0.00  0.00    +0.000 A 
ATOM      2  C   UNL     1      -6.166   2.161   0.622  0.00  0.00    +0.000 A 
ATOM      3  C   UNL     1      -7.553   2.263   0.586  0.00  0.00    +0.000 A 
ATOM      4  C   UNL     1      -8.312   1.226   0.064  0.00  0.00    +0.000 A 
ATOM      5  C   UNL     1      -7.685   0.088  -0.423  0.00  0.00    +0.000 A 
ATOM      6  C   UNL     1      -6.297  -0.019  -0.391  0.00  0.00    +0.000 A 
ATOM      7  F   UNL     1      -5.734  -1.138  -0.868  0.00  0.00    +0.000 F 
ATOM      8  F   UNL     1      -8.420  -0.914  -0.926  0.00  0.00    +0.000 F 
ATOM      9  F   UNL     1      -9.648   1.324   0.030  0.00  0.00    +0.000 F 
ATOM     10  F   UNL     1      -8.153   3.364   1.057  0.00  0.00    +0.000 F 
ATOM     11  F   UNL     1      -5.450   3.175   1.130  0.00  0.00    +0.000 F 
ENDROOT
BRANCH   1  13
ATOM     12  N   UNL     1      -3.375  -0.017  -0.275  0.00  0.00    +0.000 NA
ATOM     13  C   UNL     1      -4.057   0.975   0.197  0.00  0.00    +0.000 C 
BRANCH  12  19
ATOM     14  C   UNL     1      -1.224   0.776  -1.086  0.00  0.00    +0.000 A 
ATOM     15  C   UNL     1       0.165   0.848  -0.960  0.00  0.00    +0.000 A 
ATOM     16  C   UNL     1       0.788   0.202   0.102  0.00  0.00    +0.000 A 
ATOM     17  C   UNL     1       0.051  -0.517   1.036  0.00  0.00    +0.000 A 
ATOM     18  C   UNL     1      -1.338  -0.586   0.907  0.00  0.00    +0.000 A 
ATOM     19  C   UNL     1      -1.983   0.071  -0.145  0.00  0.00    +0.000 A 
ATOM     20  F   UNL     1       2.120   0.269   0.224  0.00  0.00    +0.000 F 
ENDBRANCH  12  19
ENDBRANCH   1  13
TORSDOF 2
