MODEL 1
REMARK VINA RESULT:      -4.3      0.000      0.000
REMARK  Name = *****
REMARK  3 active torsions:
REMARK  status: ('A' for Active; 'I' for Inactive)
REMARK    1  A    between atoms: C_6  and  C_7
REMARK    2  A    between atoms: C_7  and  O_8
REMARK    3  A    between atoms: O_8  and  C_9
REMARK                            x       y       z     vdW  Elec       q    Type
REMARK                         _______ _______ _______ _____ _____    ______ ____
ROOT
ATOM      1  O   UNL     1      90.184  67.996  86.800  0.00  0.00    +0.000 OA
ENDROOT
BRANCH   1   2
ATOM      2  C   UNL     1      90.090  66.730  86.283  0.00  0.00    +0.000 A 
ATOM      3  C   UNL     1      88.966  65.972  86.662  0.00  0.00    +0.000 A 
ATOM      4  C   UNL     1      88.788  64.667  86.193  0.00  0.00    +0.000 A 
ATOM      5  C   UNL     1      89.735  64.110  85.341  0.00  0.00    +0.000 A 
ATOM      6  C   UNL     1      90.853  64.846  84.953  0.00  0.00    +0.000 A 
ATOM      7  C   UNL     1      91.030  66.152  85.422  0.00  0.00    +0.000 A 
ATOM      8 CL   UNL     1      89.530  62.505  84.761  0.00  0.00    +0.000 Cl
ATOM      9 CL   UNL     1      87.762  66.619  87.722  0.00  0.00    +0.000 Cl
ENDBRANCH   1   2
BRANCH   1  10
ATOM     10  C   UNL     1      89.785  69.083  85.968  0.00  0.00    +0.000 C 
BRANCH  10  16
ATOM     11  C   UNL     1      88.806  70.102  88.071  0.00  0.00    +0.000 A 
ATOM     12  C   UNL     1      87.810  70.823  88.731  0.00  0.00    +0.000 A 
ATOM     13  C   UNL     1      86.740  71.339  88.007  0.00  0.00    +0.000 A 
ATOM     14  C   UNL     1      86.652  71.151  86.634  0.00  0.00    +0.000 A 
ATOM     15  C   UNL     1      87.647  70.433  85.971  0.00  0.00    +0.000 A 
ATOM     16  C   UNL     1      88.733  69.896  86.684  0.00  0.00    +0.000 A 
ATOM     17  F   UNL     1      85.782  72.023  88.645  0.00  0.00    +0.000 F 
ENDBRANCH  10  16
ENDBRANCH   1  10
TORSDOF 3
ENDMDL
