MODEL 1
REMARK VINA RESULT:      -4.6      0.000      0.000
REMARK  Name = *****
REMARK  4 active torsions:
REMARK  status: ('A' for Active; 'I' for Inactive)
REMARK    1  A    between atoms: C_1  and  C_2
REMARK    2  A    between atoms: C_5  and  N_8
REMARK    3  A    between atoms: C_9  and  C_10
REMARK    4  A    between atoms: C_9  and  C_11
REMARK                            x       y       z     vdW  Elec       q    Type
REMARK                         _______ _______ _______ _____ _____    ______ ____
ROOT
ATOM      1  N   UNL     1     102.724 125.805  82.126  0.00  0.00    +0.000 NA
ATOM      2  C   UNL     1     103.464 126.025  81.074  0.00  0.00    +0.000 C 
ATOM      3  C   UNL     1     103.461 127.333  80.304  0.00  0.00    +0.000 C 
ENDROOT
BRANCH   1   8
ATOM      4  C   UNL     1      99.215 129.822  84.172  0.00  0.00    +0.000 C 
ATOM      5  C   UNL     1     100.139 128.786  83.605  0.00  0.00    +0.000 A 
ATOM      6  C   UNL     1      99.628 127.696  82.889  0.00  0.00    +0.000 A 
ATOM      7  C   UNL     1     100.487 126.711  82.394  0.00  0.00    +0.000 A 
ATOM      8  C   UNL     1     101.864 126.803  82.601  0.00  0.00    +0.000 A 
ATOM      9  C   UNL     1     102.371 127.868  83.348  0.00  0.00    +0.000 A 
ATOM     10  C   UNL     1     101.516 128.855  83.845  0.00  0.00    +0.000 A 
ENDBRANCH   1   8
BRANCH   2  11
ATOM     11  C   UNL     1     104.333 124.918  80.602  0.00  0.00    +0.000 C 
ATOM     12  C   UNL     1     104.385 123.642  81.022  0.00  0.00    +0.000 C 
ATOM     13  C   UNL     1     105.398 122.934  80.276  0.00  0.00    +0.000 C 
ATOM     14  C   UNL     1     105.973 123.769  79.401  0.00  0.00    +0.000 C 
ATOM     15  C   UNL     1     105.354 125.135  79.518  0.00  0.00    +0.000 C 
ENDBRANCH   2  11
TORSDOF 2
ENDMDL
