MODEL 1
REMARK VINA RESULT:      -4.9      0.000      0.000
REMARK  Name = *****
REMARK  5 active torsions:
REMARK  status: ('A' for Active; 'I' for Inactive)
REMARK    1  A    between atoms: C_1  and  N_2
REMARK    2  A    between atoms: N_2  and  C_3
REMARK    3  A    between atoms: N_2  and  C_4
REMARK    4  A    between atoms: C_7  and  C_10
REMARK    5  A    between atoms: C_11  and  C_12
REMARK                            x       y       z     vdW  Elec       q    Type
REMARK                         _______ _______ _______ _____ _____    ______ ____
ROOT
ATOM      1  C   UNL     1     102.915 125.439  82.003  0.00  0.00    +0.000 C 
ATOM      2  C   UNL     1     102.079 126.247  82.305  0.00  0.00    +0.000 C 
ENDROOT
BRANCH   2   3
ATOM      3  C   UNL     1     101.080 127.180  82.727  0.00  0.00    +0.000 A 
ATOM      4  C   UNL     1     101.445 128.374  83.348  0.00  0.00    +0.000 A 
ATOM      5  C   UNL     1     100.455 129.278  83.729  0.00  0.00    +0.000 A 
ATOM      6  C   UNL     1      99.112 129.012  83.502  0.00  0.00    +0.000 A 
ATOM      7  C   UNL     1      98.763 127.819  82.886  0.00  0.00    +0.000 A 
ATOM      8  C   UNL     1      99.732 126.899  82.496  0.00  0.00    +0.000 A 
ATOM      9  F   UNL     1      97.471 127.548  82.659  0.00  0.00    +0.000 F 
ATOM     10  F   UNL     1     100.808 130.427  84.320  0.00  0.00    +0.000 F 
ENDBRANCH   2   3
BRANCH   1  14
ATOM     11  C   UNL     1     105.810 122.408  81.138  0.00  0.00    +0.000 A 
ATOM     12  C   UNL     1     105.295 122.605  82.432  0.00  0.00    +0.000 A 
ATOM     13  C   UNL     1     104.354 123.603  82.719  0.00  0.00    +0.000 A 
ATOM     14  C   UNL     1     103.902 124.447  81.711  0.00  0.00    +0.000 A 
ATOM     15  C   UNL     1     104.409 124.302  80.425  0.00  0.00    +0.000 A 
ATOM     16  C   UNL     1     105.354 123.301  80.150  0.00  0.00    +0.000 A 
BRANCH  11  18
ATOM     17  C   UNL     1     108.093 121.829  80.475  0.00  0.00    +0.000 C 
ATOM     18  N   UNL     1     106.749 121.402  80.874  0.00  0.00    +0.000 N 
ATOM     19  C   UNL     1     106.687 120.148  81.620  0.00  0.00    +0.000 C 
ENDBRANCH  11  18
ENDBRANCH   1  14
TORSDOF 3
ENDMDL
