MODEL 1
REMARK VINA RESULT:      -4.4      0.000      0.000
REMARK  Name = *****
REMARK  4 active torsions:
REMARK  status: ('A' for Active; 'I' for Inactive)
REMARK    1  A    between atoms: C_4  and  C_7
REMARK    2  A    between atoms: C_7  and  S_8
REMARK    3  A    between atoms: S_8  and  C_9
REMARK    4  A    between atoms: C_12  and  C_15
REMARK                            x       y       z     vdW  Elec       q    Type
REMARK                         _______ _______ _______ _____ _____    ______ ____
ROOT
ATOM      1  S   UNL     1     103.502 127.613  81.518  0.00  0.00    +0.000 S 
ENDROOT
BRANCH   1   2
ATOM      2  C   UNL     1     103.960 125.891  81.443  0.00  0.00    +0.000 A 
ATOM      3  C   UNL     1     103.864 125.051  82.558  0.00  0.00    +0.000 A 
ATOM      4  C   UNL     1     104.220 123.703  82.459  0.00  0.00    +0.000 A 
ATOM      5  C   UNL     1     104.662 123.189  81.238  0.00  0.00    +0.000 A 
ATOM      6  C   UNL     1     104.746 124.014  80.115  0.00  0.00    +0.000 A 
ATOM      7  C   UNL     1     104.390 125.361  80.221  0.00  0.00    +0.000 A 
BRANCH   5   8
ATOM      8  C   UNL     1     105.039 121.766  81.123  0.00  0.00    +0.000 C 
ATOM      9  O   UNL     1     104.202 120.874  81.073  0.00  0.00    +0.000 OA
ENDBRANCH   5   8
ENDBRANCH   1   2
BRANCH   1  10
ATOM     10  C   UNL     1     102.730 127.673  83.170  0.00  0.00    +0.000 C 
BRANCH  10  14
ATOM     11  C   UNL     1      98.432 127.912  82.869  0.00  0.00    +0.000 A 
ATOM     12  C   UNL     1      99.104 126.792  82.383  0.00  0.00    +0.000 A 
ATOM     13  C   UNL     1     100.494 126.713  82.481  0.00  0.00    +0.000 A 
ATOM     14  C   UNL     1     101.227 127.753  83.071  0.00  0.00    +0.000 A 
ATOM     15  C   UNL     1     100.541 128.879  83.548  0.00  0.00    +0.000 A 
ATOM     16  C   UNL     1      99.150 128.957  83.449  0.00  0.00    +0.000 A 
ENDBRANCH  10  14
ENDBRANCH   1  10
TORSDOF 4
ENDMDL
