REMARK  Name = *****
REMARK  3 active torsions:
REMARK  status: ('A' for Active; 'I' for Inactive)
REMARK    1  A    between atoms: C_6  and  C_7
REMARK    2  A    between atoms: C_7  and  S_8
REMARK    3  A    between atoms: S_8  and  C_9
REMARK                            x       y       z     vdW  Elec       q    Type
REMARK                         _______ _______ _______ _____ _____    ______ ____
ROOT
ATOM      1  C   UNL     1      -3.466   0.148   0.017  0.00  0.00    +0.000 C 
ENDROOT
BRANCH   1   7
ATOM      2  C   UNL     1      -1.231   0.085  -1.170  0.00  0.00    +0.000 A 
ATOM      3  C   UNL     1       0.164   0.047  -1.153  0.00  0.00    +0.000 A 
ATOM      4  C   UNL     1       0.835   0.024   0.064  0.00  0.00    +0.000 A 
ATOM      5  C   UNL     1       0.137   0.041   1.266  0.00  0.00    +0.000 A 
ATOM      6  C   UNL     1      -1.258   0.080   1.252  0.00  0.00    +0.000 A 
ATOM      7  C   UNL     1      -1.957   0.094   0.033  0.00  0.00    +0.000 A 
ATOM      8  F   UNL     1       2.174  -0.012   0.079  0.00  0.00    +0.000 F 
ENDBRANCH   1   7
BRANCH   1   9
ATOM      9  S   UNL     1      -4.062   1.870  -0.023  0.00  0.00    +0.000 S 
BRANCH   9  10
ATOM     10  C   UNL     1      -5.843   1.704   0.027  0.00  0.00    +0.000 A 
ATOM     11  C   UNL     1      -6.540   0.489   0.005  0.00  0.00    +0.000 A 
ATOM     12  C   UNL     1      -7.938   0.471   0.046  0.00  0.00    +0.000 A 
ATOM     13  C   UNL     1      -8.643   1.666   0.107  0.00  0.00    +0.000 A 
ATOM     14  C   UNL     1      -7.976   2.882   0.128  0.00  0.00    +0.000 A 
ATOM     15  C   UNL     1      -6.579   2.899   0.087  0.00  0.00    +0.000 A 
ATOM     16  F   UNL     1      -9.981   1.644   0.146  0.00  0.00    +0.000 F 
ENDBRANCH   9  10
ENDBRANCH   1   9
TORSDOF 3
