MODEL 1
REMARK VINA RESULT:      -4.9      0.000      0.000
REMARK  Name = *****
REMARK  1 active torsions:
REMARK  status: ('A' for Active; 'I' for Inactive)
REMARK    1  A    between atoms: C_3  and  C_8
REMARK                            x       y       z     vdW  Elec       q    Type
REMARK                         _______ _______ _______ _____ _____    ______ ____
ROOT
ATOM      1  C   UNL     1     102.763 126.083  81.773  0.00  0.00    +0.000 A 
ATOM      2  N   UNL     1     103.411 126.268  80.635  0.00  0.00    +0.000 NA
ATOM      3  C   UNL     1     104.218 125.165  80.534  0.00  0.00    +0.000 A 
ATOM      4  C   UNL     1     104.024 124.338  81.627  0.00  0.00    +0.000 A 
ATOM      5  O   UNL     1     103.089 124.921  82.430  0.00  0.00    +0.000 OA
ATOM      6  C   UNL     1     104.681 123.133  81.840  0.00  0.00    +0.000 A 
ATOM      7  C   UNL     1     105.601 122.773  80.850  0.00  0.00    +0.000 A 
ATOM      8  C   UNL     1     105.834 123.578  79.727  0.00  0.00    +0.000 A 
ATOM      9  C   UNL     1     105.144 124.788  79.552  0.00  0.00    +0.000 A 
ATOM     10 CL   UNL     1     106.472 121.296  81.019  0.00  0.00    +0.000 Cl
ENDROOT
BRANCH   1  13
ATOM     11  C   UNL     1     101.244 128.949  83.686  0.00  0.00    +0.000 A 
ATOM     12  C   UNL     1     102.173 128.110  83.065  0.00  0.00    +0.000 A 
ATOM     13  C   UNL     1     101.764 126.938  82.409  0.00  0.00    +0.000 A 
ATOM     14  C   UNL     1     100.397 126.622  82.391  0.00  0.00    +0.000 A 
ATOM     15  C   UNL     1      99.473 127.461  83.015  0.00  0.00    +0.000 A 
ATOM     16  C   UNL     1      99.891 128.622  83.662  0.00  0.00    +0.000 A 
ATOM     17 CL   UNL     1      97.800 127.057  82.987  0.00  0.00    +0.000 Cl
ENDBRANCH   1  13
TORSDOF 1
ENDMDL
