MODEL 1
REMARK VINA RESULT:      -4.3      0.000      0.000
REMARK  Name = *****
REMARK  3 active torsions:
REMARK  status: ('A' for Active; 'I' for Inactive)
REMARK    1  A    between atoms: C_7  and  O_8
REMARK    2  A    between atoms: O_8  and  C_9
REMARK    3  A    between atoms: C_9  and  C_11
REMARK                            x       y       z     vdW  Elec       q    Type
REMARK                         _______ _______ _______ _____ _____    ______ ____
ROOT
ATOM      1  O   UNL     1     101.440 126.439  83.142  0.00  0.00    +0.000 OA
ENDROOT
BRANCH   1   8
ATOM      2  C   UNL     1     104.660 125.837  80.439  0.00  0.00    +0.000 C 
ATOM      3  C   UNL     1     103.579 126.870  80.088  0.00  0.00    +0.000 C 
ATOM      4  C   UNL     1     102.988 127.228  81.461  0.00  0.00    +0.000 C 
ATOM      5  C   UNL     1     104.233 127.187  82.352  0.00  0.00    +0.000 C 
ATOM      6  C   UNL     1     104.569 125.747  81.971  0.00  0.00    +0.000 C 
ATOM      7  C   UNL     1     103.273 125.010  82.356  0.00  0.00    +0.000 C 
ATOM      8  C   UNL     1     102.174 126.024  81.981  0.00  0.00    +0.000 C 
ENDBRANCH   1   8
BRANCH   1   9
ATOM      9  C   UNL     1     100.305 127.139  82.889  0.00  0.00    +0.000 C 
ATOM     10  O   UNL     1      99.335 126.729  82.272  0.00  0.00    +0.000 OA
BRANCH   9  11
ATOM     11  C   UNL     1     100.391 128.504  83.475  0.00  0.00    +0.000 A 
ATOM     12  C   UNL     1      99.324 129.386  83.257  0.00  0.00    +0.000 A 
ATOM     13  C   UNL     1      99.357 130.678  83.786  0.00  0.00    +0.000 A 
ATOM     14  C   UNL     1     100.456 131.096  84.536  0.00  0.00    +0.000 A 
ATOM     15  C   UNL     1     101.522 130.224  84.759  0.00  0.00    +0.000 A 
ATOM     16  C   UNL     1     101.492 128.931  84.231  0.00  0.00    +0.000 A 
ENDBRANCH   9  11
ENDBRANCH   1   9
TORSDOF 3
ENDMDL
