MODEL 1
REMARK VINA RESULT:      -4.7      0.000      0.000
REMARK  Name = *****
REMARK  4 active torsions:
REMARK  status: ('A' for Active; 'I' for Inactive)
REMARK    1  A    between atoms: C_1  and  C_2
REMARK    2  A    between atoms: C_3  and  C_16
REMARK    3  A    between atoms: C_5  and  C_8
REMARK    4  A    between atoms: C_9  and  C_10
REMARK                            x       y       z     vdW  Elec       q    Type
REMARK                         _______ _______ _______ _____ _____    ______ ____
ROOT
ATOM      1  C   UNL     1      99.098 129.870  84.305  0.00  0.00    +0.000 C 
ATOM      2  C   UNL     1      99.961 128.812  83.677  0.00  0.00    +0.000 A 
ATOM      3  C   UNL     1      99.401 127.686  83.044  0.00  0.00    +0.000 A 
ATOM      4  C   UNL     1     100.253 126.723  82.470  0.00  0.00    +0.000 A 
ATOM      5  C   UNL     1     101.645 126.861  82.517  0.00  0.00    +0.000 A 
ATOM      6  C   UNL     1     102.188 127.996  83.125  0.00  0.00    +0.000 A 
ATOM      7  C   UNL     1     101.355 128.957  83.703  0.00  0.00    +0.000 A 
ATOM      8  C   UNL     1      97.912 127.481  82.978  0.00  0.00    +0.000 C 
ENDROOT
BRANCH   5   9
ATOM      9  C   UNL     1     102.484 125.841  81.870  0.00  0.00    +0.000 C 
ATOM     10  C   UNL     1     103.341 125.050  82.538  0.00  0.00    +0.000 C 
BRANCH  10  11
ATOM     11  C   UNL     1     104.167 124.017  81.896  0.00  0.00    +0.000 A 
ATOM     12  C   UNL     1     104.571 124.104  80.563  0.00  0.00    +0.000 A 
ATOM     13  C   UNL     1     105.379 123.102  80.048  0.00  0.00    +0.000 A 
ATOM     14  N   UNL     1     105.810 122.042  80.763  0.00  0.00    +0.000 NA
ATOM     15  C   UNL     1     105.421 121.985  82.053  0.00  0.00    +0.000 A 
ATOM     16  C   UNL     1     104.618 122.938  82.659  0.00  0.00    +0.000 A 
ENDBRANCH  10  11
ENDBRANCH   5   9
TORSDOF 2
ENDMDL
