REMARK  Name = *****
REMARK  4 active torsions:
REMARK  status: ('A' for Active; 'I' for Inactive)
REMARK    1  A    between atoms: C_4  and  C_7
REMARK    2  A    between atoms: C_7  and  O_8
REMARK    3  A    between atoms: O_8  and  N_9
REMARK    4  A    between atoms: C_10  and  C_11
REMARK                            x       y       z     vdW  Elec       q    Type
REMARK                         _______ _______ _______ _____ _____    ______ ____
ROOT
ATOM      1  N   UNL     1      -4.916  -0.785  -0.005  0.00  0.00    +0.000 NA
ATOM      2  C   UNL     1      -5.310  -2.017   0.125  0.00  0.00    +0.000 C 
ENDROOT
BRANCH   2   3
ATOM      3  C   UNL     1      -4.657  -3.268  -0.319  0.00  0.00    +0.000 A 
ATOM      4  C   UNL     1      -3.269  -3.441  -0.305  0.00  0.00    +0.000 A 
ATOM      5  C   UNL     1      -2.712  -4.659  -0.703  0.00  0.00    +0.000 A 
ATOM      6  C   UNL     1      -3.543  -5.705  -1.102  0.00  0.00    +0.000 A 
ATOM      7  C   UNL     1      -4.928  -5.547  -1.099  0.00  0.00    +0.000 A 
ATOM      8  C   UNL     1      -5.488  -4.329  -0.701  0.00  0.00    +0.000 A 
ATOM      9 CL   UNL     1      -2.856  -7.205  -1.590  0.00  0.00    +0.000 Cl
ENDBRANCH   2   3
BRANCH   1  10
ATOM     10  O   UNL     1      -3.735  -0.675  -0.748  0.00  0.00    +0.000 OA
BRANCH  10  11
ATOM     11  C   UNL     1      -3.384   0.703  -0.865  0.00  0.00    +0.000 C 
BRANCH  11  15
ATOM     12  C   UNL     1       0.342   0.936  -3.022  0.00  0.00    +0.000 A 
ATOM     13  C   UNL     1      -0.849   0.701  -3.708  0.00  0.00    +0.000 A 
ATOM     14  C   UNL     1      -2.054   0.630  -3.009  0.00  0.00    +0.000 A 
ATOM     15  C   UNL     1      -2.081   0.799  -1.617  0.00  0.00    +0.000 A 
ATOM     16  C   UNL     1      -0.876   1.024  -0.937  0.00  0.00    +0.000 A 
ATOM     17  C   UNL     1       0.329   1.095  -1.638  0.00  0.00    +0.000 A 
ENDBRANCH  11  15
ENDBRANCH  10  11
ENDBRANCH   1  10
TORSDOF 4
