MODEL 1
REMARK VINA RESULT:      -4.0      0.000      0.000
REMARK  Name = *****
REMARK  3 active torsions:
REMARK  status: ('A' for Active; 'I' for Inactive)
REMARK    1  A    between atoms: C_2  and  O_8
REMARK    2  A    between atoms: O_8  and  C_9
REMARK    3  A    between atoms: C_9  and  C_11
REMARK                            x       y       z     vdW  Elec       q    Type
REMARK                         _______ _______ _______ _____ _____    ______ ____
ROOT
ATOM      1  O   UNL     1      88.571  68.926  87.383  0.00  0.00    +0.000 OA
ENDROOT
BRANCH   1   3
ATOM      2  C   UNL     1      87.497  66.959  86.401  0.00  0.00    +0.000 C 
ATOM      3  C   UNL     1      88.621  67.996  86.270  0.00  0.00    +0.000 C 
ATOM      4  C   UNL     1      90.040  67.418  86.248  0.00  0.00    +0.000 C 
ATOM      5  S   UNL     1      90.236  66.049  85.081  0.00  0.00    +0.000 S 
ATOM      6  C   UNL     1      89.708  64.674  85.980  0.00  0.00    +0.000 C 
ATOM      7  C   UNL     1      88.797  64.560  86.957  0.00  0.00    +0.000 C 
ATOM      8  S   UNL     1      87.802  65.744  87.720  0.00  0.00    +0.000 S 
ENDBRANCH   1   3
BRANCH   1   9
ATOM      9  C   UNL     1      88.689  70.239  87.074  0.00  0.00    +0.000 C 
ATOM     10  O   UNL     1      89.729  70.815  86.792  0.00  0.00    +0.000 OA
BRANCH   9  11
ATOM     11  C   UNL     1      87.365  70.911  87.141  0.00  0.00    +0.000 A 
ATOM     12  C   UNL     1      86.715  71.165  88.356  0.00  0.00    +0.000 A 
ATOM     13  C   UNL     1      85.468  71.794  88.367  0.00  0.00    +0.000 A 
ATOM     14  C   UNL     1      84.866  72.172  87.166  0.00  0.00    +0.000 A 
ATOM     15  C   UNL     1      85.506  71.919  85.953  0.00  0.00    +0.000 A 
ATOM     16  C   UNL     1      86.751  71.288  85.939  0.00  0.00    +0.000 A 
ENDBRANCH   9  11
ENDBRANCH   1   9
TORSDOF 3
ENDMDL
