MODEL 1
REMARK VINA RESULT:      -4.5      0.000      0.000
REMARK  Name = *****
REMARK  5 active torsions:
REMARK  status: ('A' for Active; 'I' for Inactive)
REMARK    1  A    between atoms: C_4  and  C_7
REMARK    2  A    between atoms: C_7  and  C_8
REMARK    3  A    between atoms: C_8  and  C_9
REMARK    4  A    between atoms: C_8  and  N_16
REMARK    5  A    between atoms: C_9  and  C_10
REMARK                            x       y       z     vdW  Elec       q    Type
REMARK                         _______ _______ _______ _____ _____    ______ ____
ROOT
ATOM      1  C   UNL     1      89.174  68.928  86.477  0.00  0.00    +0.000 C 
ATOM      2 CL   UNL     1      87.848  67.840  87.107  0.00  0.00    +0.000 Cl
ENDROOT
BRANCH   1   3
ATOM      3  N   UNL     1      90.375  67.995  86.402  0.00  0.00    +0.000 NA
ATOM      4  O   UNL     1      90.141  66.828  86.736  0.00  0.00    +0.000 OA
ENDBRANCH   1   3
BRANCH   1   5
ATOM      5  C   UNL     1      89.405  70.105  87.467  0.00  0.00    +0.000 C 
BRANCH   5   9
ATOM      6  C   UNL     1      85.990  71.620  89.652  0.00  0.00    +0.000 A 
ATOM      7  C   UNL     1      85.966  71.591  88.261  0.00  0.00    +0.000 A 
ATOM      8  C   UNL     1      87.063  71.099  87.550  0.00  0.00    +0.000 A 
ATOM      9  C   UNL     1      88.206  70.646  88.222  0.00  0.00    +0.000 A 
ATOM     10  C   UNL     1      88.203  70.656  89.625  0.00  0.00    +0.000 A 
ATOM     11  C   UNL     1      87.105  71.147  90.335  0.00  0.00    +0.000 A 
ENDBRANCH   5   9
ENDBRANCH   1   5
BRANCH   1  12
ATOM     12  C   UNL     1      88.768  69.345  85.037  0.00  0.00    +0.000 C 
BRANCH  12  13
ATOM     13  C   UNL     1      89.318  70.640  84.466  0.00  0.00    +0.000 A 
ATOM     14  C   UNL     1      90.642  70.758  84.024  0.00  0.00    +0.000 A 
ATOM     15  C   UNL     1      91.109  71.960  83.484  0.00  0.00    +0.000 A 
ATOM     16  C   UNL     1      90.256  73.053  83.361  0.00  0.00    +0.000 A 
ATOM     17  C   UNL     1      88.930  72.942  83.768  0.00  0.00    +0.000 A 
ATOM     18  C   UNL     1      88.463  71.743  84.308  0.00  0.00    +0.000 A 
ENDBRANCH  12  13
ENDBRANCH   1  12
TORSDOF 5
ENDMDL
