MODEL 1
REMARK VINA RESULT:      -5.1      0.000      0.000
REMARK  Name = *****
REMARK  2 active torsions:
REMARK  status: ('A' for Active; 'I' for Inactive)
REMARK    1  A    between atoms: C_1  and  C_2
REMARK    2  A    between atoms: C_10  and  C_12
REMARK                            x       y       z     vdW  Elec       q    Type
REMARK                         _______ _______ _______ _____ _____    ______ ____
ROOT
ATOM      1  C   UNL     1     103.359 127.937  84.664  0.00  0.00    +0.000 C 
ATOM      2  C   UNL     1     102.847 128.486  83.330  0.00  0.00    +0.000 C 
ATOM      3  C   UNL     1     101.367 128.217  83.157  0.00  0.00    +0.000 A 
ATOM      4  C   UNL     1     100.435 129.139  83.668  0.00  0.00    +0.000 A 
ATOM      5  C   UNL     1      99.065 128.896  83.568  0.00  0.00    +0.000 A 
ATOM      6  C   UNL     1      98.609 127.728  82.966  0.00  0.00    +0.000 A 
ATOM      7  C   UNL     1      99.522 126.802  82.460  0.00  0.00    +0.000 A 
ATOM      8  C   UNL     1     100.901 127.040  82.543  0.00  0.00    +0.000 A 
ATOM      9  C   UNL     1     101.833 126.041  82.002  0.00  0.00    +0.000 C 
ATOM     10  C   UNL     1     103.122 126.296  81.726  0.00  0.00    +0.000 C 
ATOM     11  S   UNL     1     103.863 127.841  81.957  0.00  0.00    +0.000 S 
ENDROOT
BRANCH  10  12
ATOM     12  C   UNL     1     103.978 125.246  81.157  0.00  0.00    +0.000 A 
ATOM     13  C   UNL     1     104.702 125.476  79.978  0.00  0.00    +0.000 A 
ATOM     14  C   UNL     1     105.496 124.468  79.429  0.00  0.00    +0.000 A 
ATOM     15  C   UNL     1     105.572 123.222  80.051  0.00  0.00    +0.000 A 
ATOM     16  C   UNL     1     104.855 122.982  81.221  0.00  0.00    +0.000 A 
ATOM     17  C   UNL     1     104.059 123.989  81.773  0.00  0.00    +0.000 A 
ENDBRANCH  10  12
TORSDOF 1
ENDMDL
