MODEL 1
REMARK VINA RESULT:      -4.1      0.000      0.000
REMARK  Name = *****
REMARK  3 active torsions:
REMARK  status: ('A' for Active; 'I' for Inactive)
REMARK    1  A    between atoms: C_3  and  O_9
REMARK    2  A    between atoms: O_9  and  C_10
REMARK    3  A    between atoms: C_10  and  C_11
REMARK                            x       y       z     vdW  Elec       q    Type
REMARK                         _______ _______ _______ _____ _____    ______ ____
ROOT
ATOM      1  C   UNL     1     103.595 125.211  80.442  0.00  0.00    +0.000 A 
ATOM      2  C   UNL     1     102.738 125.903  81.299  0.00  0.00    +0.000 A 
ATOM      3  C   UNL     1     102.705 125.589  82.661  0.00  0.00    +0.000 A 
ATOM      4  C   UNL     1     103.573 124.615  83.173  0.00  0.00    +0.000 A 
ATOM      5  C   UNL     1     104.430 123.923  82.314  0.00  0.00    +0.000 A 
ATOM      6  C   UNL     1     104.432 124.221  80.953  0.00  0.00    +0.000 A 
ATOM      7 CL   UNL     1     105.488 123.369  79.896  0.00  0.00    +0.000 Cl
ATOM      8 CL   UNL     1     103.658 124.254  84.858  0.00  0.00    +0.000 Cl
ENDROOT
BRANCH   3   9
ATOM      9  O   UNL     1     101.851 126.339  83.425  0.00  0.00    +0.000 OA
BRANCH   9  10
ATOM     10  C   UNL     1     100.962 127.149  82.638  0.00  0.00    +0.000 C 
BRANCH  10  11
ATOM     11  C   UNL     1      99.553 126.991  83.100  0.00  0.00    +0.000 A 
ATOM     12  C   UNL     1      99.062 127.172  84.374  0.00  0.00    +0.000 A 
ATOM     13  S   UNL     1      97.391 126.868  84.363  0.00  0.00    +0.000 S 
ATOM     14  N   UNL     1      97.377 126.531  82.721  0.00  0.00    +0.000 NA
ATOM     15  N   UNL     1      98.578 126.628  82.170  0.00  0.00    +0.000 NA
ATOM     16 CL   UNL     1      99.871 127.628  85.807  0.00  0.00    +0.000 Cl
ENDBRANCH  10  11
ENDBRANCH   9  10
ENDBRANCH   3   9
TORSDOF 3
ENDMDL
