REMARK  Name = *****
REMARK  4 active torsions:
REMARK  status: ('A' for Active; 'I' for Inactive)
REMARK    1  A    between atoms: C_3  and  C_7
REMARK    2  A    between atoms: C_7  and  O_8
REMARK    3  A    between atoms: O_8  and  C_9
REMARK    4  A    between atoms: C_9  and  C_11
REMARK                            x       y       z     vdW  Elec       q    Type
REMARK                         _______ _______ _______ _____ _____    ______ ____
ROOT
ATOM      1  O   UNL     1      -1.261   1.997  -2.431  0.00  0.00    +0.000 OA
ENDROOT
BRANCH   1   2
ATOM      2  C   UNL     1      -0.213   2.626  -3.015  0.00  0.00    +0.000 C 
ATOM      3  O   UNL     1       0.886   2.145  -3.240  0.00  0.00    +0.000 OA
BRANCH   2   4
ATOM      4  C   UNL     1      -0.573   4.032  -3.350  0.00  0.00    +0.000 A 
ATOM      5  C   UNL     1      -1.843   4.566  -3.093  0.00  0.00    +0.000 A 
ATOM      6  C   UNL     1      -2.127   5.893  -3.428  0.00  0.00    +0.000 A 
ATOM      7  C   UNL     1      -1.148   6.691  -4.018  0.00  0.00    +0.000 A 
ATOM      8  C   UNL     1       0.118   6.166  -4.277  0.00  0.00    +0.000 A 
ATOM      9  C   UNL     1       0.406   4.841  -3.945  0.00  0.00    +0.000 A 
ENDBRANCH   2   4
ENDBRANCH   1   2
BRANCH   1  10
ATOM     10  C   UNL     1      -1.067   0.627  -2.036  0.00  0.00    +0.000 C 
BRANCH  10  13
ATOM     11  C   UNL     1       1.129   0.716   0.206  0.00  0.00    +0.000 C 
ATOM     12  C   UNL     1      -0.287   1.294   0.306  0.00  0.00    +0.000 C 
ATOM     13  C   UNL     1      -1.312   0.500  -0.523  0.00  0.00    +0.000 C 
ATOM     14  C   UNL     1      -1.315  -0.975  -0.081  0.00  0.00    +0.000 C 
ATOM     15  C   UNL     1       0.058  -1.545   0.130  0.00  0.00    +0.000 C 
ATOM     16  C   UNL     1       1.156  -0.784   0.245  0.00  0.00    +0.000 C 
ENDBRANCH  10  13
ENDBRANCH   1  10
TORSDOF 4
