MODEL 1
REMARK VINA RESULT:      -4.5      0.000      0.000
REMARK  Name = *****
REMARK  4 active torsions:
REMARK  status: ('A' for Active; 'I' for Inactive)
REMARK    1  A    between atoms: C_1  and  C_2
REMARK    2  A    between atoms: C_2  and  C_10
REMARK    3  A    between atoms: C_10  and  S_11
REMARK    4  A    between atoms: S_11  and  C_12
REMARK                            x       y       z     vdW  Elec       q    Type
REMARK                         _______ _______ _______ _____ _____    ______ ____
ROOT
ATOM      1  C   UNL     1      89.854  70.864  85.262  0.00  0.00    +0.000 C 
ATOM      2  C   UNL     1      89.185  69.465  85.256  0.00  0.00    +0.000 C 
ATOM      3  C   UNL     1      89.497  68.815  86.632  0.00  0.00    +0.000 C 
ATOM      4  C   UNL     1      88.856  67.452  86.902  0.00  0.00    +0.000 C 
ATOM      5  C   UNL     1      89.674  66.257  86.417  0.00  0.00    +0.000 C 
ATOM      6  C   UNL     1      90.402  66.430  85.087  0.00  0.00    +0.000 C 
ATOM      7  C   UNL     1      89.585  67.156  84.034  0.00  0.00    +0.000 C 
ATOM      8  C   UNL     1      89.803  68.657  84.097  0.00  0.00    +0.000 C 
ATOM      9  O   UNL     1      90.413  69.212  83.177  0.00  0.00    +0.000 OA
ENDROOT
BRANCH   2  10
ATOM     10  C   UNL     1      87.679  69.614  84.924  0.00  0.00    +0.000 C 
BRANCH  10  11
ATOM     11  S   UNL     1      87.113  71.330  84.618  0.00  0.00    +0.000 S 
BRANCH  11  12
ATOM     12  C   UNL     1      86.157  71.583  86.101  0.00  0.00    +0.000 A 
ATOM     13  C   UNL     1      86.673  71.234  87.353  0.00  0.00    +0.000 A 
ATOM     14  C   UNL     1      85.916  71.441  88.508  0.00  0.00    +0.000 A 
ATOM     15  C   UNL     1      84.644  72.002  88.416  0.00  0.00    +0.000 A 
ATOM     16  C   UNL     1      84.129  72.363  87.172  0.00  0.00    +0.000 A 
ATOM     17  C   UNL     1      84.886  72.156  86.016  0.00  0.00    +0.000 A 
ENDBRANCH  11  12
ENDBRANCH  10  11
ENDBRANCH   2  10
TORSDOF 3
ENDMDL
