MODEL 1
REMARK VINA RESULT:      -4.2      0.000      0.000
REMARK  Name = *****
REMARK  5 active torsions:
REMARK  status: ('A' for Active; 'I' for Inactive)
REMARK    1  A    between atoms: C_1  and  O_2
REMARK    2  A    between atoms: O_2  and  C_3
REMARK    3  A    between atoms: C_5  and  C_9
REMARK    4  A    between atoms: C_9  and  S_10
REMARK    5  A    between atoms: S_10  and  C_11
REMARK                            x       y       z     vdW  Elec       q    Type
REMARK                         _______ _______ _______ _____ _____    ______ ____
ROOT
ATOM      1  C   UNL     1     104.512 123.508  83.081  0.00  0.00    +0.000 C 
ATOM      2  C   UNL     1     103.577 124.690  82.783  0.00  0.00    +0.000 C 
ATOM      3  C   UNL     1     104.078 125.531  81.595  0.00  0.00    +0.000 C 
ATOM      4  C   UNL     1     104.187 124.650  80.332  0.00  0.00    +0.000 C 
ATOM      5  C   UNL     1     104.779 123.297  80.598  0.00  0.00    +0.000 C 
ATOM      6  C   UNL     1     104.937 122.793  81.832  0.00  0.00    +0.000 C 
ENDROOT
BRANCH   1   8
ATOM      7  C   UNL     1     104.271 121.214  83.659  0.00  0.00    +0.000 C 
ATOM      8  O   UNL     1     103.843 122.547  83.900  0.00  0.00    +0.000 OA
ENDBRANCH   1   8
BRANCH   3   9
ATOM      9  C   UNL     1     103.148 126.739  81.385  0.00  0.00    +0.000 C 
BRANCH   9  10
ATOM     10  S   UNL     1     102.923 127.713  82.915  0.00  0.00    +0.000 S 
BRANCH  10  11
ATOM     11  C   UNL     1     101.142 127.778  82.978  0.00  0.00    +0.000 A 
ATOM     12  C   UNL     1     100.403 126.738  82.404  0.00  0.00    +0.000 A 
ATOM     13  C   UNL     1      99.007 126.758  82.447  0.00  0.00    +0.000 A 
ATOM     14  C   UNL     1      98.343 127.811  83.073  0.00  0.00    +0.000 A 
ATOM     15  C   UNL     1      99.074 128.843  83.660  0.00  0.00    +0.000 A 
ATOM     16  C   UNL     1     100.470 128.824  83.617  0.00  0.00    +0.000 A 
ENDBRANCH  10  11
ENDBRANCH   9  10
ENDBRANCH   3   9
TORSDOF 4
ENDMDL
