MODEL 1
REMARK VINA RESULT:      -4.9      0.000      0.000
REMARK  Name = *****
REMARK  5 active torsions:
REMARK  status: ('A' for Active; 'I' for Inactive)
REMARK    1  A    between atoms: C_1  and  C_2
REMARK    2  A    between atoms: C_3  and  C_16
REMARK    3  A    between atoms: C_4  and  C_8
REMARK    4  A    between atoms: C_8  and  C_9
REMARK    5  A    between atoms: C_9  and  C_10
REMARK                            x       y       z     vdW  Elec       q    Type
REMARK                         _______ _______ _______ _____ _____    ______ ____
ROOT
ATOM      1  C   UNL     1      99.291 130.536  84.244  0.00  0.00    +0.000 C 
ATOM      2  C   UNL     1      99.684 129.223  83.619  0.00  0.00    +0.000 A 
ATOM      3  C   UNL     1     101.027 128.775  83.594  0.00  0.00    +0.000 A 
ATOM      4  C   UNL     1     101.321 127.512  83.024  0.00  0.00    +0.000 A 
ATOM      5  C   UNL     1     100.288 126.754  82.446  0.00  0.00    +0.000 A 
ATOM      6  C   UNL     1      98.977 127.216  82.446  0.00  0.00    +0.000 A 
ATOM      7  C   UNL     1      98.677 128.441  83.031  0.00  0.00    +0.000 A 
ATOM      8  C   UNL     1     102.120 129.599  84.228  0.00  0.00    +0.000 C 
ENDROOT
BRANCH   4   9
ATOM      9  C   UNL     1     102.723 126.937  82.983  0.00  0.00    +0.000 C 
BRANCH   9  10
ATOM     10  C   UNL     1     103.077 126.404  81.592  0.00  0.00    +0.000 C 
BRANCH  10  11
ATOM     11  C   UNL     1     103.736 125.049  81.668  0.00  0.00    +0.000 A 
ATOM     12  C   UNL     1     104.195 124.414  80.506  0.00  0.00    +0.000 A 
ATOM     13  C   UNL     1     104.786 123.152  80.577  0.00  0.00    +0.000 A 
ATOM     14  C   UNL     1     104.920 122.511  81.807  0.00  0.00    +0.000 A 
ATOM     15  C   UNL     1     104.461 123.131  82.968  0.00  0.00    +0.000 A 
ATOM     16  C   UNL     1     103.870 124.393  82.900  0.00  0.00    +0.000 A 
ENDBRANCH  10  11
ENDBRANCH   9  10
ENDBRANCH   4   9
TORSDOF 3
ENDMDL
