MODEL 1
REMARK VINA RESULT:      -4.6      0.000      0.000
REMARK  Name = *****
REMARK  6 active torsions:
REMARK  status: ('A' for Active; 'I' for Inactive)
REMARK    1  A    between atoms: C_1  and  C_2
REMARK    2  A    between atoms: C_5  and  C_8
REMARK    3  A    between atoms: C_8  and  O_10
REMARK    4  A    between atoms: O_10  and  C_11
REMARK    5  A    between atoms: C_11  and  C_12
REMARK    6  A    between atoms: C_11  and  C_13
REMARK                            x       y       z     vdW  Elec       q    Type
REMARK                         _______ _______ _______ _____ _____    ______ ____
ROOT
ATOM      1  C   UNL     1      99.716 127.251  82.833  0.00  0.00    +0.000 C 
ATOM      2  O   UNL     1      98.969 126.741  82.014  0.00  0.00    +0.000 OA
ENDROOT
BRANCH   1   7
ATOM      3  C   UNL     1      98.019 131.547  86.344  0.00  0.00    +0.000 C 
ATOM      4  C   UNL     1      98.495 130.443  85.447  0.00  0.00    +0.000 A 
ATOM      5  C   UNL     1      98.134 129.116  85.706  0.00  0.00    +0.000 A 
ATOM      6  C   UNL     1      98.544 128.090  84.850  0.00  0.00    +0.000 A 
ATOM      7  C   UNL     1      99.315 128.380  83.718  0.00  0.00    +0.000 A 
ATOM      8  C   UNL     1      99.666 129.708  83.448  0.00  0.00    +0.000 A 
ATOM      9  C   UNL     1      99.253 130.733  84.305  0.00  0.00    +0.000 A 
ENDBRANCH   1   7
BRANCH   1  10
ATOM     10  O   UNL     1     100.996 126.888  83.088  0.00  0.00    +0.000 OA
BRANCH  10  11
ATOM     11  C   UNL     1     101.950 127.038  82.018  0.00  0.00    +0.000 C 
ATOM     12  C   UNL     1     103.008 128.032  82.486  0.00  0.00    +0.000 C 
BRANCH  11  13
ATOM     13  C   UNL     1     102.556 125.670  81.674  0.00  0.00    +0.000 C 
ATOM     14  C   UNL     1     103.485 125.131  82.764  0.00  0.00    +0.000 C 
ATOM     15  C   UNL     1     104.216 123.983  82.079  0.00  0.00    +0.000 C 
ATOM     16  C   UNL     1     104.294 124.367  80.602  0.00  0.00    +0.000 C 
ATOM     17  C   UNL     1     103.470 125.643  80.446  0.00  0.00    +0.000 C 
ENDBRANCH  11  13
ENDBRANCH  10  11
ENDBRANCH   1  10
TORSDOF 4
ENDMDL
