MODEL 1
REMARK VINA RESULT:      -5.2      0.000      0.000
REMARK  Name = *****
REMARK  2 active torsions:
REMARK  status: ('A' for Active; 'I' for Inactive)
REMARK    1  A    between atoms: C_4  and  C_7
REMARK    2  A    between atoms: C_7  and  C_8
REMARK                            x       y       z     vdW  Elec       q    Type
REMARK                         _______ _______ _______ _____ _____    ______ ____
ROOT
ATOM      1  C   UNL     1      88.847  70.244  87.602  0.00  0.00    +0.000 C 
ATOM      2  F   UNL     1      89.921  70.948  87.117  0.00  0.00    +0.000 F 
ATOM      3  F   UNL     1      88.996  70.322  88.965  0.00  0.00    +0.000 F 
ENDROOT
BRANCH   1   4
ATOM      4  C   UNL     1      88.942  68.801  87.165  0.00  0.00    +0.000 A 
ATOM      5  N   UNL     1      88.067  67.813  87.308  0.00  0.00    +0.000 NA
ATOM      6  C   UNL     1      88.701  66.726  86.762  0.00  0.00    +0.000 A 
ATOM      7  C   UNL     1      88.298  65.391  86.633  0.00  0.00    +0.000 A 
ATOM      8  C   UNL     1      89.186  64.487  86.029  0.00  0.00    +0.000 A 
ATOM      9  C   UNL     1      90.440  64.905  85.564  0.00  0.00    +0.000 A 
ATOM     10  C   UNL     1      90.855  66.237  85.682  0.00  0.00    +0.000 A 
ATOM     11  C   UNL     1      89.949  67.098  86.289  0.00  0.00    +0.000 A 
ATOM     12  O   UNL     1      90.111  68.429  86.533  0.00  0.00    +0.000 OA
ENDBRANCH   1   4
BRANCH   1  16
ATOM     13  C   UNL     1      85.117  72.038  86.337  0.00  0.00    +0.000 A 
ATOM     14  C   UNL     1      86.062  71.655  85.388  0.00  0.00    +0.000 A 
ATOM     15  C   UNL     1      87.269  71.082  85.794  0.00  0.00    +0.000 A 
ATOM     16  C   UNL     1      87.537  70.879  87.157  0.00  0.00    +0.000 A 
ATOM     17  C   UNL     1      86.577  71.275  88.104  0.00  0.00    +0.000 A 
ATOM     18  C   UNL     1      85.373  71.849  87.694  0.00  0.00    +0.000 A 
ENDBRANCH   1  16
TORSDOF 2
ENDMDL
