REMARK  Name = *****
REMARK  3 active torsions:
REMARK  status: ('A' for Active; 'I' for Inactive)
REMARK    1  A    between atoms: C_5  and  C_7
REMARK    2  A    between atoms: C_8  and  C_9
REMARK    3  A    between atoms: C_12  and  C_15
REMARK                            x       y       z     vdW  Elec       q    Type
REMARK                         _______ _______ _______ _____ _____    ______ ____
ROOT
ATOM      1  C   UNL     1      -2.032  -0.024  -0.046  0.00  0.00    +0.000 A 
ATOM      2  C   UNL     1      -2.742  -1.079  -0.622  0.00  0.00    +0.000 A 
ATOM      3  C   UNL     1      -4.139  -1.056  -0.642  0.00  0.00    +0.000 A 
ATOM      4  C   UNL     1      -4.842   0.024  -0.086  0.00  0.00    +0.000 A 
ATOM      5  C   UNL     1      -4.117   1.080   0.491  0.00  0.00    +0.000 A 
ATOM      6  C   UNL     1      -2.720   1.055   0.510  0.00  0.00    +0.000 A 
ENDROOT
BRANCH   4   7
ATOM      7  C   UNL     1      -6.351   0.066  -0.100  0.00  0.00    +0.000 C 
ATOM      8  F   UNL     1      -6.922  -1.015  -0.701  0.00  0.00    +0.000 F 
ATOM      9  F   UNL     1      -6.882   0.118   1.153  0.00  0.00    +0.000 F 
ATOM     10  F   UNL     1      -6.837   1.157  -0.756  0.00  0.00    +0.000 F 
ENDBRANCH   4   7
BRANCH   1  12
ATOM     11  C   UNL     1       0.599  -0.061  -0.013  0.00  0.00    +0.000 C 
ATOM     12  C   UNL     1      -0.602  -0.047  -0.027  0.00  0.00    +0.000 C 
BRANCH  11  17
ATOM     13  C   UNL     1       4.119  -1.066   0.570  0.00  0.00    +0.000 A 
ATOM     14  C   UNL     1       4.751   0.014  -0.040  0.00  0.00    +0.000 A 
ATOM     15  C   UNL     1       3.962   1.005  -0.603  0.00  0.00    +0.000 A 
ATOM     16  N   UNL     1       2.612   0.985  -0.596  0.00  0.00    +0.000 NA
ATOM     17  C   UNL     1       2.027  -0.075   0.002  0.00  0.00    +0.000 A 
ATOM     18  C   UNL     1       2.728  -1.116   0.594  0.00  0.00    +0.000 A 
ENDBRANCH  11  17
ENDBRANCH   1  12
TORSDOF 3
