MODEL 1
REMARK VINA RESULT:      -4.8      0.000      0.000
REMARK  Name = *****
REMARK  2 active torsions:
REMARK  status: ('A' for Active; 'I' for Inactive)
REMARK    1  A    between atoms: N_7  and  C_11
REMARK    2  A    between atoms: C_11  and  C_12
REMARK                            x       y       z     vdW  Elec       q    Type
REMARK                         _______ _______ _______ _____ _____    ______ ____
ROOT
ATOM      1  C   UNL     1      85.183  71.818  88.201  0.00  0.00    +0.000 A 
ATOM      2  C   UNL     1      84.328  72.332  87.217  0.00  0.00    +0.000 A 
ATOM      3  C   UNL     1      84.699  72.297  85.872  0.00  0.00    +0.000 A 
ATOM      4  C   UNL     1      85.927  71.745  85.541  0.00  0.00    +0.000 A 
ATOM      5  C   UNL     1      86.786  71.231  86.514  0.00  0.00    +0.000 A 
ATOM      6  C   UNL     1      86.419  71.263  87.854  0.00  0.00    +0.000 A 
ATOM      7  N   UNL     1      87.982  70.716  85.968  0.00  0.00    +0.000 N 
ATOM      8  C   UNL     1      88.083  70.817  84.587  0.00  0.00    +0.000 A 
ATOM      9  O   UNL     1      89.016  70.457  83.887  0.00  0.00    +0.000 OA
ATOM     10  S   UNL     1      86.626  71.576  83.926  0.00  0.00    +0.000 S 
ENDROOT
BRANCH   7  11
ATOM     11  C   UNL     1      89.058  70.157  86.758  0.00  0.00    +0.000 C 
BRANCH  11  12
ATOM     12  C   UNL     1      89.060  68.644  86.770  0.00  0.00    +0.000 A 
ATOM     13  C   UNL     1      90.102  67.924  86.167  0.00  0.00    +0.000 A 
ATOM     14  C   UNL     1      90.093  66.528  86.180  0.00  0.00    +0.000 A 
ATOM     15  C   UNL     1      89.058  65.831  86.797  0.00  0.00    +0.000 A 
ATOM     16  C   UNL     1      88.023  66.536  87.411  0.00  0.00    +0.000 A 
ATOM     17  C   UNL     1      88.025  67.933  87.399  0.00  0.00    +0.000 A 
ATOM     18 CL   UNL     1      91.374  65.663  85.425  0.00  0.00    +0.000 Cl
ENDBRANCH  11  12
ENDBRANCH   7  11
TORSDOF 2
ENDMDL
