MODEL 1
REMARK VINA RESULT:      -4.7      0.000      0.000
REMARK  Name = *****
REMARK  1 active torsions:
REMARK  status: ('A' for Active; 'I' for Inactive)
REMARK    1  A    between atoms: C_8  and  C_10
REMARK                            x       y       z     vdW  Elec       q    Type
REMARK                         _______ _______ _______ _____ _____    ______ ____
ROOT
ATOM      1  C   UNL     1     105.409 123.036  80.488  0.00  0.00    +0.000 C 
ATOM      2  C   UNL     1     106.074 123.156  81.867  0.00  0.00    +0.000 C 
ATOM      3  C   UNL     1     105.043 123.408  82.980  0.00  0.00    +0.000 C 
ATOM      4  C   UNL     1     104.046 124.438  82.546  0.00  0.00    +0.000 A 
ATOM      5  C   UNL     1     103.843 124.850  81.244  0.00  0.00    +0.000 A 
ATOM      6  C   UNL     1     104.662 124.324  80.106  0.00  0.00    +0.000 C 
ATOM      7  C   UNL     1     102.804 125.825  81.169  0.00  0.00    +0.000 A 
ATOM      8  C   UNL     1     102.241 126.112  82.401  0.00  0.00    +0.000 A 
ATOM      9  S   UNL     1     103.001 125.202  83.646  0.00  0.00    +0.000 S 
ENDROOT
BRANCH   8  10
ATOM     10  C   UNL     1     101.171 127.066  82.719  0.00  0.00    +0.000 A 
ATOM     11  C   UNL     1     101.438 128.283  83.364  0.00  0.00    +0.000 A 
ATOM     12  C   UNL     1     100.404 129.172  83.670  0.00  0.00    +0.000 A 
ATOM     13  C   UNL     1      99.089 128.855  83.338  0.00  0.00    +0.000 A 
ATOM     14  C   UNL     1      98.807 127.648  82.702  0.00  0.00    +0.000 A 
ATOM     15  C   UNL     1      99.840 126.759  82.396  0.00  0.00    +0.000 A 
ENDBRANCH   8  10
TORSDOF 1
ENDMDL
