MODEL 1
REMARK VINA RESULT:      -3.7      0.000      0.000
REMARK  Name = *****
REMARK  4 active torsions:
REMARK  status: ('A' for Active; 'I' for Inactive)
REMARK    1  A    between atoms: C_1  and  C_2
REMARK    2  A    between atoms: N_6  and  O_7
REMARK    3  A    between atoms: O_7  and  C_8
REMARK    4  A    between atoms: C_8  and  C_9
REMARK                            x       y       z     vdW  Elec       q    Type
REMARK                         _______ _______ _______ _____ _____    ______ ____
ROOT
ATOM      1  C   UNL     1      87.011  64.604  84.764  0.00  0.00    +0.000 C 
ATOM      2  C   UNL     1      86.955  65.381  86.075  0.00  0.00    +0.000 C 
ATOM      3  S   UNL     1      86.639  67.156  85.825  0.00  0.00    +0.000 S 
ATOM      4  C   UNL     1      88.198  67.670  85.047  0.00  0.00    +0.000 C 
ATOM      5  C   UNL     1      89.361  67.364  85.969  0.00  0.00    +0.000 C 
ATOM      6  N   UNL     1      90.084  68.247  86.595  0.00  0.00    +0.000 NA
ATOM      7  C   UNL     1      89.702  65.904  86.164  0.00  0.00    +0.000 C 
ATOM      8  S   UNL     1      88.409  65.077  87.128  0.00  0.00    +0.000 S 
ENDROOT
BRANCH   6   9
ATOM      9  O   UNL     1      89.655  69.552  86.319  0.00  0.00    +0.000 OA
BRANCH   9  10
ATOM     10  C   UNL     1      89.284  70.190  87.542  0.00  0.00    +0.000 C 
BRANCH  10  11
ATOM     11  C   UNL     1      87.904  70.774  87.382  0.00  0.00    +0.000 A 
ATOM     12  C   UNL     1      87.120  71.048  88.513  0.00  0.00    +0.000 A 
ATOM     13  C   UNL     1      85.840  71.587  88.373  0.00  0.00    +0.000 A 
ATOM     14  C   UNL     1      85.330  71.854  87.104  0.00  0.00    +0.000 A 
ATOM     15  C   UNL     1      86.098  71.580  85.974  0.00  0.00    +0.000 A 
ATOM     16  C   UNL     1      87.379  71.041  86.111  0.00  0.00    +0.000 A 
ENDBRANCH  10  11
ENDBRANCH   9  10
ENDBRANCH   6   9
TORSDOF 3
ENDMDL
