REMARK  Name = *****
REMARK  1 active torsions:
REMARK  status: ('A' for Active; 'I' for Inactive)
REMARK    1  A    between atoms: C_10  and  C_11
REMARK                            x       y       z     vdW  Elec       q    Type
REMARK                         _______ _______ _______ _____ _____    ______ ____
ROOT
ATOM      1  C   UNL     1      -2.285   1.256  -0.083  0.00  0.00    +0.000 C 
ATOM      2  C   UNL     1      -2.389  -0.244   0.237  0.00  0.00    +0.000 C 
ATOM      3  C   UNL     1      -0.950  -0.608   0.656  0.00  0.00    +0.000 C 
ATOM      4  C   UNL     1      -0.530   0.663   1.397  0.00  0.00    +0.000 C 
ATOM      5  C   UNL     1      -0.800   1.567   0.192  0.00  0.00    +0.000 C 
ATOM      6  C   UNL     1       0.044   0.917  -0.932  0.00  0.00    +0.000 C 
ATOM      7  C   UNL     1      -0.060  -0.587  -0.612  0.00  0.00    +0.000 C 
ATOM      8  S   UNL     1       1.553  -1.364  -0.323  0.00  0.00    +0.000 S 
ATOM      9  C   UNL     1       2.550   0.025  -0.591  0.00  0.00    +0.000 C 
ATOM     10  C   UNL     1       3.893  -0.006  -0.540  0.00  0.00    +0.000 C 
ATOM     11  S   UNL     1       1.754   1.527  -0.936  0.00  0.00    +0.000 S 
ENDROOT
BRANCH  10  12
ATOM     12  C   UNL     1       4.724  -1.181  -0.261  0.00  0.00    +0.000 A 
ATOM     13  C   UNL     1       5.190  -1.978  -1.312  0.00  0.00    +0.000 A 
ATOM     14  C   UNL     1       5.985  -3.094  -1.047  0.00  0.00    +0.000 A 
ATOM     15  C   UNL     1       6.318  -3.418   0.268  0.00  0.00    +0.000 A 
ATOM     16  C   UNL     1       5.855  -2.628   1.319  0.00  0.00    +0.000 A 
ATOM     17  C   UNL     1       5.060  -1.511   1.057  0.00  0.00    +0.000 A 
ENDBRANCH  10  12
TORSDOF 1
