MODEL 1
REMARK VINA RESULT:      -4.6      0.000      0.000
REMARK  Name = *****
REMARK  4 active torsions:
REMARK  status: ('A' for Active; 'I' for Inactive)
REMARK    1  A    between atoms: C_3  and  C_9
REMARK    2  A    between atoms: C_6  and  C_7
REMARK    3  A    between atoms: C_9  and  S_11
REMARK    4  A    between atoms: S_11  and  C_12
REMARK                            x       y       z     vdW  Elec       q    Type
REMARK                         _______ _______ _______ _____ _____    ______ ____
ROOT
ATOM      1  C   UNL     1      89.849  67.095  85.821  0.00  0.00    +0.000 C 
ATOM      2  O   UNL     1      90.862  66.647  86.344  0.00  0.00    +0.000 OA
ENDROOT
BRANCH   1   5
ATOM      3  C   UNL     1      89.821  70.171  83.620  0.00  0.00    +0.000 A 
ATOM      4  C   UNL     1      89.885  68.846  84.064  0.00  0.00    +0.000 A 
ATOM      5  C   UNL     1      89.767  68.537  85.430  0.00  0.00    +0.000 A 
ATOM      6  C   UNL     1      89.588  69.587  86.344  0.00  0.00    +0.000 A 
ATOM      7  C   UNL     1      89.526  70.914  85.898  0.00  0.00    +0.000 A 
ATOM      8  C   UNL     1      89.640  71.210  84.536  0.00  0.00    +0.000 A 
BRANCH   8   9
ATOM      9  C   UNL     1      89.575  72.569  84.085  0.00  0.00    +0.000 C 
ATOM     10  N   UNL     1      89.526  73.670  83.721  0.00  0.00    +0.000 NA
ENDBRANCH   8   9
ENDBRANCH   1   5
BRANCH   1  11
ATOM     11  S   UNL     1      88.478  66.045  85.485  0.00  0.00    +0.000 S 
BRANCH  11  12
ATOM     12  C   UNL     1      88.106  65.457  87.125  0.00  0.00    +0.000 A 
ATOM     13  C   UNL     1      87.164  66.145  87.899  0.00  0.00    +0.000 A 
ATOM     14  C   UNL     1      86.842  65.698  89.184  0.00  0.00    +0.000 A 
ATOM     15  C   UNL     1      87.458  64.556  89.695  0.00  0.00    +0.000 A 
ATOM     16  C   UNL     1      88.389  63.857  88.929  0.00  0.00    +0.000 A 
ATOM     17  C   UNL     1      88.708  64.305  87.644  0.00  0.00    +0.000 A 
ATOM     18 CL   UNL     1      87.063  64.007  91.276  0.00  0.00    +0.000 Cl
ENDBRANCH  11  12
ENDBRANCH   1  11
TORSDOF 4
ENDMDL
