MODEL 1
REMARK VINA RESULT:      -4.4      0.000      0.000
REMARK  Name = *****
REMARK  4 active torsions:
REMARK  status: ('A' for Active; 'I' for Inactive)
REMARK    1  A    between atoms: C_1  and  C_2
REMARK    2  A    between atoms: C_5  and  C_8
REMARK    3  A    between atoms: C_8  and  C_10
REMARK    4  A    between atoms: C_10  and  C_11
REMARK                            x       y       z     vdW  Elec       q    Type
REMARK                         _______ _______ _______ _____ _____    ______ ____
ROOT
ATOM      1  C   UNL     1      89.131  70.361  86.103  0.00  0.00    +0.000 C 
ATOM      2  O   UNL     1      89.856  70.862  85.247  0.00  0.00    +0.000 OA
ENDROOT
BRANCH   1   7
ATOM      3  C   UNL     1      83.833  72.548  87.087  0.00  0.00    +0.000 C 
ATOM      4  C   UNL     1      85.201  71.984  86.839  0.00  0.00    +0.000 A 
ATOM      5  C   UNL     1      85.991  71.508  87.891  0.00  0.00    +0.000 A 
ATOM      6  C   UNL     1      87.264  70.984  87.640  0.00  0.00    +0.000 A 
ATOM      7  C   UNL     1      87.763  70.925  86.332  0.00  0.00    +0.000 A 
ATOM      8  C   UNL     1      86.970  71.401  85.281  0.00  0.00    +0.000 A 
ATOM      9  C   UNL     1      85.699  71.925  85.534  0.00  0.00    +0.000 A 
ENDBRANCH   1   7
BRANCH   1  10
ATOM     10  C   UNL     1      89.553  69.163  86.942  0.00  0.00    +0.000 C 
BRANCH  10  11
ATOM     11  C   UNL     1      89.021  67.797  86.475  0.00  0.00    +0.000 C 
ATOM     12  C   UNL     1      87.951  67.322  87.477  0.00  0.00    +0.000 C 
ATOM     13  C   UNL     1      87.423  65.926  87.162  0.00  0.00    +0.000 C 
ATOM     14  C   UNL     1      88.556  64.914  87.049  0.00  0.00    +0.000 C 
ATOM     15  C   UNL     1      89.593  65.360  86.025  0.00  0.00    +0.000 C 
ATOM     16  C   UNL     1      90.141  66.750  86.350  0.00  0.00    +0.000 C 
ENDBRANCH  10  11
ENDBRANCH   1  10
TORSDOF 3
ENDMDL
