MODEL 1
REMARK VINA RESULT:      -4.9      0.000      0.000
REMARK  Name = *****
REMARK  5 active torsions:
REMARK  status: ('A' for Active; 'I' for Inactive)
REMARK    1  A    between atoms: C_1  and  C_2
REMARK    2  A    between atoms: C_5  and  C_8
REMARK    3  A    between atoms: C_8  and  C_9
REMARK    4  A    between atoms: C_9  and  C_10
REMARK    5  A    between atoms: C_14  and  C_16
REMARK                            x       y       z     vdW  Elec       q    Type
REMARK                         _______ _______ _______ _____ _____    ______ ____
ROOT
ATOM      1  C   UNL     1      88.083  70.723  85.528  0.00  0.00    +0.000 C 
ENDROOT
BRANCH   1   6
ATOM      2  C   UNL     1      83.166  72.927  87.778  0.00  0.00    +0.000 C 
ATOM      3  C   UNL     1      84.438  72.391  87.191  0.00  0.00    +0.000 A 
ATOM      4  C   UNL     1      84.634  72.387  85.807  0.00  0.00    +0.000 A 
ATOM      5  C   UNL     1      85.806  71.861  85.255  0.00  0.00    +0.000 A 
ATOM      6  C   UNL     1      86.808  71.330  86.074  0.00  0.00    +0.000 A 
ATOM      7  C   UNL     1      86.590  71.305  87.460  0.00  0.00    +0.000 A 
ATOM      8  C   UNL     1      85.418  71.831  88.013  0.00  0.00    +0.000 A 
ENDBRANCH   1   6
BRANCH   1   9
ATOM      9  C   UNL     1      89.048  70.059  86.526  0.00  0.00    +0.000 C 
BRANCH   9  10
ATOM     10  C   UNL     1      89.032  68.549  86.653  0.00  0.00    +0.000 A 
ATOM     11  C   UNL     1      88.013  67.839  87.296  0.00  0.00    +0.000 A 
ATOM     12  C   UNL     1      88.044  66.443  87.352  0.00  0.00    +0.000 A 
ATOM     13  C   UNL     1      89.090  65.738  86.760  0.00  0.00    +0.000 A 
ATOM     14  C   UNL     1      90.121  66.423  86.110  0.00  0.00    +0.000 A 
ATOM     15  C   UNL     1      90.075  67.822  86.050  0.00  0.00    +0.000 A 
ATOM     16  C   UNL     1      91.224  65.666  85.433  0.00  0.00    +0.000 C 
ENDBRANCH   9  10
ENDBRANCH   1   9
TORSDOF 3
ENDMDL
