MODEL 1
REMARK VINA RESULT:      -4.5      0.000      0.000
REMARK  Name = *****
REMARK  3 active torsions:
REMARK  status: ('A' for Active; 'I' for Inactive)
REMARK    1  A    between atoms: C_2  and  O_9
REMARK    2  A    between atoms: O_9  and  C_10
REMARK    3  A    between atoms: C_10  and  C_12
REMARK                            x       y       z     vdW  Elec       q    Type
REMARK                         _______ _______ _______ _____ _____    ______ ____
ROOT
ATOM      1  O   UNL     1     102.172 125.667  82.088  0.00  0.00    +0.000 OA
ENDROOT
BRANCH   1   3
ATOM      2  C   UNL     1     104.101 127.128  82.455  0.00  0.00    +0.000 C 
ATOM      3  C   UNL     1     103.587 125.811  81.843  0.00  0.00    +0.000 C 
ATOM      4  C   UNL     1     103.778 125.980  80.324  0.00  0.00    +0.000 C 
ATOM      5  C   UNL     1     103.616 127.457  80.089  0.00  0.00    +0.000 C 
ATOM      6  C   UNL     1     103.816 128.164  81.403  0.00  0.00    +0.000 C 
ATOM      7  C   UNL     1     104.748 128.396  80.274  0.00  0.00    +0.000 C 
ATOM      8  F   UNL     1     106.044 127.938  80.320  0.00  0.00    +0.000 F 
ATOM      9  F   UNL     1     104.758 129.605  79.619  0.00  0.00    +0.000 F 
ENDBRANCH   1   3
BRANCH   1  10
ATOM     10  C   UNL     1     101.768 125.947  83.352  0.00  0.00    +0.000 C 
ATOM     11  O   UNL     1     102.131 125.362  84.361  0.00  0.00    +0.000 OA
BRANCH  10  12
ATOM     12  C   UNL     1     100.815 127.089  83.359  0.00  0.00    +0.000 A 
ATOM     13  C   UNL     1      99.606 126.946  82.663  0.00  0.00    +0.000 A 
ATOM     14  C   UNL     1      98.677 127.988  82.642  0.00  0.00    +0.000 A 
ATOM     15  C   UNL     1      98.950 129.178  83.316  0.00  0.00    +0.000 A 
ATOM     16  C   UNL     1     100.150 129.329  84.010  0.00  0.00    +0.000 A 
ATOM     17  C   UNL     1     101.082 128.289  84.034  0.00  0.00    +0.000 A 
ENDBRANCH  10  12
ENDBRANCH   1  10
TORSDOF 3
ENDMDL
