MODEL 1
REMARK VINA RESULT:      -4.7      0.000      0.000
REMARK  Name = *****
REMARK  5 active torsions:
REMARK  status: ('A' for Active; 'I' for Inactive)
REMARK    1  A    between atoms: C_1  and  C_2
REMARK    2  A    between atoms: C_3  and  C_16
REMARK    3  A    between atoms: C_5  and  N_8
REMARK    4  A    between atoms: C_9  and  C_10
REMARK    5  A    between atoms: C_9  and  C_11
REMARK                            x       y       z     vdW  Elec       q    Type
REMARK                         _______ _______ _______ _____ _____    ______ ____
ROOT
ATOM      1  C   UNL     1      99.392 129.906  84.103  0.00  0.00    +0.000 C 
ATOM      2  C   UNL     1     100.304 128.826  83.589  0.00  0.00    +0.000 A 
ATOM      3  C   UNL     1      99.798 127.698  82.913  0.00  0.00    +0.000 A 
ATOM      4  C   UNL     1     100.693 126.720  82.446  0.00  0.00    +0.000 A 
ATOM      5  C   UNL     1     102.069 126.842  82.651  0.00  0.00    +0.000 A 
ATOM      6  C   UNL     1     102.564 127.974  83.295  0.00  0.00    +0.000 A 
ATOM      7  C   UNL     1     101.690 128.955  83.766  0.00  0.00    +0.000 A 
ATOM      8  C   UNL     1      98.324 127.520  82.673  0.00  0.00    +0.000 C 
ENDROOT
BRANCH   5   9
ATOM      9  N   UNL     1     102.942 125.865  82.161  0.00  0.00    +0.000 NA
ATOM     10  C   UNL     1     103.587 126.047  81.043  0.00  0.00    +0.000 C 
ATOM     11  C   UNL     1     103.475 127.294  80.180  0.00  0.00    +0.000 C 
BRANCH  10  12
ATOM     12  C   UNL     1     104.447 124.949  80.600  0.00  0.00    +0.000 A 
ATOM     13  C   UNL     1     104.361 123.617  80.970  0.00  0.00    +0.000 A 
ATOM     14  C   UNL     1     105.351 122.802  80.350  0.00  0.00    +0.000 A 
ATOM     15  C   UNL     1     106.164 123.533  79.516  0.00  0.00    +0.000 A 
ATOM     16  S   UNL     1     105.731 125.184  79.487  0.00  0.00    +0.000 S 
ENDBRANCH  10  12
ENDBRANCH   5   9
TORSDOF 2
ENDMDL
