REMARK  Name = *****
REMARK  5 active torsions:
REMARK  status: ('A' for Active; 'I' for Inactive)
REMARK    1  A    between atoms: C_1  and  C_2
REMARK    2  A    between atoms: C_5  and  C_8
REMARK    3  A    between atoms: C_8  and  C_11
REMARK    4  A    between atoms: C_11  and  C_13
REMARK    5  A    between atoms: C_16  and  C_19
REMARK                            x       y       z     vdW  Elec       q    Type
REMARK                         _______ _______ _______ _____ _____    ______ ____
ROOT
ATOM      1  C   UNL     1      -3.331  -0.098  -0.289  0.00  0.00    +0.000 C 
ATOM      2  C   UNL     1      -3.950  -1.193  -0.631  0.00  0.00    +0.000 C 
ATOM      3  O   UNL     1      -4.504  -2.187  -0.926  0.00  0.00    +0.000 OA
ENDROOT
BRANCH   1   8
ATOM      4  C   UNL     1       2.323  -0.156   1.114  0.00  0.00    +0.000 C 
ATOM      5  C   UNL     1       0.862  -0.157   0.777  0.00  0.00    +0.000 A 
ATOM      6  C   UNL     1       0.295  -1.222   0.073  0.00  0.00    +0.000 A 
ATOM      7  C   UNL     1      -1.061  -1.204  -0.275  0.00  0.00    +0.000 A 
ATOM      8  C   UNL     1      -1.886  -0.114   0.059  0.00  0.00    +0.000 A 
ATOM      9  C   UNL     1      -1.299   0.953   0.756  0.00  0.00    +0.000 A 
ATOM     10  C   UNL     1       0.057   0.937   1.104  0.00  0.00    +0.000 A 
ENDBRANCH   1   8
BRANCH   1  11
ATOM     11  C   UNL     1      -4.102   1.177  -0.415  0.00  0.00    +0.000 C 
ATOM     12  O   UNL     1      -3.574   2.203  -0.837  0.00  0.00    +0.000 OA
BRANCH  11  13
ATOM     13  C   UNL     1      -5.540   1.210  -0.033  0.00  0.00    +0.000 A 
ATOM     14  C   UNL     1      -6.042   0.473   1.046  0.00  0.00    +0.000 A 
ATOM     15  C   UNL     1      -7.399   0.552   1.373  0.00  0.00    +0.000 A 
ATOM     16  C   UNL     1      -8.264   1.365   0.632  0.00  0.00    +0.000 A 
ATOM     17  C   UNL     1      -7.749   2.130  -0.421  0.00  0.00    +0.000 A 
ATOM     18  C   UNL     1      -6.394   2.054  -0.752  0.00  0.00    +0.000 A 
ATOM     19  C   UNL     1      -9.714   1.472   1.007  0.00  0.00    +0.000 C 
ENDBRANCH  11  13
ENDBRANCH   1  11
TORSDOF 3
