MODEL 1
REMARK VINA RESULT:      -4.3      0.000      0.000
REMARK  Name = *****
REMARK  4 active torsions:
REMARK  status: ('A' for Active; 'I' for Inactive)
REMARK    1  A    between atoms: C_7  and  C_8
REMARK    2  A    between atoms: C_7  and  C_16
REMARK    3  A    between atoms: C_8  and  C_9
REMARK    4  A    between atoms: C_9  and  C_10
REMARK                            x       y       z     vdW  Elec       q    Type
REMARK                         _______ _______ _______ _____ _____    ______ ____
ROOT
ATOM      1  C   UNL     1      89.204  68.212  84.701  0.00  0.00    +0.000 C 
ATOM      2  C   UNL     1      89.413  67.119  83.684  0.00  0.00    +0.000 C 
ATOM      3  O   UNL     1      90.428  66.184  84.058  0.00  0.00    +0.000 OA
ATOM      4  C   UNL     1      91.014  66.128  85.281  0.00  0.00    +0.000 C 
ATOM      5  O   UNL     1      91.976  65.404  85.499  0.00  0.00    +0.000 OA
ATOM      6  O   UNL     1      90.487  66.924  86.246  0.00  0.00    +0.000 OA
ATOM      7  C   UNL     1      89.225  67.620  86.109  0.00  0.00    +0.000 C 
ENDROOT
BRANCH   7   8
ATOM      8  C   UNL     1      88.056  66.623  86.326  0.00  0.00    +0.000 C 
ATOM      9  I   UNL     1      86.778  67.082  88.006  0.00  0.00    +0.000 I 
ENDBRANCH   7   8
BRANCH   7  10
ATOM     10  C   UNL     1      89.268  68.775  87.145  0.00  0.00    +0.000 C 
BRANCH  10  11
ATOM     11  C   UNL     1      89.143  70.186  86.561  0.00  0.00    +0.000 C 
BRANCH  11  12
ATOM     12  C   UNL     1      87.801  70.797  86.880  0.00  0.00    +0.000 A 
ATOM     13  C   UNL     1      87.389  70.958  88.209  0.00  0.00    +0.000 A 
ATOM     14  C   UNL     1      86.139  71.507  88.499  0.00  0.00    +0.000 A 
ATOM     15  C   UNL     1      85.288  71.893  87.466  0.00  0.00    +0.000 A 
ATOM     16  C   UNL     1      85.685  71.730  86.140  0.00  0.00    +0.000 A 
ATOM     17  C   UNL     1      86.935  71.181  85.848  0.00  0.00    +0.000 A 
ENDBRANCH  11  12
ENDBRANCH  10  11
ENDBRANCH   7  10
TORSDOF 4
ENDMDL
