REMARK  Name = *****
REMARK  4 active torsions:
REMARK  status: ('A' for Active; 'I' for Inactive)
REMARK    1  A    between atoms: C_4  and  C_7
REMARK    2  A    between atoms: C_7  and  O_9
REMARK    3  A    between atoms: O_9  and  C_10
REMARK    4  A    between atoms: C_10  and  C_11
REMARK                            x       y       z     vdW  Elec       q    Type
REMARK                         _______ _______ _______ _____ _____    ______ ____
ROOT
ATOM      1  C   UNL     1      -0.009   1.025   2.070  0.00  0.00    +0.000 C 
ATOM      2  O   UNL     1       0.256   0.054   2.769  0.00  0.00    +0.000 OA
ENDROOT
BRANCH   1   6
ATOM      3  C   UNL     1       0.207  -1.960  -0.365  0.00  0.00    +0.000 C 
ATOM      4  C   UNL     1       1.454  -1.330   0.237  0.00  0.00    +0.000 C 
ATOM      5  S   UNL     1       1.620   0.443  -0.124  0.00  0.00    +0.000 S 
ATOM      6  C   UNL     1       0.055   1.082   0.545  0.00  0.00    +0.000 C 
ATOM      7  S   UNL     1      -1.404   0.304  -0.209  0.00  0.00    +0.000 S 
ATOM      8  C   UNL     1      -1.097  -1.434   0.214  0.00  0.00    +0.000 C 
ENDBRANCH   1   6
BRANCH   1   9
ATOM      9  O   UNL     1      -0.458   2.217   2.563  0.00  0.00    +0.000 OA
BRANCH   9  10
ATOM     10  C   UNL     1      -0.592   2.244   3.986  0.00  0.00    +0.000 C 
BRANCH  10  11
ATOM     11  C   UNL     1      -1.045   3.626   4.379  0.00  0.00    +0.000 A 
ATOM     12  C   UNL     1      -2.389   3.999   4.233  0.00  0.00    +0.000 A 
ATOM     13  C   UNL     1      -2.808   5.284   4.579  0.00  0.00    +0.000 A 
ATOM     14  C   UNL     1      -1.889   6.210   5.068  0.00  0.00    +0.000 A 
ATOM     15  C   UNL     1      -0.549   5.854   5.207  0.00  0.00    +0.000 A 
ATOM     16  C   UNL     1      -0.127   4.569   4.861  0.00  0.00    +0.000 A 
ENDBRANCH  10  11
ENDBRANCH   9  10
ENDBRANCH   1   9
TORSDOF 4
