REMARK  Name = *****
REMARK  1 active torsions:
REMARK  status: ('A' for Active; 'I' for Inactive)
REMARK    1  A    between atoms: C_4  and  C_7
REMARK                            x       y       z     vdW  Elec       q    Type
REMARK                         _______ _______ _______ _____ _____    ______ ____
ROOT
ATOM      1  C   UNL     1      -2.874   0.656  -0.153  0.00  0.00    +0.000 A 
ATOM      2  C   UNL     1      -3.830   0.026   0.666  0.00  0.00    +0.000 A 
ATOM      3  C   UNL     1      -5.215   0.298   0.534  0.00  0.00    +0.000 A 
ATOM      4  C   UNL     1      -5.617   1.217  -0.437  0.00  0.00    +0.000 A 
ATOM      5  C   UNL     1      -4.683   1.861  -1.268  0.00  0.00    +0.000 A 
ATOM      6  C   UNL     1      -3.323   1.568  -1.112  0.00  0.00    +0.000 A 
ATOM      7  S   UNL     1      -7.328   1.416  -0.445  0.00  0.00    +0.000 S 
ATOM      8  C   UNL     1      -7.539   0.295   0.822  0.00  0.00    +0.000 A 
ATOM      9  C   UNL     1      -6.342  -0.227   1.252  0.00  0.00    +0.000 A 
ENDROOT
BRANCH   1  13
ATOM     10  C   UNL     1       1.307  -0.206   0.291  0.00  0.00    +0.000 A 
ATOM     11  C   UNL     1       0.696  -0.336  -0.954  0.00  0.00    +0.000 A 
ATOM     12  C   UNL     1      -0.665  -0.055  -1.097  0.00  0.00    +0.000 A 
ATOM     13  C   UNL     1      -1.439   0.360  -0.001  0.00  0.00    +0.000 A 
ATOM     14  C   UNL     1      -0.803   0.484   1.246  0.00  0.00    +0.000 A 
ATOM     15  C   UNL     1       0.559   0.204   1.391  0.00  0.00    +0.000 A 
ENDBRANCH   1  13
TORSDOF 1
