MODEL 1
REMARK VINA RESULT:      -4.4      0.000      0.000
REMARK  Name = *****
REMARK  1 active torsions:
REMARK  status: ('A' for Active; 'I' for Inactive)
REMARK    1  A    between atoms: C_4  and  C_6
REMARK                            x       y       z     vdW  Elec       q    Type
REMARK                         _______ _______ _______ _____ _____    ______ ____
ROOT
ATOM      1  C   UNL     1     101.908 127.228  82.940  0.00  0.00    +0.000 A 
ATOM      2  C   UNL     1     102.356 126.949  81.659  0.00  0.00    +0.000 A 
ATOM      3  C   UNL     1     103.141 125.753  81.553  0.00  0.00    +0.000 A 
ATOM      4  C   UNL     1     103.762 125.152  80.431  0.00  0.00    +0.000 A 
ATOM      5  C   UNL     1     104.488 123.967  80.574  0.00  0.00    +0.000 A 
ATOM      6  C   UNL     1     104.606 123.364  81.819  0.00  0.00    +0.000 A 
ATOM      7  C   UNL     1     104.004 123.935  82.943  0.00  0.00    +0.000 A 
ATOM      8  C   UNL     1     103.273 125.130  82.793  0.00  0.00    +0.000 A 
ATOM      9  S   UNL     1     102.450 126.004  84.020  0.00  0.00    +0.000 S 
ENDROOT
BRANCH   1  13
ATOM     10  C   UNL     1      99.417 129.960  83.723  0.00  0.00    +0.000 C 
ATOM     11  C   UNL     1     100.651 130.357  84.521  0.00  0.00    +0.000 C 
ATOM     12  C   UNL     1     101.664 129.353  84.078  0.00  0.00    +0.000 C 
ATOM     13  C   UNL     1     101.114 128.312  83.428  0.00  0.00    +0.000 C 
ATOM     14  C   UNL     1      99.617 128.492  83.357  0.00  0.00    +0.000 C 
ENDBRANCH   1  13
TORSDOF 1
ENDMDL
