MODEL 1
REMARK VINA RESULT:      -4.6      0.000      0.000
REMARK  Name = *****
REMARK  4 active torsions:
REMARK  status: ('A' for Active; 'I' for Inactive)
REMARK    1  A    between atoms: C_1  and  C_2
REMARK    2  A    between atoms: C_7  and  N_8
REMARK    3  A    between atoms: C_9  and  C_10
REMARK    4  A    between atoms: C_9  and  C_11
REMARK                            x       y       z     vdW  Elec       q    Type
REMARK                         _______ _______ _______ _____ _____    ______ ____
ROOT
ATOM      1  N   UNL     1     102.197 125.983  82.847  0.00  0.00    +0.000 NA
ATOM      2  C   UNL     1     103.085 126.091  81.902  0.00  0.00    +0.000 C 
ATOM      3  C   UNL     1     103.107 127.207  80.878  0.00  0.00    +0.000 C 
ENDROOT
BRANCH   1  10
ATOM      4  C   UNL     1     102.703 128.401  84.364  0.00  0.00    +0.000 C 
ATOM      5  C   UNL     1     101.383 128.125  83.701  0.00  0.00    +0.000 A 
ATOM      6  C   UNL     1     100.339 129.058  83.802  0.00  0.00    +0.000 A 
ATOM      7  C   UNL     1      99.103 128.808  83.204  0.00  0.00    +0.000 A 
ATOM      8  C   UNL     1      98.895 127.622  82.503  0.00  0.00    +0.000 A 
ATOM      9  C   UNL     1      99.930 126.692  82.393  0.00  0.00    +0.000 A 
ATOM     10  C   UNL     1     101.182 126.943  82.966  0.00  0.00    +0.000 A 
ENDBRANCH   1  10
BRANCH   2  11
ATOM     11  C   UNL     1     104.152 124.998  81.830  0.00  0.00    +0.000 C 
ATOM     12  C   UNL     1     104.217 124.377  80.431  0.00  0.00    +0.000 C 
ATOM     13  C   UNL     1     105.276 123.280  80.358  0.00  0.00    +0.000 C 
ATOM     14  C   UNL     1     105.065 122.222  81.439  0.00  0.00    +0.000 C 
ATOM     15  C   UNL     1     105.003 122.842  82.833  0.00  0.00    +0.000 C 
ATOM     16  C   UNL     1     103.941 123.937  82.915  0.00  0.00    +0.000 C 
ENDBRANCH   2  11
TORSDOF 2
ENDMDL
