MODEL 1
REMARK VINA RESULT:      -4.6      0.000      0.000
REMARK  Name = *****
REMARK  5 active torsions:
REMARK  status: ('A' for Active; 'I' for Inactive)
REMARK    1  A    between atoms: C_1  and  C_2
REMARK    2  A    between atoms: C_5  and  O_8
REMARK    3  A    between atoms: O_8  and  C_9
REMARK    4  A    between atoms: C_9  and  C_10
REMARK    5  A    between atoms: C_9  and  C_11
REMARK                            x       y       z     vdW  Elec       q    Type
REMARK                         _______ _______ _______ _____ _____    ______ ____
ROOT
ATOM      1  O   UNL     1      87.222  69.252  88.131  0.00  0.00    +0.000 OA
ENDROOT
BRANCH   1   6
ATOM      2  C   UNL     1      90.968  65.861  85.542  0.00  0.00    +0.000 C 
ATOM      3  C   UNL     1      89.971  66.726  86.254  0.00  0.00    +0.000 A 
ATOM      4  C   UNL     1      88.889  66.155  86.932  0.00  0.00    +0.000 A 
ATOM      5  C   UNL     1      87.942  66.960  87.577  0.00  0.00    +0.000 A 
ATOM      6  C   UNL     1      88.059  68.348  87.538  0.00  0.00    +0.000 A 
ATOM      7  C   UNL     1      89.133  68.920  86.852  0.00  0.00    +0.000 A 
ATOM      8  C   UNL     1      90.079  68.118  86.208  0.00  0.00    +0.000 A 
ENDBRANCH   1   6
BRANCH   1   9
ATOM      9  C   UNL     1      87.451  70.654  87.926  0.00  0.00    +0.000 C 
ATOM     10  C   UNL     1      87.688  71.264  89.309  0.00  0.00    +0.000 C 
BRANCH   9  11
ATOM     11  C   UNL     1      86.275  71.348  87.258  0.00  0.00    +0.000 A 
ATOM     12  C   UNL     1      85.233  71.910  88.012  0.00  0.00    +0.000 A 
ATOM     13  C   UNL     1      84.165  72.551  87.383  0.00  0.00    +0.000 A 
ATOM     14  C   UNL     1      84.130  72.647  85.992  0.00  0.00    +0.000 A 
ATOM     15  C   UNL     1      85.163  72.103  85.231  0.00  0.00    +0.000 A 
ATOM     16  C   UNL     1      86.231  71.460  85.860  0.00  0.00    +0.000 A 
ENDBRANCH   9  11
ENDBRANCH   1   9
TORSDOF 3
ENDMDL
