REMARK  Name = *****
REMARK  3 active torsions:
REMARK  status: ('A' for Active; 'I' for Inactive)
REMARK    1  A    between atoms: C_7  and  O_18
REMARK    2  A    between atoms: N_8  and  C_11
REMARK    3  A    between atoms: O_18  and  O_19
REMARK                            x       y       z     vdW  Elec       q    Type
REMARK                         _______ _______ _______ _____ _____    ______ ____
ROOT
ATOM      1  C   UNL     1      -2.190  -0.778   0.464  0.00  0.00    +0.000 C 
ATOM      2  C   UNL     1      -2.368   0.597  -0.184  0.00  0.00    +0.000 C 
ATOM      3  C   UNL     1      -1.159   1.505   0.076  0.00  0.00    +0.000 C 
ATOM      4  C   UNL     1       0.132   0.774  -0.095  0.00  0.00    +0.000 C 
ATOM      5  C   UNL     1       0.236  -0.557  -0.159  0.00  0.00    +0.000 C 
ATOM      6  C   UNL     1      -0.927  -1.488  -0.040  0.00  0.00    +0.000 C 
ATOM      7  C   UNL     1       1.627  -1.069  -0.327  0.00  0.00    +0.000 C 
ATOM      8  N   UNL     1       2.512   0.098  -0.321  0.00  0.00    +0.000 N 
ATOM      9  S   UNL     1       1.700   1.575  -0.307  0.00  0.00    +0.000 S 
ATOM     10  O   UNL     1       1.969   2.328   0.959  0.00  0.00    +0.000 OA
ENDROOT
BRANCH   8  11
ATOM     11  C   UNL     1       3.904  -0.041  -0.176  0.00  0.00    +0.000 A 
ATOM     12  C   UNL     1       4.534  -1.303  -0.187  0.00  0.00    +0.000 A 
ATOM     13  C   UNL     1       5.923  -1.447  -0.063  0.00  0.00    +0.000 A 
ATOM     14  C   UNL     1       6.727  -0.324   0.076  0.00  0.00    +0.000 A 
ATOM     15  C   UNL     1       6.150   0.937   0.089  0.00  0.00    +0.000 A 
ATOM     16  C   UNL     1       4.760   1.071  -0.038  0.00  0.00    +0.000 A 
ATOM     17 CL   UNL     1       8.430  -0.496   0.227  0.00  0.00    +0.000 Cl
ENDBRANCH   8  11
BRANCH   7  18
ATOM     18  O   UNL     1       1.739  -1.849  -1.533  0.00  0.00    +0.000 OA
BRANCH  18  19
ATOM     19  O   UNL     1       1.589  -0.945  -2.680  0.00  0.00    +0.000 OA
ATOM     20  H   UNL     1       1.662  -1.452  -3.503  0.00  0.00    +0.000 HD
ENDBRANCH  18  19
ENDBRANCH   7  18
TORSDOF 3
