MODEL 1
REMARK VINA RESULT:      -5.0      0.000      0.000
REMARK  Name = *****
REMARK  5 active torsions:
REMARK  status: ('A' for Active; 'I' for Inactive)
REMARK    1  A    between atoms: C_1  and  C_2
REMARK    2  A    between atoms: C_4  and  C_18
REMARK    3  A    between atoms: C_6  and  C_8
REMARK    4  A    between atoms: C_9  and  C_10
REMARK    5  A    between atoms: C_13  and  C_16
REMARK                            x       y       z     vdW  Elec       q    Type
REMARK                         _______ _______ _______ _____ _____    ______ ____
ROOT
ATOM      1  C   UNL     1     103.291 126.261  81.369  0.00  0.00    +0.000 C 
ATOM      2  C   UNL     1     102.122 126.021  81.985  0.00  0.00    +0.000 C 
ENDROOT
BRANCH   1   8
ATOM      3  C   UNL     1     104.911 121.545  81.475  0.00  0.00    +0.000 C 
ATOM      4  C   UNL     1     104.917 122.901  80.834  0.00  0.00    +0.000 A 
ATOM      5  C   UNL     1     105.773 123.174  79.760  0.00  0.00    +0.000 A 
ATOM      6  C   UNL     1     105.807 124.447  79.177  0.00  0.00    +0.000 A 
ATOM      7  C   UNL     1     104.994 125.461  79.703  0.00  0.00    +0.000 A 
ATOM      8  C   UNL     1     104.130 125.209  80.776  0.00  0.00    +0.000 A 
ATOM      9  C   UNL     1     104.113 123.929  81.345  0.00  0.00    +0.000 A 
ATOM     10  C   UNL     1     106.755 124.744  78.053  0.00  0.00    +0.000 C 
ENDBRANCH   1   8
BRANCH   2  11
ATOM     11  C   UNL     1     101.290 127.068  82.594  0.00  0.00    +0.000 A 
ATOM     12  C   UNL     1      99.889 127.021  82.562  0.00  0.00    +0.000 A 
ATOM     13  C   UNL     1      99.129 128.020  83.177  0.00  0.00    +0.000 A 
ATOM     14  C   UNL     1      99.769 129.068  83.841  0.00  0.00    +0.000 A 
ATOM     15  C   UNL     1     101.163 129.122  83.895  0.00  0.00    +0.000 A 
ATOM     16  C   UNL     1     101.918 128.119  83.277  0.00  0.00    +0.000 A 
BRANCH  14  17
ATOM     17  C   UNL     1      98.976 130.128  84.495  0.00  0.00    +0.000 C 
ATOM     18  O   UNL     1      99.219 131.318  84.334  0.00  0.00    +0.000 OA
ENDBRANCH  14  17
ENDBRANCH   2  11
TORSDOF 3
ENDMDL
