REMARK  Name = *****
REMARK  4 active torsions:
REMARK  status: ('A' for Active; 'I' for Inactive)
REMARK    1  A    between atoms: C_1  and  C_2
REMARK    2  A    between atoms: C_3  and  N_9
REMARK    3  A    between atoms: N_9  and  C_10
REMARK    4  A    between atoms: C_10  and  C_11
REMARK                            x       y       z     vdW  Elec       q    Type
REMARK                         _______ _______ _______ _____ _____    ______ ____
ROOT
ATOM      1  N   UNL     1       1.564   2.537   0.516  0.00  0.00    +0.000 N 
ATOM      2  C   UNL     1       2.707   2.899   1.207  0.00  0.00    +0.000 C 
ATOM      3  O   UNL     1       2.976   4.019   1.628  0.00  0.00    +0.000 OA
ENDROOT
BRANCH   1   6
ATOM      4  C   UNL     1       3.713   1.243  -1.159  0.00  0.00    +0.000 C 
ATOM      5  C   UNL     1       2.415   0.583  -0.772  0.00  0.00    +0.000 A 
ATOM      6  C   UNL     1       1.399   1.230  -0.033  0.00  0.00    +0.000 A 
ATOM      7  C   UNL     1       0.178   0.567   0.171  0.00  0.00    +0.000 A 
ATOM      8  C   UNL     1      -0.018  -0.728  -0.307  0.00  0.00    +0.000 A 
ATOM      9  C   UNL     1       0.991  -1.385  -0.997  0.00  0.00    +0.000 A 
ATOM     10  C   UNL     1       2.202  -0.733  -1.227  0.00  0.00    +0.000 A 
ATOM     11 CL   UNL     1      -1.517  -1.525  -0.025  0.00  0.00    +0.000 Cl
ENDBRANCH   1   6
BRANCH   1  12
ATOM     12  C   UNL     1       0.553   3.561   0.253  0.00  0.00    +0.000 C 
BRANCH  12  13
ATOM     13  C   UNL     1       0.703   4.160  -1.129  0.00  0.00    +0.000 A 
ATOM     14  C   UNL     1      -0.029   3.654  -2.213  0.00  0.00    +0.000 A 
ATOM     15  C   UNL     1       0.133   4.194  -3.490  0.00  0.00    +0.000 A 
ATOM     16  C   UNL     1       1.030   5.240  -3.697  0.00  0.00    +0.000 A 
ATOM     17  C   UNL     1       1.769   5.746  -2.630  0.00  0.00    +0.000 A 
ATOM     18  C   UNL     1       1.609   5.207  -1.352  0.00  0.00    +0.000 A 
ENDBRANCH  12  13
ENDBRANCH   1  12
TORSDOF 3
