MODEL 1
REMARK VINA RESULT:      -4.2      0.000      0.000
REMARK  Name = *****
REMARK  3 active torsions:
REMARK  status: ('A' for Active; 'I' for Inactive)
REMARK    1  A    between atoms: C_4  and  O_7
REMARK    2  A    between atoms: O_7  and  C_8
REMARK    3  A    between atoms: C_9  and  C_10
REMARK                            x       y       z     vdW  Elec       q    Type
REMARK                         _______ _______ _______ _____ _____    ______ ____
ROOT
ATOM      1  C   UNL     1      88.798  66.158  86.860  0.00  0.00    +0.000 C 
ATOM      2  C   UNL     1      89.878  66.842  86.468  0.00  0.00    +0.000 C 
ENDROOT
BRANCH   2   3
ATOM      3  C   UNL     1      89.864  68.241  86.022  0.00  0.00    +0.000 A 
ATOM      4  C   UNL     1      90.029  68.604  84.677  0.00  0.00    +0.000 A 
ATOM      5  C   UNL     1      89.979  69.947  84.292  0.00  0.00    +0.000 A 
ATOM      6  C   UNL     1      89.752  70.939  85.243  0.00  0.00    +0.000 A 
ATOM      7  C   UNL     1      89.570  70.591  86.580  0.00  0.00    +0.000 A 
ATOM      8  C   UNL     1      89.621  69.249  86.965  0.00  0.00    +0.000 A 
ENDBRANCH   2   3
BRANCH   1   9
ATOM      9  O   UNL     1      88.886  64.846  87.244  0.00  0.00    +0.000 OA
BRANCH   9  13
ATOM     10  C   UNL     1      86.791  64.854  90.933  0.00  0.00    +0.000 C 
ATOM     11  C   UNL     1      86.028  65.300  89.689  0.00  0.00    +0.000 C 
ATOM     12  C   UNL     1      86.974  65.625  88.537  0.00  0.00    +0.000 C 
ATOM     13  C   UNL     1      87.911  64.454  88.221  0.00  0.00    +0.000 C 
ATOM     14  C   UNL     1      88.675  64.023  89.477  0.00  0.00    +0.000 C 
ATOM     15  C   UNL     1      87.732  63.692  90.630  0.00  0.00    +0.000 C 
ENDBRANCH   9  13
ENDBRANCH   1   9
TORSDOF 3
ENDMDL
