MODEL 1
REMARK VINA RESULT:      -4.2      0.000      0.000
REMARK  Name = *****
REMARK  5 active torsions:
REMARK  status: ('A' for Active; 'I' for Inactive)
REMARK    1  A    between atoms: C_3  and  S_16
REMARK    2  A    between atoms: C_6  and  C_7
REMARK    3  A    between atoms: C_7  and  C_8
REMARK    4  A    between atoms: C_8  and  C_9
REMARK    5  A    between atoms: C_12  and  S_15
REMARK                            x       y       z     vdW  Elec       q    Type
REMARK                         _______ _______ _______ _____ _____    ______ ____
ROOT
ATOM      1  C   UNL     1      87.796  70.647  88.300  0.00  0.00    +0.000 C 
ENDROOT
BRANCH   1   7
ATOM      2  C   UNL     1      86.380  71.427  86.359  0.00  0.00    +0.000 A 
ATOM      3  C   UNL     1      85.221  72.013  85.841  0.00  0.00    +0.000 A 
ATOM      4  C   UNL     1      84.225  72.481  86.702  0.00  0.00    +0.000 A 
ATOM      5  C   UNL     1      84.391  72.347  88.082  0.00  0.00    +0.000 A 
ATOM      6  C   UNL     1      85.549  71.761  88.600  0.00  0.00    +0.000 A 
ATOM      7  C   UNL     1      86.556  71.302  87.742  0.00  0.00    +0.000 A 
BRANCH   4   8
ATOM      8  S   UNL     1      82.740  73.219  86.057  0.00  0.00    +0.000 S 
ATOM      9  H   UNL     1      82.924  74.560  85.916  0.00  0.00    +0.000 HD
ENDBRANCH   4   8
ENDBRANCH   1   7
BRANCH   1  10
ATOM     10  C   UNL     1      88.780  70.266  87.190  0.00  0.00    +0.000 C 
BRANCH  10  11
ATOM     11  C   UNL     1      88.873  68.769  87.019  0.00  0.00    +0.000 A 
ATOM     12  C   UNL     1      89.962  68.196  86.352  0.00  0.00    +0.000 A 
ATOM     13  C   UNL     1      90.039  66.811  86.180  0.00  0.00    +0.000 A 
ATOM     14  C   UNL     1      89.023  65.983  86.666  0.00  0.00    +0.000 A 
ATOM     15  C   UNL     1      87.936  66.551  87.333  0.00  0.00    +0.000 A 
ATOM     16  C   UNL     1      87.858  67.936  87.505  0.00  0.00    +0.000 A 
BRANCH  14  17
ATOM     17  S   UNL     1      89.113  64.218  86.463  0.00  0.00    +0.000 S 
ATOM     18  H   UNL     1      89.530  63.927  85.203  0.00  0.00    +0.000 HD
ENDBRANCH  14  17
ENDBRANCH  10  11
ENDBRANCH   1  10
TORSDOF 5
ENDMDL
