REMARK  Name = *****
REMARK  5 active torsions:
REMARK  status: ('A' for Active; 'I' for Inactive)
REMARK    1  A    between atoms: C_1  and  C_2
REMARK    2  A    between atoms: C_4  and  C_8
REMARK    3  A    between atoms: N_10  and  C_11
REMARK    4  A    between atoms: N_10  and  O_21
REMARK    5  A    between atoms: C_15  and  C_17
REMARK                            x       y       z     vdW  Elec       q    Type
REMARK                         _______ _______ _______ _____ _____    ______ ____
ROOT
ATOM      1  C   UNL     1      -1.744   2.447   0.149  0.00  0.00    +0.000 C 
ATOM      2  O   UNL     1      -1.230   1.349  -0.062  0.00  0.00    +0.000 OA
ATOM      3  N   UNL     1      -1.085   3.675   0.163  0.00  0.00    +0.000 N 
ENDROOT
BRANCH   1   7
ATOM      4  C   UNL     1      -5.800   3.764   2.835  0.00  0.00    +0.000 C 
ATOM      5  C   UNL     1      -5.182   3.076   1.654  0.00  0.00    +0.000 A 
ATOM      6  C   UNL     1      -3.794   3.108   1.461  0.00  0.00    +0.000 A 
ATOM      7  C   UNL     1      -3.216   2.446   0.370  0.00  0.00    +0.000 A 
ATOM      8  C   UNL     1      -4.020   1.703  -0.502  0.00  0.00    +0.000 A 
ATOM      9  C   UNL     1      -5.400   1.655  -0.305  0.00  0.00    +0.000 A 
ATOM     10  C   UNL     1      -5.977   2.338   0.768  0.00  0.00    +0.000 A 
ENDBRANCH   1   7
BRANCH   3  11
ATOM     11  C   UNL     1       0.318   3.911   0.121  0.00  0.00    +0.000 A 
ATOM     12  C   UNL     1       1.255   2.876   0.020  0.00  0.00    +0.000 A 
ATOM     13  C   UNL     1       2.629   3.142  -0.022  0.00  0.00    +0.000 A 
ATOM     14  C   UNL     1       3.094   4.452   0.042  0.00  0.00    +0.000 A 
ATOM     15  C   UNL     1       2.188   5.512   0.151  0.00  0.00    +0.000 A 
ATOM     16  C   UNL     1       0.809   5.228   0.189  0.00  0.00    +0.000 A 
BRANCH  15  17
ATOM     17  C   UNL     1       2.660   6.942   0.227  0.00  0.00    +0.000 C 
ATOM     18  F   UNL     1       4.016   7.073   0.212  0.00  0.00    +0.000 F 
ATOM     19  F   UNL     1       2.202   7.694  -0.812  0.00  0.00    +0.000 F 
ATOM     20  F   UNL     1       2.237   7.572   1.358  0.00  0.00    +0.000 F 
ENDBRANCH  15  17
ENDBRANCH   3  11
BRANCH   3  21
ATOM     21  O   UNL     1      -1.878   4.844   0.252  0.00  0.00    +0.000 OA
ATOM     22  H   UNL     1      -2.816   4.598   0.275  0.00  0.00    +0.000 HD
ENDBRANCH   3  21
TORSDOF 4
