REMARK  Name = *****
REMARK  3 active torsions:
REMARK  status: ('A' for Active; 'I' for Inactive)
REMARK    1  A    between atoms: C_3  and  C_8
REMARK    2  A    between atoms: C_8  and  O_10
REMARK    3  A    between atoms: O_10  and  C_11
REMARK                            x       y       z     vdW  Elec       q    Type
REMARK                         _______ _______ _______ _____ _____    ______ ____
ROOT
ATOM      1  C   UNL     1       2.167   2.342   0.795  0.00  0.00    +0.000 C 
ATOM      2  O   UNL     1       3.377   2.514   0.793  0.00  0.00    +0.000 OA
ENDROOT
BRANCH   1   5
ATOM      3  C   UNL     1       1.810  -1.098  -0.715  0.00  0.00    +0.000 A 
ATOM      4  C   UNL     1       2.356   0.086  -0.216  0.00  0.00    +0.000 A 
ATOM      5  C   UNL     1       1.523   1.103   0.277  0.00  0.00    +0.000 A 
ATOM      6  C   UNL     1       0.134   0.921   0.264  0.00  0.00    +0.000 A 
ATOM      7  C   UNL     1      -0.403  -0.265  -0.237  0.00  0.00    +0.000 A 
ATOM      8  C   UNL     1       0.427  -1.273  -0.726  0.00  0.00    +0.000 A 
ATOM      9 CL   UNL     1      -2.110  -0.486  -0.254  0.00  0.00    +0.000 Cl
ENDBRANCH   1   5
BRANCH   1  10
ATOM     10  O   UNL     1       1.199   3.216   1.253  0.00  0.00    +0.000 OA
BRANCH  10  11
ATOM     11  C   UNL     1       1.685   4.418   1.780  0.00  0.00    +0.000 A 
ATOM     12  C   UNL     1       2.433   4.435   2.958  0.00  0.00    +0.000 A 
ATOM     13  C   UNL     1       2.851   5.659   3.482  0.00  0.00    +0.000 A 
ATOM     14  C   UNL     1       2.503   6.846   2.835  0.00  0.00    +0.000 A 
ATOM     15  C   UNL     1       1.735   6.822   1.669  0.00  0.00    +0.000 A 
ATOM     16  C   UNL     1       1.316   5.601   1.140  0.00  0.00    +0.000 A 
ATOM     17 CL   UNL     1       3.016   8.354   3.486  0.00  0.00    +0.000 Cl
ENDBRANCH  10  11
ENDBRANCH   1  10
TORSDOF 3
