MODEL 1
REMARK VINA RESULT:      -3.9      0.000      0.000
REMARK  Name = *****
REMARK  5 active torsions:
REMARK  status: ('A' for Active; 'I' for Inactive)
REMARK    1  A    between atoms: C_1  and  C_2
REMARK    2  A    between atoms: C_5  and  P_8
REMARK    3  A    between atoms: P_8  and  P_9
REMARK    4  A    between atoms: P_9  and  C_10
REMARK    5  A    between atoms: C_13  and  C_16
REMARK                            x       y       z     vdW  Elec       q    Type
REMARK                         _______ _______ _______ _____ _____    ______ ____
ROOT
ATOM      1  P   UNL     1      89.173  68.833  83.312  0.00  0.00    +0.000 P 
ATOM      2  H   UNL     1      87.981  69.146  82.690  0.00  0.00    +0.000 HD
ENDROOT
BRANCH   1   7
ATOM      3  C   UNL     1      88.382  65.084  88.111  0.00  0.00    +0.000 C 
ATOM      4  C   UNL     1      88.572  66.020  86.955  0.00  0.00    +0.000 A 
ATOM      5  C   UNL     1      87.467  66.578  86.304  0.00  0.00    +0.000 A 
ATOM      6  C   UNL     1      87.642  67.427  85.206  0.00  0.00    +0.000 A 
ATOM      7  C   UNL     1      88.926  67.728  84.736  0.00  0.00    +0.000 A 
ATOM      8  C   UNL     1      90.030  67.148  85.375  0.00  0.00    +0.000 A 
ATOM      9  C   UNL     1      89.855  66.301  86.474  0.00  0.00    +0.000 A 
ENDBRANCH   1   7
BRANCH   1  10
ATOM     10  P   UNL     1      90.073  70.642  84.395  0.00  0.00    +0.000 P 
ATOM     11  H   UNL     1      90.005  71.785  83.625  0.00  0.00    +0.000 HD
BRANCH  10  12
ATOM     12  C   UNL     1      88.969  70.734  85.836  0.00  0.00    +0.000 A 
ATOM     13  C   UNL     1      89.449  70.446  87.120  0.00  0.00    +0.000 A 
ATOM     14  C   UNL     1      88.602  70.512  88.231  0.00  0.00    +0.000 A 
ATOM     15  C   UNL     1      87.258  70.862  88.077  0.00  0.00    +0.000 A 
ATOM     16  C   UNL     1      86.780  71.174  86.800  0.00  0.00    +0.000 A 
ATOM     17  C   UNL     1      87.628  71.108  85.691  0.00  0.00    +0.000 A 
ATOM     18  C   UNL     1      86.357  70.965  89.272  0.00  0.00    +0.000 C 
ENDBRANCH  10  12
ENDBRANCH   1  10
TORSDOF 3
ENDMDL
