REMARK  Name = *****
REMARK  5 active torsions:
REMARK  status: ('A' for Active; 'I' for Inactive)
REMARK    1  A    between atoms: C_1  and  C_2
REMARK    2  A    between atoms: C_2  and  C_3
REMARK    3  A    between atoms: C_2  and  S_9
REMARK    4  A    between atoms: S_9  and  C_10
REMARK    5  A    between atoms: C_10  and  C_11
REMARK                            x       y       z     vdW  Elec       q    Type
REMARK                         _______ _______ _______ _____ _____    ______ ____
ROOT
ATOM      1  C   UNL     1       3.067  -1.195  -0.586  0.00  0.00    +0.000 C 
ATOM      2  C   UNL     1       2.413   0.133  -0.197  0.00  0.00    +0.000 C 
ENDROOT
BRANCH   2   3
ATOM      3  C   UNL     1       0.915  -0.017  -0.012  0.00  0.00    +0.000 A 
ATOM      4  C   UNL     1       0.072  -0.396  -1.070  0.00  0.00    +0.000 A 
ATOM      5  C   UNL     1      -1.304  -0.525  -0.875  0.00  0.00    +0.000 A 
ATOM      6  C   UNL     1      -1.858  -0.282   0.379  0.00  0.00    +0.000 A 
ATOM      7  C   UNL     1      -1.036   0.090   1.440  0.00  0.00    +0.000 A 
ATOM      8  C   UNL     1       0.340   0.221   1.248  0.00  0.00    +0.000 A 
ENDBRANCH   2   3
BRANCH   2   9
ATOM      9  S   UNL     1       2.851   1.401  -1.446  0.00  0.00    +0.000 S 
BRANCH   9  10
ATOM     10  C   UNL     1       2.146   2.870  -0.634  0.00  0.00    +0.000 C 
BRANCH  10  11
ATOM     11  C   UNL     1       2.481   4.131  -1.391  0.00  0.00    +0.000 A 
ATOM     12  C   UNL     1       1.624   4.605  -2.395  0.00  0.00    +0.000 A 
ATOM     13  C   UNL     1       1.935   5.768  -3.102  0.00  0.00    +0.000 A 
ATOM     14  C   UNL     1       3.108   6.464  -2.818  0.00  0.00    +0.000 A 
ATOM     15  C   UNL     1       3.973   5.997  -1.830  0.00  0.00    +0.000 A 
ATOM     16  C   UNL     1       3.664   4.835  -1.122  0.00  0.00    +0.000 A 
ENDBRANCH  10  11
ENDBRANCH   9  10
ENDBRANCH   2   9
TORSDOF 4
