MODEL 1
REMARK VINA RESULT:      -4.8      0.000      0.000
REMARK  Name = *****
REMARK  2 active torsions:
REMARK  status: ('A' for Active; 'I' for Inactive)
REMARK    1  A    between atoms: C_5  and  C_7
REMARK    2  A    between atoms: N_8  and  C_9
REMARK                            x       y       z     vdW  Elec       q    Type
REMARK                         _______ _______ _______ _____ _____    ______ ____
ROOT
ATOM      1  C   UNL     1     101.960 126.267  82.334  0.00  0.00    +0.000 C 
ATOM      2  N   UNL     1     102.809 126.505  81.384  0.00  0.00    +0.000 NA
ENDROOT
BRANCH   1   7
ATOM      3  C   UNL     1     100.485 129.368  83.903  0.00  0.00    +0.000 A 
ATOM      4  C   UNL     1      99.129 129.187  83.617  0.00  0.00    +0.000 A 
ATOM      5  C   UNL     1      98.710 128.057  82.915  0.00  0.00    +0.000 A 
ATOM      6  C   UNL     1      99.647 127.112  82.504  0.00  0.00    +0.000 A 
ATOM      7  C   UNL     1     101.000 127.288  82.786  0.00  0.00    +0.000 A 
ATOM      8  C   UNL     1     101.422 128.419  83.490  0.00  0.00    +0.000 A 
ATOM      9  F   UNL     1      99.223 126.032  81.831  0.00  0.00    +0.000 F 
ENDBRANCH   1   7
BRANCH   2  10
ATOM     10  C   UNL     1     103.667 125.448  81.049  0.00  0.00    +0.000 A 
ATOM     11  C   UNL     1     104.448 125.507  79.892  0.00  0.00    +0.000 A 
ATOM     12  C   UNL     1     105.309 124.456  79.582  0.00  0.00    +0.000 A 
ATOM     13  C   UNL     1     105.408 123.348  80.422  0.00  0.00    +0.000 A 
ATOM     14  C   UNL     1     104.642 123.293  81.586  0.00  0.00    +0.000 A 
ATOM     15  C   UNL     1     103.778 124.344  81.898  0.00  0.00    +0.000 A 
ATOM     16 CL   UNL     1     106.261 124.528  78.150  0.00  0.00    +0.000 Cl
ENDBRANCH   2  10
TORSDOF 2
ENDMDL
