MODEL 1
REMARK VINA RESULT:      -4.5      0.000      0.000
REMARK  Name = *****
REMARK  4 active torsions:
REMARK  status: ('A' for Active; 'I' for Inactive)
REMARK    1  A    between atoms: C_4  and  C_7
REMARK    2  A    between atoms: C_7  and  O_8
REMARK    3  A    between atoms: O_8  and  C_9
REMARK    4  A    between atoms: C_9  and  C_11
REMARK                            x       y       z     vdW  Elec       q    Type
REMARK                         _______ _______ _______ _____ _____    ______ ____
ROOT
ATOM      1  C   UNL     1     104.628 124.536  80.115  0.00  0.00    +0.000 C 
ATOM      2  O   UNL     1     105.610 124.829  79.452  0.00  0.00    +0.000 OA
ENDROOT
BRANCH   1   3
ATOM      3  C   UNL     1     104.595 123.389  81.064  0.00  0.00    +0.000 A 
ATOM      4  C   UNL     1     104.712 122.056  80.641  0.00  0.00    +0.000 A 
ATOM      5  C   UNL     1     104.675 121.016  81.575  0.00  0.00    +0.000 A 
ATOM      6  C   UNL     1     104.523 121.304  82.931  0.00  0.00    +0.000 A 
ATOM      7  C   UNL     1     104.408 122.624  83.363  0.00  0.00    +0.000 A 
ATOM      8  C   UNL     1     104.444 123.665  82.431  0.00  0.00    +0.000 A 
ATOM      9 CL   UNL     1     104.478 120.022  84.077  0.00  0.00    +0.000 Cl
ENDBRANCH   1   3
BRANCH   1  10
ATOM     10  O   UNL     1     103.436 125.180  80.113  0.00  0.00    +0.000 OA
BRANCH  10  11
ATOM     11  C   UNL     1     103.497 126.599  80.301  0.00  0.00    +0.000 C 
BRANCH  11  15
ATOM     12  C   UNL     1     101.455 127.618  83.957  0.00  0.00    +0.000 A 
ATOM     13  C   UNL     1     102.480 128.434  83.482  0.00  0.00    +0.000 A 
ATOM     14  C   UNL     1     103.139 128.108  82.296  0.00  0.00    +0.000 A 
ATOM     15  C   UNL     1     102.772 126.967  81.569  0.00  0.00    +0.000 A 
ATOM     16  C   UNL     1     101.749 126.146  82.064  0.00  0.00    +0.000 A 
ATOM     17  C   UNL     1     101.091 126.474  83.250  0.00  0.00    +0.000 A 
ENDBRANCH  11  15
ENDBRANCH  10  11
ENDBRANCH   1  10
TORSDOF 4
ENDMDL
