REMARK  Name = *****
REMARK  5 active torsions:
REMARK  status: ('A' for Active; 'I' for Inactive)
REMARK    1  A    between atoms: C_1  and  C_2
REMARK    2  A    between atoms: C_4  and  N_8
REMARK    3  A    between atoms: N_8  and  O_9
REMARK    4  A    between atoms: O_9  and  C_10
REMARK    5  A    between atoms: C_10  and  C_12
REMARK                            x       y       z     vdW  Elec       q    Type
REMARK                         _______ _______ _______ _____ _____    ______ ____
ROOT
ATOM      1  N   UNL     1      -1.648   2.613   0.383  0.00  0.00    +0.000 N 
ATOM      2  H   UNL     1      -2.567   2.637   0.737  0.00  0.00    +0.000 HD
ENDROOT
BRANCH   1   6
ATOM      3  C   UNL     1       2.482  -0.094  -0.214  0.00  0.00    +0.000 C 
ATOM      4  C   UNL     1       0.987   0.018  -0.176  0.00  0.00    +0.000 A 
ATOM      5  C   UNL     1       0.373   1.260   0.047  0.00  0.00    +0.000 A 
ATOM      6  C   UNL     1      -1.021   1.381   0.100  0.00  0.00    +0.000 A 
ATOM      7  C   UNL     1      -1.797   0.221   0.000  0.00  0.00    +0.000 A 
ATOM      8  C   UNL     1      -1.198  -1.023  -0.206  0.00  0.00    +0.000 A 
ATOM      9  C   UNL     1       0.189  -1.124  -0.295  0.00  0.00    +0.000 A 
ENDBRANCH   1   6
BRANCH   1  10
ATOM     10  O   UNL     1      -0.940   3.807   0.152  0.00  0.00    +0.000 OA
BRANCH  10  11
ATOM     11  C   UNL     1      -1.716   4.753  -0.457  0.00  0.00    +0.000 C 
ATOM     12  O   UNL     1      -2.883   4.589  -0.791  0.00  0.00    +0.000 OA
BRANCH  11  13
ATOM     13  C   UNL     1      -0.952   6.009  -0.674  0.00  0.00    +0.000 A 
ATOM     14  C   UNL     1      -1.591   7.061  -1.345  0.00  0.00    +0.000 A 
ATOM     15  C   UNL     1      -0.918   8.263  -1.573  0.00  0.00    +0.000 A 
ATOM     16  C   UNL     1       0.395   8.421  -1.131  0.00  0.00    +0.000 A 
ATOM     17  C   UNL     1       1.037   7.380  -0.461  0.00  0.00    +0.000 A 
ATOM     18  C   UNL     1       0.368   6.175  -0.231  0.00  0.00    +0.000 A 
ENDBRANCH  11  13
ENDBRANCH  10  11
ENDBRANCH   1  10
TORSDOF 4
