REMARK  Name = *****
REMARK  5 active torsions:
REMARK  status: ('A' for Active; 'I' for Inactive)
REMARK    1  A    between atoms: C_1  and  C_2
REMARK    2  A    between atoms: C_4  and  S_8
REMARK    3  A    between atoms: C_5  and  C_7
REMARK    4  A    between atoms: S_8  and  C_9
REMARK    5  A    between atoms: C_9  and  C_11
REMARK                            x       y       z     vdW  Elec       q    Type
REMARK                         _______ _______ _______ _____ _____    ______ ____
ROOT
ATOM      1  S   UNL     1      -1.533   2.923  -1.093  0.00  0.00    +0.000 S 
ENDROOT
BRANCH   1   5
ATOM      2  C   UNL     1       2.206  -0.562   0.565  0.00  0.00    +0.000 C 
ATOM      3  C   UNL     1       0.984   0.181   0.202  0.00  0.00    +0.000 A 
ATOM      4  C   UNL     1       0.756   1.433  -0.326  0.00  0.00    +0.000 A 
ATOM      5  C   UNL     1      -0.647   1.562  -0.454  0.00  0.00    +0.000 A 
ATOM      6  C   UNL     1      -1.190   0.373  -0.012  0.00  0.00    +0.000 A 
ATOM      7  O   UNL     1      -0.197  -0.468   0.397  0.00  0.00    +0.000 OA
ATOM      8  C   UNL     1      -2.568  -0.149   0.094  0.00  0.00    +0.000 C 
ENDBRANCH   1   5
BRANCH   1   9
ATOM      9  C   UNL     1      -0.612   4.296  -0.492  0.00  0.00    +0.000 C 
ATOM     10  O   UNL     1       0.533   4.502  -0.879  0.00  0.00    +0.000 OA
BRANCH   9  11
ATOM     11  C   UNL     1      -1.266   5.231   0.475  0.00  0.00    +0.000 A 
ATOM     12  C   UNL     1      -2.599   5.116   0.897  0.00  0.00    +0.000 A 
ATOM     13  C   UNL     1      -3.137   6.038   1.801  0.00  0.00    +0.000 A 
ATOM     14  C   UNL     1      -2.353   7.080   2.292  0.00  0.00    +0.000 A 
ATOM     15  C   UNL     1      -1.028   7.205   1.883  0.00  0.00    +0.000 A 
ATOM     16  C   UNL     1      -0.488   6.287   0.980  0.00  0.00    +0.000 A 
ENDBRANCH   9  11
ENDBRANCH   1   9
TORSDOF 3
