MODEL 1
REMARK VINA RESULT:      -4.2      0.000      0.000
REMARK  Name = *****
REMARK  3 active torsions:
REMARK  status: ('A' for Active; 'I' for Inactive)
REMARK    1  A    between atoms: C_1  and  C_2
REMARK    2  A    between atoms: C_2  and  C_11
REMARK    3  A    between atoms: N_3  and  C_4
REMARK                            x       y       z     vdW  Elec       q    Type
REMARK                         _______ _______ _______ _____ _____    ______ ____
ROOT
ATOM      1  C   UNL     1      86.367  69.135  85.253  0.00  0.00    +0.000 C 
ATOM      2  C   UNL     1      86.937  69.894  86.438  0.00  0.00    +0.000 C 
ATOM      3  N   UNL     1      87.755  69.377  87.313  0.00  0.00    +0.000 NA
ENDROOT
BRANCH   3   4
ATOM      4  C   UNL     1      88.155  68.041  87.198  0.00  0.00    +0.000 A 
ATOM      5  C   UNL     1      89.319  67.705  86.504  0.00  0.00    +0.000 A 
ATOM      6  C   UNL     1      89.718  66.373  86.420  0.00  0.00    +0.000 A 
ATOM      7  C   UNL     1      88.972  65.368  87.037  0.00  0.00    +0.000 A 
ATOM      8  C   UNL     1      87.822  65.701  87.751  0.00  0.00    +0.000 A 
ATOM      9  C   UNL     1      87.420  67.036  87.835  0.00  0.00    +0.000 A 
ATOM     10 CL   UNL     1      91.144  65.961  85.549  0.00  0.00    +0.000 Cl
ENDBRANCH   3   4
BRANCH   2  11
ATOM     11  C   UNL     1      86.587  71.381  86.609  0.00  0.00    +0.000 C 
ATOM     12  C   UNL     1      85.887  71.653  87.913  0.00  0.00    +0.000 C 
ATOM     13  C   UNL     1      84.675  72.182  87.674  0.00  0.00    +0.000 C 
ATOM     14  C   UNL     1      84.474  72.295  86.250  0.00  0.00    +0.000 C 
ATOM     15  C   UNL     1      85.561  71.840  85.607  0.00  0.00    +0.000 C 
ENDBRANCH   2  11
TORSDOF 2
ENDMDL
