MODEL 1
REMARK VINA RESULT:      -4.2      0.000      0.000
REMARK  Name = *****
REMARK  4 active torsions:
REMARK  status: ('A' for Active; 'I' for Inactive)
REMARK    1  A    between atoms: C_5  and  C_6
REMARK    2  A    between atoms: C_6  and  C_7
REMARK    3  A    between atoms: C_7  and  C_8
REMARK    4  A    between atoms: C_8  and  C_9
REMARK                            x       y       z     vdW  Elec       q    Type
REMARK                         _______ _______ _______ _____ _____    ______ ____
ROOT
ATOM      1  C   UNL     1      87.400  69.997  88.454  0.00  0.00    +0.000 C 
ENDROOT
BRANCH   1   2
ATOM      2  C   UNL     1      86.675  71.323  88.696  0.00  0.00    +0.000 C 
BRANCH   2   7
ATOM      3  C   UNL     1      84.469  72.368  87.709  0.00  0.00    +0.000 C 
ATOM      4  C   UNL     1      84.029  72.534  86.283  0.00  0.00    +0.000 C 
ATOM      5  C   UNL     1      84.978  72.072  85.456  0.00  0.00    +0.000 C 
ATOM      6  C   UNL     1      86.086  71.572  86.232  0.00  0.00    +0.000 C 
ATOM      7  C   UNL     1      85.823  71.727  87.540  0.00  0.00    +0.000 C 
ENDBRANCH   2   7
ENDBRANCH   1   2
BRANCH   1   8
ATOM      8  C   UNL     1      88.904  70.210  88.275  0.00  0.00    +0.000 C 
BRANCH   8   9
ATOM      9  C   UNL     1      89.346  69.836  86.883  0.00  0.00    +0.000 A 
ATOM     10  C   UNL     1      89.664  70.830  85.946  0.00  0.00    +0.000 A 
ATOM     11  C   UNL     1      90.034  70.483  84.646  0.00  0.00    +0.000 A 
ATOM     12  C   UNL     1      90.087  69.142  84.269  0.00  0.00    +0.000 A 
ATOM     13  C   UNL     1      89.769  68.147  85.191  0.00  0.00    +0.000 A 
ATOM     14  C   UNL     1      89.399  68.491  86.492  0.00  0.00    +0.000 A 
ENDBRANCH   8   9
ENDBRANCH   1   8
TORSDOF 4
ENDMDL
