MODEL 1
REMARK VINA RESULT:      -5.3      0.000      0.000
REMARK  Name = *****
REMARK  5 active torsions:
REMARK  status: ('A' for Active; 'I' for Inactive)
REMARK    1  A    between atoms: C_1  and  C_2
REMARK    2  A    between atoms: C_5  and  C_8
REMARK    3  A    between atoms: C_8  and  C_9
REMARK    4  A    between atoms: C_9  and  C_10
REMARK    5  A    between atoms: C_15  and  C_16
REMARK                            x       y       z     vdW  Elec       q    Type
REMARK                         _______ _______ _______ _____ _____    ______ ____
ROOT
ATOM      1  C   UNL     1     101.672 127.140  83.091  0.00  0.00    +0.000 C 
ATOM      2  F   UNL     1     101.172 126.135  83.881  0.00  0.00    +0.000 F 
ATOM      3  F   UNL     1     101.189 126.874  81.833  0.00  0.00    +0.000 F 
ENDROOT
BRANCH   1   4
ATOM      4  C   UNL     1     101.108 128.483  83.568  0.00  0.00    +0.000 A 
ATOM      5  C   UNL     1     101.899 129.471  84.185  0.00  0.00    +0.000 A 
ATOM      6  C   UNL     1     101.339 130.676  84.622  0.00  0.00    +0.000 A 
ATOM      7  C   UNL     1      99.982 130.923  84.449  0.00  0.00    +0.000 A 
ATOM      8  C   UNL     1      99.180 129.966  83.833  0.00  0.00    +0.000 A 
ATOM      9  C   UNL     1      99.731 128.752  83.391  0.00  0.00    +0.000 A 
BRANCH   9  10
ATOM     10  C   UNL     1      98.843 127.813  82.756  0.00  0.00    +0.000 C 
ATOM     11  N   UNL     1      98.115 127.079  82.229  0.00  0.00    +0.000 NA
ENDBRANCH   9  10
ENDBRANCH   1   4
BRANCH   1  12
ATOM     12  C   UNL     1     103.230 126.990  83.055  0.00  0.00    +0.000 C 
ATOM     13  F   UNL     1     103.711 127.085  84.339  0.00  0.00    +0.000 F 
ATOM     14  F   UNL     1     103.769 128.074  82.408  0.00  0.00    +0.000 F 
BRANCH  12  19
ATOM     15  C   UNL     1     105.015 122.038  80.512  0.00  0.00    +0.000 C 
ATOM     16  C   UNL     1     104.551 123.301  81.174  0.00  0.00    +0.000 A 
ATOM     17  C   UNL     1     104.352 123.358  82.558  0.00  0.00    +0.000 A 
ATOM     18  C   UNL     1     103.918 124.540  83.164  0.00  0.00    +0.000 A 
ATOM     19  C   UNL     1     103.690 125.695  82.401  0.00  0.00    +0.000 A 
ATOM     20  C   UNL     1     103.881 125.629  81.011  0.00  0.00    +0.000 A 
ATOM     21  C   UNL     1     104.305 124.443  80.406  0.00  0.00    +0.000 A 
ENDBRANCH  12  19
ENDBRANCH   1  12
TORSDOF 4
ENDMDL
