MODEL 1
REMARK VINA RESULT:      -4.3      0.000      0.000
REMARK  Name = *****
REMARK  4 active torsions:
REMARK  status: ('A' for Active; 'I' for Inactive)
REMARK    1  A    between atoms: C_1  and  C_2
REMARK    2  A    between atoms: C_5  and  S_8
REMARK    3  A    between atoms: S_8  and  C_9
REMARK    4  A    between atoms: C_9  and  C_11
REMARK                            x       y       z     vdW  Elec       q    Type
REMARK                         _______ _______ _______ _____ _____    ______ ____
ROOT
ATOM      1  S   UNL     1     104.021 126.888  82.218  0.00  0.00    +0.000 S 
ENDROOT
BRANCH   1   6
ATOM      2  C   UNL     1      98.224 128.135  83.626  0.00  0.00    +0.000 C 
ATOM      3  C   UNL     1      99.656 127.816  83.313  0.00  0.00    +0.000 A 
ATOM      4  C   UNL     1     100.679 128.687  83.704  0.00  0.00    +0.000 A 
ATOM      5  C   UNL     1     102.011 128.403  83.385  0.00  0.00    +0.000 A 
ATOM      6  C   UNL     1     102.337 127.247  82.673  0.00  0.00    +0.000 A 
ATOM      7  C   UNL     1     101.314 126.388  82.260  0.00  0.00    +0.000 A 
ATOM      8  C   UNL     1      99.982 126.672  82.576  0.00  0.00    +0.000 A 
ENDBRANCH   1   6
BRANCH   1   9
ATOM      9  C   UNL     1     103.904 126.679  80.468  0.00  0.00    +0.000 C 
ATOM     10  O   UNL     1     103.484 127.554  79.719  0.00  0.00    +0.000 OA
BRANCH   9  11
ATOM     11  C   UNL     1     104.354 125.311  79.974  0.00  0.00    +0.000 C 
ATOM     12  C   UNL     1     104.204 124.282  81.099  0.00  0.00    +0.000 C 
ATOM     13  C   UNL     1     104.735 122.912  80.682  0.00  0.00    +0.000 C 
ATOM     14  C   UNL     1     106.177 122.995  80.191  0.00  0.00    +0.000 C 
ATOM     15  C   UNL     1     106.334 124.020  79.071  0.00  0.00    +0.000 C 
ATOM     16  C   UNL     1     105.805 125.390  79.487  0.00  0.00    +0.000 C 
ENDBRANCH   9  11
ENDBRANCH   1   9
TORSDOF 3
ENDMDL
