REMARK  Name = *****
REMARK  6 active torsions:
REMARK  status: ('A' for Active; 'I' for Inactive)
REMARK    1  A    between atoms: C_1  and  C_2
REMARK    2  A    between atoms: C_6  and  C_16
REMARK    3  A    between atoms: C_7  and  C_8
REMARK    4  A    between atoms: C_7  and  C_9
REMARK    5  A    between atoms: C_9  and  C_10
REMARK    6  A    between atoms: C_10  and  C_11
REMARK                            x       y       z     vdW  Elec       q    Type
REMARK                         _______ _______ _______ _____ _____    ______ ____
ROOT
ATOM      1  C   UNL     1       3.998  -0.594   1.081  0.00  0.00    +0.000 C 
ATOM      2  C   UNL     1       2.812  -0.141   0.215  0.00  0.00    +0.000 C 
ATOM      3  C   UNL     1       2.524  -1.227  -0.846  0.00  0.00    +0.000 C 
ATOM      4  C   UNL     1       3.309  -1.063  -2.111  0.00  0.00    +0.000 C 
ATOM      5  C   UNL     1       3.970   0.056  -2.439  0.00  0.00    +0.000 C 
ATOM      6  C   UNL     1       4.009   1.309  -1.592  0.00  0.00    +0.000 C 
ATOM      7  C   UNL     1       2.946   1.297  -0.428  0.00  0.00    +0.000 C 
ATOM      8  C   UNL     1       1.557   1.654  -1.047  0.00  0.00    +0.000 C 
ATOM      9  C   UNL     1       5.466   1.566  -1.181  0.00  0.00    +0.000 C 
ENDROOT
BRANCH   7  10
ATOM     10  C   UNL     1       3.250   2.351   0.686  0.00  0.00    +0.000 C 
BRANCH  10  11
ATOM     11  C   UNL     1       3.172   3.826   0.260  0.00  0.00    +0.000 C 
BRANCH  11  12
ATOM     12  C   UNL     1       3.688   4.740   1.323  0.00  0.00    +0.000 A 
ATOM     13  C   UNL     1       2.965   5.334   2.338  0.00  0.00    +0.000 A 
ATOM     14  O   UNL     1       3.767   6.101   3.118  0.00  0.00    +0.000 OA
ATOM     15  C   UNL     1       5.020   6.007   2.606  0.00  0.00    +0.000 A 
ATOM     16  C   UNL     1       5.028   5.186   1.504  0.00  0.00    +0.000 A 
ENDBRANCH  11  12
ENDBRANCH  10  11
ENDBRANCH   7  10
TORSDOF 3
