MODEL 1
REMARK VINA RESULT:      -4.8      0.000      0.000
REMARK  Name = *****
REMARK  4 active torsions:
REMARK  status: ('A' for Active; 'I' for Inactive)
REMARK    1  A    between atoms: C_1  and  C_2
REMARK    2  A    between atoms: C_5  and  C_8
REMARK    3  A    between atoms: C_9  and  C_10
REMARK    4  A    between atoms: C_12  and  C_16
REMARK                            x       y       z     vdW  Elec       q    Type
REMARK                         _______ _______ _______ _____ _____    ______ ____
ROOT
ATOM      1  C   UNL     1     102.203 126.073  82.067  0.00  0.00    +0.000 C 
ATOM      2  C   UNL     1     103.319 126.310  81.357  0.00  0.00    +0.000 C 
ENDROOT
BRANCH   1   7
ATOM      3  C   UNL     1      98.964 130.245  84.440  0.00  0.00    +0.000 C 
ATOM      4  C   UNL     1      99.794 129.177  83.791  0.00  0.00    +0.000 A 
ATOM      5  C   UNL     1      99.184 128.096  83.148  0.00  0.00    +0.000 A 
ATOM      6  C   UNL     1      99.957 127.083  82.572  0.00  0.00    +0.000 A 
ATOM      7  C   UNL     1     101.355 127.133  82.630  0.00  0.00    +0.000 A 
ATOM      8  C   UNL     1     101.962 128.200  83.303  0.00  0.00    +0.000 A 
ATOM      9  C   UNL     1     101.189 129.213  83.879  0.00  0.00    +0.000 A 
ENDBRANCH   1   7
BRANCH   2  10
ATOM     10  C   UNL     1     104.179 125.253  80.808  0.00  0.00    +0.000 A 
ATOM     11  C   UNL     1     104.117 123.928  81.261  0.00  0.00    +0.000 A 
ATOM     12  C   UNL     1     104.933 122.943  80.692  0.00  0.00    +0.000 A 
ATOM     13  C   UNL     1     105.811 123.277  79.656  0.00  0.00    +0.000 A 
ATOM     14  C   UNL     1     105.868 124.588  79.188  0.00  0.00    +0.000 A 
ATOM     15  C   UNL     1     105.052 125.569  79.758  0.00  0.00    +0.000 A 
BRANCH  12  16
ATOM     16  C   UNL     1     104.866 121.592  81.168  0.00  0.00    +0.000 C 
ATOM     17  N   UNL     1     104.812 120.498  81.553  0.00  0.00    +0.000 NA
ENDBRANCH  12  16
ENDBRANCH   2  10
TORSDOF 3
ENDMDL
