MODEL 1
REMARK VINA RESULT:      -4.9      0.000      0.000
REMARK  Name = *****
REMARK  4 active torsions:
REMARK  status: ('A' for Active; 'I' for Inactive)
REMARK    1  A    between atoms: C_1  and  C_2
REMARK    2  A    between atoms: C_5  and  C_8
REMARK    3  A    between atoms: C_9  and  C_10
REMARK    4  A    between atoms: C_10  and  C_17
REMARK                            x       y       z     vdW  Elec       q    Type
REMARK                         _______ _______ _______ _____ _____    ______ ____
ROOT
ATOM      1  C   UNL     1      85.143  61.250  90.830  0.00  0.00    +0.000 C 
ATOM      2  C   UNL     1      84.960  59.954  90.523  0.00  0.00    +0.000 C 
ENDROOT
BRANCH   2   3
ATOM      3  C   UNL     1      84.092  58.975  91.314  0.00  0.00    +0.000 C 
ATOM      4  C   UNL     1      84.579  58.848  92.781  0.00  0.00    +0.000 C 
ATOM      5  C   UNL     1      85.980  58.239  92.885  0.00  0.00    +0.000 C 
ATOM      6  C   UNL     1      86.053  56.873  92.220  0.00  0.00    +0.000 C 
ATOM      7  C   UNL     1      85.491  56.922  90.820  0.00  0.00    +0.000 C 
ATOM      8  O   UNL     1      86.043  56.343  89.884  0.00  0.00    +0.000 OA
ATOM      9  C   UNL     1      84.138  57.581  90.649  0.00  0.00    +0.000 C 
ATOM     10  C   UNL     1      82.627  59.458  91.306  0.00  0.00    +0.000 C 
ENDBRANCH   2   3
BRANCH   1  15
ATOM     11  C   UNL     1      88.626  64.734  87.779  0.00  0.00    +0.000 C 
ATOM     12  C   UNL     1      87.738  63.840  88.591  0.00  0.00    +0.000 A 
ATOM     13  C   UNL     1      87.448  64.131  89.927  0.00  0.00    +0.000 A 
ATOM     14  C   UNL     1      86.607  63.295  90.670  0.00  0.00    +0.000 A 
ATOM     15  C   UNL     1      86.030  62.160  90.088  0.00  0.00    +0.000 A 
ATOM     16  C   UNL     1      86.340  61.860  88.755  0.00  0.00    +0.000 A 
ATOM     17  C   UNL     1      87.182  62.694  88.012  0.00  0.00    +0.000 A 
ENDBRANCH   1  15
TORSDOF 2
ENDMDL
