MODEL 1
REMARK VINA RESULT:      -4.9      0.000      0.000
REMARK  Name = *****
REMARK  4 active torsions:
REMARK  status: ('A' for Active; 'I' for Inactive)
REMARK    1  A    between atoms: C_1  and  C_2
REMARK    2  A    between atoms: C_3  and  C_17
REMARK    3  A    between atoms: C_7  and  C_9
REMARK    4  A    between atoms: C_10  and  C_11
REMARK                            x       y       z     vdW  Elec       q    Type
REMARK                         _______ _______ _______ _____ _____    ______ ____
ROOT
ATOM      1  C   UNL     1     102.027 129.818  84.455  0.00  0.00    +0.000 C 
ATOM      2  C   UNL     1     101.306 128.739  83.695  0.00  0.00    +0.000 A 
ATOM      3  C   UNL     1      99.984 128.697  83.431  0.00  0.00    +0.000 A 
ATOM      4  C   UNL     1      99.416 127.548  82.660  0.00  0.00    +0.000 A 
ATOM      5  O   UNL     1      98.216 127.487  82.408  0.00  0.00    +0.000 OA
ATOM      6  O   UNL     1     100.274 126.570  82.246  0.00  0.00    +0.000 OA
ATOM      7  C   UNL     1     101.649 126.645  82.537  0.00  0.00    +0.000 A 
ATOM      8  C   UNL     1     102.160 127.670  83.226  0.00  0.00    +0.000 A 
ATOM      9  C   UNL     1      98.958 129.715  83.836  0.00  0.00    +0.000 C 
ENDROOT
BRANCH   7  10
ATOM     10  C   UNL     1     102.454 125.548  82.039  0.00  0.00    +0.000 C 
ATOM     11  C   UNL     1     103.430 124.936  82.726  0.00  0.00    +0.000 C 
BRANCH  11  12
ATOM     12  C   UNL     1     104.190 123.831  82.143  0.00  0.00    +0.000 A 
ATOM     13  C   UNL     1     104.518 123.841  80.784  0.00  0.00    +0.000 A 
ATOM     14  C   UNL     1     105.231 122.779  80.225  0.00  0.00    +0.000 A 
ATOM     15  C   UNL     1     105.619 121.703  81.023  0.00  0.00    +0.000 A 
ATOM     16  C   UNL     1     105.293 121.687  82.379  0.00  0.00    +0.000 A 
ATOM     17  C   UNL     1     104.579 122.748  82.938  0.00  0.00    +0.000 A 
ENDBRANCH  11  12
ENDBRANCH   7  10
TORSDOF 2
ENDMDL
