MODEL 1
REMARK VINA RESULT:      -4.9      0.000      0.000
REMARK  Name = *****
REMARK  3 active torsions:
REMARK  status: ('A' for Active; 'I' for Inactive)
REMARK    1  A    between atoms: C_2  and  C_3
REMARK    2  A    between atoms: C_8  and  C_9
REMARK    3  A    between atoms: C_10  and  C_11
REMARK                            x       y       z     vdW  Elec       q    Type
REMARK                         _______ _______ _______ _____ _____    ______ ____
ROOT
ATOM      1  C   UNL     1     102.011 126.219  82.213  0.00  0.00    +0.000 C 
ATOM      2  C   UNL     1     102.881 125.463  81.873  0.00  0.00    +0.000 C 
ENDROOT
BRANCH   2   3
ATOM      3  C   UNL     1     103.906 124.554  81.466  0.00  0.00    +0.000 A 
ATOM      4  C   UNL     1     104.489 124.676  80.200  0.00  0.00    +0.000 A 
ATOM      5  C   UNL     1     105.487 123.785  79.804  0.00  0.00    +0.000 A 
ATOM      6  C   UNL     1     105.896 122.781  80.677  0.00  0.00    +0.000 A 
ATOM      7  C   UNL     1     105.324 122.651  81.937  0.00  0.00    +0.000 A 
ATOM      8  C   UNL     1     104.324 123.542  82.335  0.00  0.00    +0.000 A 
ATOM      9  F   UNL     1     106.854 121.927  80.296  0.00  0.00    +0.000 F 
ENDBRANCH   2   3
BRANCH   1  15
ATOM     10  C   UNL     1     101.243 128.335  83.260  0.00  0.00    +0.000 A 
ATOM     11  C   UNL     1     100.186 129.173  83.637  0.00  0.00    +0.000 A 
ATOM     12  C   UNL     1      98.865 128.805  83.376  0.00  0.00    +0.000 A 
ATOM     13  C   UNL     1      98.591 127.597  82.738  0.00  0.00    +0.000 A 
ATOM     14  C   UNL     1      99.639 126.755  82.360  0.00  0.00    +0.000 A 
ATOM     15  C   UNL     1     100.967 127.117  82.618  0.00  0.00    +0.000 A 
BRANCH  10  17
ATOM     16  C   UNL     1     103.707 129.109  83.792  0.00  0.00    +0.000 C 
ATOM     17  C   UNL     1     102.585 128.754  83.549  0.00  0.00    +0.000 C 
ENDBRANCH  10  17
ENDBRANCH   1  15
TORSDOF 3
ENDMDL
