REMARK  Name = *****
REMARK  6 active torsions:
REMARK  status: ('A' for Active; 'I' for Inactive)
REMARK    1  A    between atoms: C_1  and  C_2
REMARK    2  A    between atoms: C_2  and  O_3
REMARK    3  A    between atoms: O_3  and  C_4
REMARK    4  A    between atoms: C_7  and  N_9
REMARK    5  A    between atoms: N_9  and  C_10
REMARK    6  A    between atoms: C_10  and  C_11
REMARK                            x       y       z     vdW  Elec       q    Type
REMARK                         _______ _______ _______ _____ _____    ______ ____
ROOT
ATOM      1  C   UNL     1       4.504  -0.970   1.522  0.00  0.00    +0.000 A 
ATOM      2  N   UNL     1       5.205  -0.051   0.896  0.00  0.00    +0.000 NA
ATOM      3  C   UNL     1       6.530  -0.440   0.867  0.00  0.00    +0.000 A 
ATOM      4  C   UNL     1       6.840  -1.631   1.502  0.00  0.00    +0.000 A 
ATOM      5  S   UNL     1       5.384  -2.313   2.113  0.00  0.00    +0.000 S 
ENDROOT
BRANCH   1   6
ATOM      6  O   UNL     1       3.185  -0.891   1.702  0.00  0.00    +0.000 OA
BRANCH   6   8
ATOM      7  C   UNL     1       1.080   0.189   1.409  0.00  0.00    +0.000 C 
ATOM      8  C   UNL     1       2.571   0.267   1.139  0.00  0.00    +0.000 C 
ENDBRANCH   6   8
ENDBRANCH   1   6
BRANCH   4   9
ATOM      9  N   UNL     1       8.021  -2.287   1.649  0.00  0.00    +0.000 NA
BRANCH   9  10
ATOM     10  C   UNL     1       8.882  -1.695   2.415  0.00  0.00    +0.000 C 
BRANCH  10  11
ATOM     11  C   UNL     1      10.217  -2.271   2.676  0.00  0.00    +0.000 A 
ATOM     12  C   UNL     1      10.594  -3.494   2.114  0.00  0.00    +0.000 A 
ATOM     13  C   UNL     1      11.862  -4.015   2.376  0.00  0.00    +0.000 A 
ATOM     14  C   UNL     1      12.748  -3.317   3.195  0.00  0.00    +0.000 A 
ATOM     15  C   UNL     1      12.371  -2.096   3.756  0.00  0.00    +0.000 A 
ATOM     16  C   UNL     1      11.104  -1.569   3.498  0.00  0.00    +0.000 A 
ENDBRANCH  10  11
ENDBRANCH   9  10
ENDBRANCH   4   9
TORSDOF 5
