MODEL 1
REMARK VINA RESULT:      -4.9      0.000      0.000
REMARK  Name = *****
REMARK  1 active torsions:
REMARK  status: ('A' for Active; 'I' for Inactive)
REMARK    1  A    between atoms: C_8  and  C_10
REMARK                            x       y       z     vdW  Elec       q    Type
REMARK                         _______ _______ _______ _____ _____    ______ ____
ROOT
ATOM      1  C   UNL     1      99.393 129.326  83.686  0.00  0.00    +0.000 A 
ATOM      2  C   UNL     1      98.512 128.428  83.067  0.00  0.00    +0.000 A 
ATOM      3  C   UNL     1      98.971 127.239  82.487  0.00  0.00    +0.000 A 
ATOM      4  C   UNL     1     100.340 127.019  82.569  0.00  0.00    +0.000 A 
ATOM      5  C   UNL     1     101.243 127.879  83.170  0.00  0.00    +0.000 A 
ATOM      6  C   UNL     1     100.771 129.064  83.746  0.00  0.00    +0.000 A 
ATOM      7  N   UNL     1     102.510 127.363  83.073  0.00  0.00    +0.000 NA
ATOM      8  C   UNL     1     102.343 126.219  82.435  0.00  0.00    +0.000 A 
ATOM      9  O   UNL     1     101.038 125.951  82.088  0.00  0.00    +0.000 OA
ENDROOT
BRANCH   8  10
ATOM     10  C   UNL     1     103.327 125.215  82.029  0.00  0.00    +0.000 A 
ATOM     11  C   UNL     1     103.981 124.370  82.944  0.00  0.00    +0.000 A 
ATOM     12  C   UNL     1     104.930 123.436  82.506  0.00  0.00    +0.000 A 
ATOM     13  C   UNL     1     105.236 123.336  81.152  0.00  0.00    +0.000 A 
ATOM     14  C   UNL     1     104.601 124.157  80.227  0.00  0.00    +0.000 A 
ATOM     15  C   UNL     1     103.654 125.088  80.663  0.00  0.00    +0.000 A 
ATOM     16 CL   UNL     1     106.400 122.188  80.619  0.00  0.00    +0.000 Cl
ATOM     17 CL   UNL     1     103.646 124.376  84.643  0.00  0.00    +0.000 Cl
ENDBRANCH   8  10
TORSDOF 1
ENDMDL
