MODEL 1
REMARK VINA RESULT:      -3.6      0.000      0.000
REMARK  Name = *****
REMARK  3 active torsions:
REMARK  status: ('A' for Active; 'I' for Inactive)
REMARK    1  A    between atoms: C_4  and  C_7
REMARK    2  A    between atoms: C_7  and  S_8
REMARK    3  A    between atoms: S_8  and  C_9
REMARK                            x       y       z     vdW  Elec       q    Type
REMARK                         _______ _______ _______ _____ _____    ______ ____
ROOT
ATOM      1  C   UNL     1      88.039  70.855  85.196  0.00  0.00    +0.000 C 
ENDROOT
BRANCH   1   5
ATOM      2  C   UNL     1      84.391  72.300  86.992  0.00  0.00    +0.000 A 
ATOM      3  C   UNL     1      85.399  71.768  87.793  0.00  0.00    +0.000 A 
ATOM      4  C   UNL     1      86.583  71.308  87.214  0.00  0.00    +0.000 A 
ATOM      5  C   UNL     1      86.769  71.373  85.825  0.00  0.00    +0.000 A 
ATOM      6  C   UNL     1      85.747  71.911  85.030  0.00  0.00    +0.000 A 
ATOM      7  C   UNL     1      84.564  72.370  85.611  0.00  0.00    +0.000 A 
ENDBRANCH   1   5
BRANCH   1   8
ATOM      8  S   UNL     1      87.774  69.387  84.153  0.00  0.00    +0.000 S 
BRANCH   8   9
ATOM      9  C   UNL     1      88.886  68.246  84.892  0.00  0.00    +0.000 C 
ATOM     10  C   UNL     1      89.448  67.221  84.157  0.00  0.00    +0.000 C 
ATOM     11  S   UNL     1      90.539  66.212  85.019  0.00  0.00    +0.000 S 
ATOM     12  N   UNL     1      90.237  66.866  86.541  0.00  0.00    +0.000 NA
ATOM     13  S   UNL     1      89.499  68.376  86.496  0.00  0.00    +0.000 S 
ATOM     14 BR   UNL     1      87.726  67.666  87.432  0.00  0.00    +0.000 Br
ENDBRANCH   8   9
ENDBRANCH   1   8
TORSDOF 3
ENDMDL
