MODEL 1
REMARK VINA RESULT:      -5.0      0.000      0.000
REMARK  Name = *****
REMARK  5 active torsions:
REMARK  status: ('A' for Active; 'I' for Inactive)
REMARK    1  A    between atoms: C_1  and  C_2
REMARK    2  A    between atoms: C_5  and  C_8
REMARK    3  A    between atoms: C_9  and  C_10
REMARK    4  A    between atoms: C_11  and  C_17
REMARK    5  A    between atoms: C_15  and  C_16
REMARK                            x       y       z     vdW  Elec       q    Type
REMARK                         _______ _______ _______ _____ _____    ______ ____
ROOT
ATOM      1  C   UNL     1     102.451 126.712  82.574  0.00  0.00    +0.000 C 
ATOM      2  C   UNL     1     101.830 127.642  83.013  0.00  0.00    +0.000 C 
ENDROOT
BRANCH   2   3
ATOM      3  C   UNL     1     101.100 128.760  83.546  0.00  0.00    +0.000 A 
ATOM      4  C   UNL     1      99.695 128.804  83.433  0.00  0.00    +0.000 A 
ATOM      5  C   UNL     1      99.002 129.913  83.943  0.00  0.00    +0.000 A 
ATOM      6  C   UNL     1      99.687 130.950  84.572  0.00  0.00    +0.000 A 
ATOM      7  C   UNL     1     101.073 130.898  84.695  0.00  0.00    +0.000 A 
ATOM      8  C   UNL     1     101.795 129.808  84.185  0.00  0.00    +0.000 A 
ATOM      9  C   UNL     1     103.294 129.789  84.331  0.00  0.00    +0.000 C 
ATOM     10  C   UNL     1      98.917 127.719  82.737  0.00  0.00    +0.000 C 
ENDBRANCH   2   3
BRANCH   1  15
ATOM     11  C   UNL     1     105.469 122.301  80.491  0.00  0.00    +0.000 C 
ATOM     12  C   UNL     1     104.690 123.457  81.046  0.00  0.00    +0.000 A 
ATOM     13  C   UNL     1     104.356 123.511  82.404  0.00  0.00    +0.000 A 
ATOM     14  C   UNL     1     103.617 124.585  82.908  0.00  0.00    +0.000 A 
ATOM     15  C   UNL     1     103.201 125.610  82.057  0.00  0.00    +0.000 A 
ATOM     16  C   UNL     1     103.522 125.557  80.700  0.00  0.00    +0.000 A 
ATOM     17  C   UNL     1     104.261 124.484  80.196  0.00  0.00    +0.000 A 
ENDBRANCH   1  15
TORSDOF 2
ENDMDL
