REMARK  Name = *****
REMARK  3 active torsions:
REMARK  status: ('A' for Active; 'I' for Inactive)
REMARK    1  A    between atoms: C_6  and  C_7
REMARK    2  A    between atoms: C_7  and  S_8
REMARK    3  A    between atoms: S_8  and  C_9
REMARK                            x       y       z     vdW  Elec       q    Type
REMARK                         _______ _______ _______ _____ _____    ______ ____
ROOT
ATOM      1  C   UNL     1       3.957   0.198   0.116  0.00  0.00    +0.000 C 
ENDROOT
BRANCH   1   7
ATOM      2  C   UNL     1       1.659   0.016   1.157  0.00  0.00    +0.000 A 
ATOM      3  C   UNL     1       0.267  -0.042   1.056  0.00  0.00    +0.000 A 
ATOM      4  C   UNL     1      -0.338   0.010  -0.198  0.00  0.00    +0.000 A 
ATOM      5  C   UNL     1       0.436   0.123  -1.350  0.00  0.00    +0.000 A 
ATOM      6  C   UNL     1       1.828   0.183  -1.249  0.00  0.00    +0.000 A 
ATOM      7  C   UNL     1       2.454   0.123   0.005  0.00  0.00    +0.000 A 
ATOM      8 CL   UNL     1      -2.053  -0.063  -0.323  0.00  0.00    +0.000 Cl
ENDBRANCH   1   7
BRANCH   1   9
ATOM      9  S   UNL     1       4.511   1.900   0.470  0.00  0.00    +0.000 S 
BRANCH   9  10
ATOM     10  C   UNL     1       6.273   1.729   0.251  0.00  0.00    +0.000 A 
ATOM     11  C   UNL     1       6.943   2.679  -0.532  0.00  0.00    +0.000 A 
ATOM     12  C   UNL     1       8.325   2.596  -0.718  0.00  0.00    +0.000 A 
ATOM     13  C   UNL     1       9.035   1.567  -0.114  0.00  0.00    +0.000 A 
ATOM     14  C   UNL     1       8.391   0.624   0.679  0.00  0.00    +0.000 A 
ATOM     15  C   UNL     1       7.009   0.709   0.867  0.00  0.00    +0.000 A 
ATOM     16  F   UNL     1      10.360   1.485  -0.290  0.00  0.00    +0.000 F 
ENDBRANCH   9  10
ENDBRANCH   1   9
TORSDOF 3
