MODEL 1
REMARK VINA RESULT:      -4.4      0.000      0.000
REMARK  Name = *****
REMARK  3 active torsions:
REMARK  status: ('A' for Active; 'I' for Inactive)
REMARK    1  A    between atoms: C_2  and  C_3
REMARK    2  A    between atoms: C_2  and  S_9
REMARK    3  A    between atoms: S_9  and  C_12
REMARK                            x       y       z     vdW  Elec       q    Type
REMARK                         _______ _______ _______ _____ _____    ______ ____
ROOT
ATOM      1  S   UNL     1     101.553 126.860  84.001  0.00  0.00    +0.000 S 
ATOM      2  O   UNL     1     102.210 127.882  84.802  0.00  0.00    +0.000 OA
ATOM      3  O   UNL     1     101.411 125.521  84.546  0.00  0.00    +0.000 OA
ENDROOT
BRANCH   1   4
ATOM      4  C   UNL     1     102.516 126.725  82.503  0.00  0.00    +0.000 A 
ATOM      5  C   UNL     1     102.708 125.467  81.925  0.00  0.00    +0.000 A 
ATOM      6  C   UNL     1     103.450 125.360  80.749  0.00  0.00    +0.000 A 
ATOM      7  C   UNL     1     103.987 126.503  80.154  0.00  0.00    +0.000 A 
ATOM      8  C   UNL     1     103.777 127.759  80.728  0.00  0.00    +0.000 A 
ATOM      9  C   UNL     1     103.034 127.877  81.902  0.00  0.00    +0.000 A 
ENDBRANCH   1   4
BRANCH   1  11
ATOM     10  C   UNL     1      99.343 126.849  82.446  0.00  0.00    +0.000 C 
ATOM     11  C   UNL     1     100.016 127.452  83.437  0.00  0.00    +0.000 C 
BRANCH  11  12
ATOM     12  C   UNL     1      99.552 128.650  84.135  0.00  0.00    +0.000 A 
ATOM     13  C   UNL     1      98.836 128.531  85.335  0.00  0.00    +0.000 A 
ATOM     14  C   UNL     1      98.372 129.669  85.998  0.00  0.00    +0.000 A 
ATOM     15  C   UNL     1      98.606 130.933  85.462  0.00  0.00    +0.000 A 
ATOM     16  C   UNL     1      99.301 131.062  84.261  0.00  0.00    +0.000 A 
ATOM     17  C   UNL     1      99.766 129.926  83.597  0.00  0.00    +0.000 A 
ENDBRANCH  11  12
ENDBRANCH   1  11
TORSDOF 3
ENDMDL
