MODEL 1
REMARK VINA RESULT:      -4.9      0.000      0.000
REMARK  Name = *****
REMARK  5 active torsions:
REMARK  status: ('A' for Active; 'I' for Inactive)
REMARK    1  A    between atoms: C_1  and  C_2
REMARK    2  A    between atoms: C_5  and  C_8
REMARK    3  A    between atoms: N_9  and  C_10
REMARK    4  A    between atoms: C_11  and  C_17
REMARK    5  A    between atoms: C_13  and  C_16
REMARK                            x       y       z     vdW  Elec       q    Type
REMARK                         _______ _______ _______ _____ _____    ______ ____
ROOT
ATOM      1  C   UNL     1     102.804 126.264  82.765  0.00  0.00    +0.000 C 
ATOM      2  N   UNL     1     101.517 126.378  82.658  0.00  0.00    +0.000 NA
ENDROOT
BRANCH   2   3
ATOM      3  C   UNL     1     100.972 127.587  83.117  0.00  0.00    +0.000 A 
ATOM      4  C   UNL     1      99.592 127.842  83.031  0.00  0.00    +0.000 A 
ATOM      5  C   UNL     1      99.088 129.067  83.500  0.00  0.00    +0.000 A 
ATOM      6  C   UNL     1      99.933 130.022  84.080  0.00  0.00    +0.000 A 
ATOM      7  C   UNL     1     101.302 129.753  84.169  0.00  0.00    +0.000 A 
ATOM      8  C   UNL     1     101.812 128.542  83.700  0.00  0.00    +0.000 A 
ATOM      9  C   UNL     1      99.383 131.336  84.550  0.00  0.00    +0.000 C 
ATOM     10  C   UNL     1      98.662 126.827  82.429  0.00  0.00    +0.000 C 
ENDBRANCH   2   3
BRANCH   1  15
ATOM     11  C   UNL     1     105.596 121.491  81.095  0.00  0.00    +0.000 C 
ATOM     12  C   UNL     1     104.896 122.746  81.528  0.00  0.00    +0.000 A 
ATOM     13  C   UNL     1     104.509 123.702  80.580  0.00  0.00    +0.000 A 
ATOM     14  C   UNL     1     103.829 124.855  80.974  0.00  0.00    +0.000 A 
ATOM     15  C   UNL     1     103.521 125.054  82.322  0.00  0.00    +0.000 A 
ATOM     16  C   UNL     1     103.889 124.101  83.274  0.00  0.00    +0.000 A 
ATOM     17  C   UNL     1     104.570 122.948  82.875  0.00  0.00    +0.000 A 
ENDBRANCH   1  15
TORSDOF 2
ENDMDL
