MODEL 1
REMARK VINA RESULT:      -4.2      0.000      0.000
REMARK  Name = *****
REMARK  4 active torsions:
REMARK  status: ('A' for Active; 'I' for Inactive)
REMARK    1  A    between atoms: C_1  and  C_2
REMARK    2  A    between atoms: C_2  and  C_17
REMARK    3  A    between atoms: C_6  and  C_7
REMARK    4  A    between atoms: C_7  and  C_9
REMARK                            x       y       z     vdW  Elec       q    Type
REMARK                         _______ _______ _______ _____ _____    ______ ____
ROOT
ATOM      1  C   UNL     1      89.045  65.389  86.684  0.00  0.00    +0.000 C 
ATOM      2  C   UNL     1      89.711  66.102  85.495  0.00  0.00    +0.000 C 
ATOM      3  C   UNL     1      88.999  65.810  84.167  0.00  0.00    +0.000 C 
ATOM      4  S   UNL     1      87.458  66.775  84.070  0.00  0.00    +0.000 S 
ATOM      5  C   UNL     1      88.078  68.165  84.929  0.00  0.00    +0.000 C 
ATOM      6  C   UNL     1      87.370  69.304  84.911  0.00  0.00    +0.000 C 
ATOM      7  S   UNL     1      89.582  67.923  85.762  0.00  0.00    +0.000 S 
ENDROOT
BRANCH   6   8
ATOM      8  C   UNL     1      87.737  70.601  85.547  0.00  0.00    +0.000 C 
ATOM      9  O   UNL     1      88.676  71.303  85.197  0.00  0.00    +0.000 OA
BRANCH   8  10
ATOM     10  C   UNL     1      86.797  71.121  86.562  0.00  0.00    +0.000 A 
ATOM     11  C   UNL     1      85.646  71.767  86.086  0.00  0.00    +0.000 A 
ATOM     12  C   UNL     1      84.703  72.269  86.982  0.00  0.00    +0.000 A 
ATOM     13  C   UNL     1      84.910  72.140  88.355  0.00  0.00    +0.000 A 
ATOM     14  C   UNL     1      86.066  71.520  88.832  0.00  0.00    +0.000 A 
ATOM     15  C   UNL     1      87.017  71.012  87.939  0.00  0.00    +0.000 A 
ATOM     16 CL   UNL     1      88.446  70.311  88.608  0.00  0.00    +0.000 Cl
ENDBRANCH   8  10
ENDBRANCH   6   8
BRANCH   2  17
ATOM     17  C   UNL     1      91.211  65.759  85.414  0.00  0.00    +0.000 C 
ATOM     18 CL   UNL     1      91.518  64.004  85.258  0.00  0.00    +0.000 Cl
ENDBRANCH   2  17
TORSDOF 3
ENDMDL
