MODEL 1
REMARK VINA RESULT:      -4.2      0.000      0.000
REMARK  Name = *****
REMARK  2 active torsions:
REMARK  status: ('A' for Active; 'I' for Inactive)
REMARK    1  A    between atoms: C_4  and  S_8
REMARK    2  A    between atoms: S_8  and  C_9
REMARK                            x       y       z     vdW  Elec       q    Type
REMARK                         _______ _______ _______ _____ _____    ______ ____
ROOT
ATOM      1  S   UNL     1     102.304 128.027  83.062  0.00  0.00    +0.000 S 
ENDROOT
BRANCH   1   5
ATOM      2  C   UNL     1      99.076 129.022  83.008  0.00  0.00    +0.000 C 
ATOM      3  C   UNL     1      98.509 127.656  82.615  0.00  0.00    +0.000 C 
ATOM      4  C   UNL     1      99.805 126.829  82.462  0.00  0.00    +0.000 C 
ATOM      5  C   UNL     1     100.695 127.356  83.632  0.00  0.00    +0.000 C 
ATOM      6  C   UNL     1      99.804 128.474  84.242  0.00  0.00    +0.000 C 
ATOM      7  C   UNL     1      98.629 127.785  84.907  0.00  0.00    +0.000 C 
ATOM      8  C   UNL     1      97.860 127.284  83.928  0.00  0.00    +0.000 C 
ENDBRANCH   1   5
BRANCH   1   9
ATOM      9  C   UNL     1     102.999 126.590  82.263  0.00  0.00    +0.000 A 
ATOM     10  C   UNL     1     103.353 125.445  82.982  0.00  0.00    +0.000 A 
ATOM     11  C   UNL     1     103.901 124.349  82.317  0.00  0.00    +0.000 A 
ATOM     12  C   UNL     1     104.112 124.385  80.940  0.00  0.00    +0.000 A 
ATOM     13  C   UNL     1     103.777 125.531  80.221  0.00  0.00    +0.000 A 
ATOM     14  C   UNL     1     103.226 126.631  80.882  0.00  0.00    +0.000 A 
ATOM     15 CL   UNL     1     104.326 122.938  83.207  0.00  0.00    +0.000 Cl
ENDBRANCH   1   9
TORSDOF 2
ENDMDL
