MODEL 1
REMARK VINA RESULT:      -4.6      0.000      0.000
REMARK  Name = *****
REMARK  3 active torsions:
REMARK  status: ('A' for Active; 'I' for Inactive)
REMARK    1  A    between atoms: C_4  and  C_7
REMARK    2  A    between atoms: C_7  and  C_8
REMARK    3  A    between atoms: C_8  and  C_9
REMARK                            x       y       z     vdW  Elec       q    Type
REMARK                         _______ _______ _______ _____ _____    ______ ____
ROOT
ATOM      1  C   UNL     1      87.881  70.823  85.547  0.00  0.00    +0.000 C 
ATOM      2 CL   UNL     1      88.769  72.063  84.561  0.00  0.00    +0.000 Cl
ATOM      3 CL   UNL     1      87.319  69.560  84.350  0.00  0.00    +0.000 Cl
ENDROOT
BRANCH   1   4
ATOM      4  C   UNL     1      86.609  71.402  86.177  0.00  0.00    +0.000 A 
ATOM      5  C   UNL     1      85.571  71.925  85.378  0.00  0.00    +0.000 A 
ATOM      6  C   UNL     1      84.401  72.439  85.944  0.00  0.00    +0.000 A 
ATOM      7  C   UNL     1      84.230  72.428  87.324  0.00  0.00    +0.000 A 
ATOM      8  C   UNL     1      85.224  71.893  88.135  0.00  0.00    +0.000 A 
ATOM      9  C   UNL     1      86.396  71.379  87.570  0.00  0.00    +0.000 A 
ENDBRANCH   1   4
BRANCH   1  10
ATOM     10  C   UNL     1      88.899  70.123  86.490  0.00  0.00    +0.000 C 
BRANCH  10  14
ATOM     11  C   UNL     1      88.986  65.818  87.021  0.00  0.00    +0.000 A 
ATOM     12  C   UNL     1      87.911  66.539  87.532  0.00  0.00    +0.000 A 
ATOM     13  C   UNL     1      87.854  67.928  87.379  0.00  0.00    +0.000 A 
ATOM     14  C   UNL     1      88.873  68.618  86.711  0.00  0.00    +0.000 A 
ATOM     15  C   UNL     1      89.953  67.872  86.203  0.00  0.00    +0.000 A 
ATOM     16  C   UNL     1      90.009  66.485  86.355  0.00  0.00    +0.000 A 
ENDBRANCH  10  14
ENDBRANCH   1  10
TORSDOF 3
ENDMDL
