REMARK  Name = *****
REMARK  3 active torsions:
REMARK  status: ('A' for Active; 'I' for Inactive)
REMARK    1  A    between atoms: C_4  and  S_7
REMARK    2  A    between atoms: S_7  and  S_8
REMARK    3  A    between atoms: S_8  and  C_11
REMARK                            x       y       z     vdW  Elec       q    Type
REMARK                         _______ _______ _______ _____ _____    ______ ____
ROOT
ATOM      1  S   UNL     1      -4.035  -1.339  -0.525  0.00  0.00    +0.000 S 
ATOM      2  O   UNL     1      -3.626  -1.935  -1.782  0.00  0.00    +0.000 OA
ATOM      3  O   UNL     1      -3.822  -2.017   0.739  0.00  0.00    +0.000 OA
ENDROOT
BRANCH   1   4
ATOM      4  C   UNL     1      -5.777  -0.987  -0.651  0.00  0.00    +0.000 A 
ATOM      5  C   UNL     1      -6.348  -0.775  -1.912  0.00  0.00    +0.000 A 
ATOM      6  C   UNL     1      -7.717  -0.520  -2.011  0.00  0.00    +0.000 A 
ATOM      7  C   UNL     1      -8.504  -0.488  -0.859  0.00  0.00    +0.000 A 
ATOM      8  C   UNL     1      -7.935  -0.714   0.396  0.00  0.00    +0.000 A 
ATOM      9  C   UNL     1      -6.567  -0.970   0.504  0.00  0.00    +0.000 A 
ATOM     10 CL   UNL     1     -10.190  -0.173  -0.987  0.00  0.00    +0.000 Cl
ENDBRANCH   1   4
BRANCH   1  11
ATOM     11  S   UNL     1      -3.194   0.574  -0.398  0.00  0.00    +0.000 S 
BRANCH  11  15
ATOM     12  C   UNL     1       1.251  -0.375   0.156  0.00  0.00    +0.000 A 
ATOM     13  C   UNL     1       0.641  -0.609  -1.075  0.00  0.00    +0.000 A 
ATOM     14  C   UNL     1      -0.715  -0.325  -1.249  0.00  0.00    +0.000 A 
ATOM     15  C   UNL     1      -1.470   0.187  -0.188  0.00  0.00    +0.000 A 
ATOM     16  C   UNL     1      -0.850   0.427   1.042  0.00  0.00    +0.000 A 
ATOM     17  C   UNL     1       0.507   0.144   1.214  0.00  0.00    +0.000 A 
ENDBRANCH  11  15
ENDBRANCH   1  11
TORSDOF 3
