MODEL 1
REMARK VINA RESULT:      -3.9      0.000      0.000
REMARK  Name = *****
REMARK  3 active torsions:
REMARK  status: ('A' for Active; 'I' for Inactive)
REMARK    1  A    between atoms: C_7  and  S_8
REMARK    2  A    between atoms: S_8  and  C_10
REMARK    3  A    between atoms: C_10  and  C_11
REMARK                            x       y       z     vdW  Elec       q    Type
REMARK                         _______ _______ _______ _____ _____    ______ ____
ROOT
ATOM      1  S   UNL     1      96.066 116.599  82.958  0.00  0.00    +0.000 S 
ATOM      2  O   UNL     1      95.137 116.700  84.134  0.00  0.00    +0.000 OA
ENDROOT
BRANCH   1   9
ATOM      3  C   UNL     1      97.703 120.392  81.338  0.00  0.00    +0.000 C 
ATOM      4  C   UNL     1      98.386 119.013  81.130  0.00  0.00    +0.000 C 
ATOM      5  C   UNL     1      98.345 118.393  82.543  0.00  0.00    +0.000 C 
ATOM      6  C   UNL     1      98.576 119.633  83.412  0.00  0.00    +0.000 C 
ATOM      7  C   UNL     1      97.364 120.381  82.844  0.00  0.00    +0.000 C 
ATOM      8  C   UNL     1      96.301 119.328  83.069  0.00  0.00    +0.000 C 
ATOM      9  C   UNL     1      96.899 118.139  82.894  0.00  0.00    +0.000 C 
ENDBRANCH   1   9
BRANCH   1  10
ATOM     10  C   UNL     1      95.067 116.809  81.442  0.00  0.00    +0.000 C 
BRANCH  10  11
ATOM     11  C   UNL     1      95.882 116.590  80.194  0.00  0.00    +0.000 A 
ATOM     12  C   UNL     1      96.938 115.666  80.186  0.00  0.00    +0.000 A 
ATOM     13  C   UNL     1      97.698 115.465  79.034  0.00  0.00    +0.000 A 
ATOM     14  C   UNL     1      97.412 116.186  77.876  0.00  0.00    +0.000 A 
ATOM     15  C   UNL     1      96.369 117.111  77.871  0.00  0.00    +0.000 A 
ATOM     16  C   UNL     1      95.608 117.314  79.024  0.00  0.00    +0.000 A 
ENDBRANCH  10  11
ENDBRANCH   1  10
TORSDOF 3
ENDMDL
