MODEL 1
REMARK VINA RESULT:      -4.8      0.000      0.000
REMARK  Name = *****
REMARK  4 active torsions:
REMARK  status: ('A' for Active; 'I' for Inactive)
REMARK    1  A    between atoms: C_1  and  C_2
REMARK    2  A    between atoms: C_5  and  C_8
REMARK    3  A    between atoms: C_8  and  C_10
REMARK    4  A    between atoms: C_10  and  C_11
REMARK                            x       y       z     vdW  Elec       q    Type
REMARK                         _______ _______ _______ _____ _____    ______ ____
ROOT
ATOM      1  C   UNL     1      87.822  70.660  86.169  0.00  0.00    +0.000 C 
ATOM      2  O   UNL     1      88.201  70.690  84.997  0.00  0.00    +0.000 OA
ENDROOT
BRANCH   1   7
ATOM      3  C   UNL     1      82.849  73.198  87.791  0.00  0.00    +0.000 C 
ATOM      4  C   UNL     1      84.121  72.528  87.361  0.00  0.00    +0.000 A 
ATOM      5  C   UNL     1      85.027  72.043  88.308  0.00  0.00    +0.000 A 
ATOM      6  C   UNL     1      86.221  71.443  87.901  0.00  0.00    +0.000 A 
ATOM      7  C   UNL     1      86.536  71.327  86.541  0.00  0.00    +0.000 A 
ATOM      8  C   UNL     1      85.639  71.832  85.593  0.00  0.00    +0.000 A 
ATOM      9  C   UNL     1      84.443  72.432  86.002  0.00  0.00    +0.000 A 
ENDBRANCH   1   7
BRANCH   1  10
ATOM     10  C   UNL     1      88.663  69.980  87.235  0.00  0.00    +0.000 C 
BRANCH  10  11
ATOM     11  C   UNL     1      88.884  68.499  87.001  0.00  0.00    +0.000 A 
ATOM     12  C   UNL     1      87.954  67.522  87.400  0.00  0.00    +0.000 A 
ATOM     13  C   UNL     1      88.184  66.166  87.147  0.00  0.00    +0.000 A 
ATOM     14  C   UNL     1      89.339  65.772  86.480  0.00  0.00    +0.000 A 
ATOM     15  C   UNL     1      90.261  66.721  86.051  0.00  0.00    +0.000 A 
ATOM     16  C   UNL     1      90.031  68.075  86.301  0.00  0.00    +0.000 A 
ATOM     17 CL   UNL     1      89.623  64.103  86.172  0.00  0.00    +0.000 Cl
ATOM     18 CL   UNL     1      86.486  67.931  88.215  0.00  0.00    +0.000 Cl
ENDBRANCH  10  11
ENDBRANCH   1  10
TORSDOF 3
ENDMDL
