MODEL 1
REMARK VINA RESULT:      -3.9      0.000      0.000
REMARK  Name = *****
REMARK  4 active torsions:
REMARK  status: ('A' for Active; 'I' for Inactive)
REMARK    1  A    between atoms: C_1  and  C_2
REMARK    2  A    between atoms: C_7  and  S_8
REMARK    3  A    between atoms: S_8  and  S_10
REMARK    4  A    between atoms: S_10  and  C_11
REMARK                            x       y       z     vdW  Elec       q    Type
REMARK                         _______ _______ _______ _____ _____    ______ ____
ROOT
ATOM      1  S   UNL     1      86.601  65.167  87.722  0.00  0.00    +0.000 S 
ATOM      2  O   UNL     1      87.735  65.676  86.884  0.00  0.00    +0.000 OA
ENDROOT
BRANCH   1   9
ATOM      3  C   UNL     1      85.207  65.524  90.680  0.00  0.00    +0.000 C 
ATOM      4  C   UNL     1      86.599  64.960  90.585  0.00  0.00    +0.000 A 
ATOM      5  C   UNL     1      87.241  64.588  91.782  0.00  0.00    +0.000 A 
ATOM      6  C   UNL     1      88.528  64.051  91.777  0.00  0.00    +0.000 A 
ATOM      7  C   UNL     1      89.197  63.869  90.573  0.00  0.00    +0.000 A 
ATOM      8  C   UNL     1      88.576  64.223  89.376  0.00  0.00    +0.000 A 
ATOM      9  C   UNL     1      87.277  64.768  89.364  0.00  0.00    +0.000 A 
ENDBRANCH   1   9
BRANCH   1  10
ATOM     10  S   UNL     1      86.410  63.300  86.949  0.00  0.00    +0.000 S 
BRANCH  10  11
ATOM     11  C   UNL     1      85.517  62.457  88.241  0.00  0.00    +0.000 A 
ATOM     12  C   UNL     1      86.144  61.508  89.056  0.00  0.00    +0.000 A 
ATOM     13  C   UNL     1      85.431  60.869  90.073  0.00  0.00    +0.000 A 
ATOM     14  C   UNL     1      84.090  61.182  90.287  0.00  0.00    +0.000 A 
ATOM     15  C   UNL     1      83.461  62.135  89.488  0.00  0.00    +0.000 A 
ATOM     16  C   UNL     1      84.174  62.774  88.470  0.00  0.00    +0.000 A 
ENDBRANCH  10  11
ENDBRANCH   1  10
TORSDOF 3
ENDMDL
