MODEL 1
REMARK VINA RESULT:      -5.2      0.000      0.000
REMARK  Name = *****
REMARK  3 active torsions:
REMARK  status: ('A' for Active; 'I' for Inactive)
REMARK    1  A    between atoms: C_4  and  C_7
REMARK    2  A    between atoms: C_7  and  C_10
REMARK    3  A    between atoms: C_10  and  C_12
REMARK                            x       y       z     vdW  Elec       q    Type
REMARK                         _______ _______ _______ _____ _____    ______ ____
ROOT
ATOM      1  C   UNL     1     100.403 127.497  83.199  0.00  0.00    +0.000 C 
ATOM      2  C   UNL     1      99.359 127.036  82.570  0.00  0.00    +0.000 C 
ATOM      3  O   UNL     1      98.408 126.623  82.014  0.00  0.00    +0.000 OA
ENDROOT
BRANCH   1   7
ATOM      4  C   UNL     1     100.560 131.609  84.492  0.00  0.00    +0.000 A 
ATOM      5  C   UNL     1      99.422 131.113  83.865  0.00  0.00    +0.000 A 
ATOM      6  C   UNL     1      99.371 129.778  83.452  0.00  0.00    +0.000 A 
ATOM      7  C   UNL     1     100.456 128.909  83.661  0.00  0.00    +0.000 A 
ATOM      8  C   UNL     1     101.599 129.435  84.296  0.00  0.00    +0.000 A 
ATOM      9  C   UNL     1     101.648 130.770  84.708  0.00  0.00    +0.000 A 
ENDBRANCH   1   7
BRANCH   1  10
ATOM     10  C   UNL     1     101.585 126.588  83.292  0.00  0.00    +0.000 C 
ATOM     11  O   UNL     1     101.789 125.906  84.294  0.00  0.00    +0.000 OA
BRANCH  10  12
ATOM     12  C   UNL     1     102.542 126.505  82.155  0.00  0.00    +0.000 A 
ATOM     13  C   UNL     1     102.895 125.235  81.681  0.00  0.00    +0.000 A 
ATOM     14  C   UNL     1     103.777 125.107  80.607  0.00  0.00    +0.000 A 
ATOM     15  C   UNL     1     104.299 126.248  79.997  0.00  0.00    +0.000 A 
ATOM     16  C   UNL     1     103.934 127.514  80.451  0.00  0.00    +0.000 A 
ATOM     17  C   UNL     1     103.052 127.648  81.525  0.00  0.00    +0.000 A 
ENDBRANCH  10  12
ENDBRANCH   1  10
TORSDOF 3
ENDMDL
