REMARK  Name = *****
REMARK  5 active torsions:
REMARK  status: ('A' for Active; 'I' for Inactive)
REMARK    1  A    between atoms: C_1  and  C_2
REMARK    2  A    between atoms: C_4  and  S_10
REMARK    3  A    between atoms: S_10  and  C_11
REMARK    4  A    between atoms: C_11  and  C_12
REMARK    5  A    between atoms: C_15  and  C_17
REMARK                            x       y       z     vdW  Elec       q    Type
REMARK                         _______ _______ _______ _____ _____    ______ ____
ROOT
ATOM      1  C   UNL     1       2.431   1.710   0.518  0.00  0.00    +0.000 C 
ATOM      2  C   UNL     1       1.089   1.104   0.218  0.00  0.00    +0.000 A 
ATOM      3  C   UNL     1      -0.057   1.917   0.246  0.00  0.00    +0.000 A 
ATOM      4  C   UNL     1      -1.334   1.392  -0.016  0.00  0.00    +0.000 A 
ATOM      5  C   UNL     1      -1.452   0.031  -0.336  0.00  0.00    +0.000 A 
ATOM      6  C   UNL     1      -0.321  -0.788  -0.363  0.00  0.00    +0.000 A 
ATOM      7  C   UNL     1       0.939  -0.256  -0.084  0.00  0.00    +0.000 A 
ATOM      8 CL   UNL     1       2.296  -1.324  -0.134  0.00  0.00    +0.000 Cl
ATOM      9 CL   UNL     1      -2.968  -0.703  -0.735  0.00  0.00    +0.000 Cl
ENDROOT
BRANCH   4  10
ATOM     10  S   UNL     1      -2.713   2.536   0.059  0.00  0.00    +0.000 S 
BRANCH  10  11
ATOM     11  C   UNL     1      -3.472   2.007   1.638  0.00  0.00    +0.000 C 
BRANCH  11  12
ATOM     12  C   UNL     1      -2.600   2.297   2.809  0.00  0.00    +0.000 A 
ATOM     13  N   UNL     1      -1.950   1.306   3.435  0.00  0.00    +0.000 NA
ATOM     14  O   UNL     1      -1.244   1.906   4.461  0.00  0.00    +0.000 OA
ATOM     15  C   UNL     1      -1.478   3.244   4.451  0.00  0.00    +0.000 A 
ATOM     16  C   UNL     1      -2.335   3.545   3.422  0.00  0.00    +0.000 A 
ATOM     17  C   UNL     1      -0.801   4.043   5.488  0.00  0.00    +0.000 C 
ENDBRANCH  11  12
ENDBRANCH  10  11
ENDBRANCH   4  10
TORSDOF 3
