REMARK  Name = *****
REMARK  5 active torsions:
REMARK  status: ('A' for Active; 'I' for Inactive)
REMARK    1  A    between atoms: C_4  and  C_7
REMARK    2  A    between atoms: C_7  and  C_8
REMARK    3  A    between atoms: C_7  and  C_11
REMARK    4  A    between atoms: C_8  and  C_9
REMARK    5  A    between atoms: C_11  and  C_13
REMARK                            x       y       z     vdW  Elec       q    Type
REMARK                         _______ _______ _______ _____ _____    ______ ____
ROOT
ATOM      1  C   UNL     1      -2.816   0.309  -0.275  0.00  0.00    +0.000 C 
ENDROOT
BRANCH   1   5
ATOM      2  C   UNL     1      -3.233   2.832  -3.772  0.00  0.00    +0.000 A 
ATOM      3  C   UNL     1      -3.468   1.463  -3.880  0.00  0.00    +0.000 A 
ATOM      4  C   UNL     1      -3.340   0.638  -2.761  0.00  0.00    +0.000 A 
ATOM      5  C   UNL     1      -2.984   1.174  -1.514  0.00  0.00    +0.000 A 
ATOM      6  C   UNL     1      -2.742   2.556  -1.423  0.00  0.00    +0.000 A 
ATOM      7  C   UNL     1      -2.867   3.378  -2.544  0.00  0.00    +0.000 A 
ENDBRANCH   1   5
BRANCH   1   8
ATOM      8  C   UNL     1      -3.657  -0.972  -0.279  0.00  0.00    +0.000 C 
ATOM      9  O   UNL     1      -3.176  -2.064  -0.583  0.00  0.00    +0.000 OA
BRANCH   8  10
ATOM     10  C   UNL     1      -5.106  -0.912   0.097  0.00  0.00    +0.000 A 
ATOM     11  C   UNL     1      -5.825   0.288   0.174  0.00  0.00    +0.000 A 
ATOM     12  C   UNL     1      -7.176   0.276   0.534  0.00  0.00    +0.000 A 
ATOM     13  C   UNL     1      -7.817  -0.929   0.818  0.00  0.00    +0.000 A 
ATOM     14  C   UNL     1      -7.112  -2.127   0.738  0.00  0.00    +0.000 A 
ATOM     15  C   UNL     1      -5.764  -2.119   0.377  0.00  0.00    +0.000 A 
ENDBRANCH   8  10
ENDBRANCH   1   8
BRANCH   1  16
ATOM     16  C   UNL     1      -1.330   0.012   0.037  0.00  0.00    +0.000 C 
BRANCH  16  17
ATOM     17  C   UNL     1      -0.531  -0.604  -1.110  0.00  0.00    +0.000 C 
ATOM     18 CL   UNL     1       1.155  -0.881  -0.590  0.00  0.00    +0.000 Cl
ENDBRANCH  16  17
ENDBRANCH   1  16
TORSDOF 5
