REMARK  Name = *****
REMARK  2 active torsions:
REMARK  status: ('A' for Active; 'I' for Inactive)
REMARK    1  A    between atoms: C_6  and  C_8
REMARK    2  A    between atoms: C_9  and  C_10
REMARK                            x       y       z     vdW  Elec       q    Type
REMARK                         _______ _______ _______ _____ _____    ______ ____
ROOT
ATOM      1  C   UNL     1       2.159  -1.364  -0.370  0.00  0.00    +0.000 C 
ATOM      2  C   UNL     1       3.410  -0.902  -0.512  0.00  0.00    +0.000 C 
ENDROOT
BRANCH   1   8
ATOM      3  C   UNL     1      -0.308   1.259   0.009  0.00  0.00    +0.000 C 
ATOM      4  C   UNL     1      -1.033  -0.037  -0.066  0.00  0.00    +0.000 C 
ATOM      5  C   UNL     1      -2.352  -0.259  -0.016  0.00  0.00    +0.000 C 
ATOM      6  I   UNL     1      -3.790   1.175   0.187  0.00  0.00    +0.000 I 
ATOM      7  O   UNL     1      -0.145  -1.091  -0.208  0.00  0.00    +0.000 OA
ATOM      8  C   UNL     1       1.041  -0.419  -0.221  0.00  0.00    +0.000 C 
ATOM      9  N   UNL     1       1.096   0.867  -0.110  0.00  0.00    +0.000 NA
ENDBRANCH   1   8
BRANCH   2  10
ATOM     10  C   UNL     1       4.594  -1.761  -0.654  0.00  0.00    +0.000 A 
ATOM     11  C   UNL     1       4.566  -2.972  -1.358  0.00  0.00    +0.000 A 
ATOM     12  C   UNL     1       5.724  -3.743  -1.493  0.00  0.00    +0.000 A 
ATOM     13  C   UNL     1       6.924  -3.306  -0.937  0.00  0.00    +0.000 A 
ATOM     14  C   UNL     1       6.969  -2.095  -0.250  0.00  0.00    +0.000 A 
ATOM     15  C   UNL     1       5.811  -1.324  -0.114  0.00  0.00    +0.000 A 
ENDBRANCH   2  10
TORSDOF 2
