MODEL 1
REMARK VINA RESULT:      -4.7      0.000      0.000
REMARK  Name = *****
REMARK  5 active torsions:
REMARK  status: ('A' for Active; 'I' for Inactive)
REMARK    1  A    between atoms: C_1  and  C_2
REMARK    2  A    between atoms: C_6  and  N_8
REMARK    3  A    between atoms: N_8  and  N_9
REMARK    4  A    between atoms: N_9  and  C_11
REMARK    5  A    between atoms: C_15  and  C_17
REMARK                            x       y       z     vdW  Elec       q    Type
REMARK                         _______ _______ _______ _____ _____    ______ ____
ROOT
ATOM      1  N   UNL     1     102.894 125.251  83.441  0.00  0.00    +0.000 NA
ATOM      2  O   UNL     1     103.057 124.490  84.608  0.00  0.00    +0.000 OA
ENDROOT
BRANCH   1   8
ATOM      3  C   UNL     1     105.820 121.526  81.813  0.00  0.00    +0.000 C 
ATOM      4  C   UNL     1     105.447 122.999  81.647  0.00  0.00    +0.000 C 
ATOM      5  C   UNL     1     105.022 123.290  80.202  0.00  0.00    +0.000 C 
ATOM      6  C   UNL     1     104.610 124.747  80.019  0.00  0.00    +0.000 C 
ATOM      7  C   UNL     1     103.507 125.153  80.995  0.00  0.00    +0.000 C 
ATOM      8  C   UNL     1     103.915 124.867  82.455  0.00  0.00    +0.000 C 
ATOM      9  C   UNL     1     104.335 123.392  82.635  0.00  0.00    +0.000 C 
ENDBRANCH   1   8
BRANCH   1  10
ATOM     10  N   UNL     1     102.482 126.644  83.624  0.00  0.00    +0.000 NA
ATOM     11  O   UNL     1     103.338 127.520  83.637  0.00  0.00    +0.000 OA
BRANCH  10  12
ATOM     12  C   UNL     1     101.049 127.045  83.729  0.00  0.00    +0.000 C 
ATOM     13  C   UNL     1     100.303 126.526  82.499  0.00  0.00    +0.000 C 
ATOM     14  C   UNL     1      98.857 127.016  82.501  0.00  0.00    +0.000 C 
ATOM     15  C   UNL     1      98.781 128.540  82.608  0.00  0.00    +0.000 C 
ATOM     16  C   UNL     1      99.544 129.067  83.833  0.00  0.00    +0.000 C 
ATOM     17  C   UNL     1     100.997 128.570  83.831  0.00  0.00    +0.000 C 
ATOM     18  C   UNL     1      99.496 130.594  83.881  0.00  0.00    +0.000 C 
ENDBRANCH  10  12
ENDBRANCH   1  10
TORSDOF 3
ENDMDL
