REMARK  Name = *****
REMARK  4 active torsions:
REMARK  status: ('A' for Active; 'I' for Inactive)
REMARK    1  A    between atoms: C_2  and  C_3
REMARK    2  A    between atoms: C_8  and  C_9
REMARK    3  A    between atoms: C_9  and  S_10
REMARK    4  A    between atoms: S_10  and  C_11
REMARK                            x       y       z     vdW  Elec       q    Type
REMARK                         _______ _______ _______ _____ _____    ______ ____
ROOT
ATOM      1  C   UNL     1       0.775   0.591  -1.016  0.00  0.00    +0.000 A 
ATOM      2  C   UNL     1       1.377  -0.668  -0.882  0.00  0.00    +0.000 A 
ATOM      3  C   UNL     1       1.219  -1.407   0.291  0.00  0.00    +0.000 A 
ATOM      4  C   UNL     1       0.456  -0.895   1.335  0.00  0.00    +0.000 A 
ATOM      5  C   UNL     1      -0.147   0.357   1.210  0.00  0.00    +0.000 A 
ATOM      6  C   UNL     1       0.010   1.122   0.038  0.00  0.00    +0.000 A 
ENDROOT
BRANCH   1   8
ATOM      7  C   UNL     1       1.122   1.892  -3.281  0.00  0.00    +0.000 C 
ATOM      8  C   UNL     1       0.964   1.301  -2.248  0.00  0.00    +0.000 C 
ENDBRANCH   1   8
BRANCH   6   9
ATOM      9  C   UNL     1      -0.672   2.467  -0.053  0.00  0.00    +0.000 C 
BRANCH   9  10
ATOM     10  S   UNL     1      -2.366   2.316  -0.714  0.00  0.00    +0.000 S 
BRANCH  10  11
ATOM     11  C   UNL     1      -2.783   4.043  -0.843  0.00  0.00    +0.000 A 
ATOM     12  C   UNL     1      -3.036   4.595  -2.102  0.00  0.00    +0.000 A 
ATOM     13  C   UNL     1      -3.371   5.945  -2.226  0.00  0.00    +0.000 A 
ATOM     14  C   UNL     1      -3.463   6.748  -1.090  0.00  0.00    +0.000 A 
ATOM     15  C   UNL     1      -3.225   6.201   0.170  0.00  0.00    +0.000 A 
ATOM     16  C   UNL     1      -2.890   4.851   0.294  0.00  0.00    +0.000 A 
ENDBRANCH  10  11
ENDBRANCH   9  10
ENDBRANCH   6   9
TORSDOF 4
