MODEL 1
REMARK VINA RESULT:      -4.2      0.000      0.000
REMARK  Name = *****
REMARK  5 active torsions:
REMARK  status: ('A' for Active; 'I' for Inactive)
REMARK    1  A    between atoms: C_1  and  O_2
REMARK    2  A    between atoms: O_2  and  C_3
REMARK    3  A    between atoms: C_8  and  N_9
REMARK    4  A    between atoms: N_9  and  S_10
REMARK    5  A    between atoms: S_10  and  C_11
REMARK                            x       y       z     vdW  Elec       q    Type
REMARK                         _______ _______ _______ _____ _____    ______ ____
ROOT
ATOM      1  N   UNL     1     102.853 125.520  83.368  0.00  0.00    +0.000 N 
ATOM      2  H   UNL     1     102.334 125.010  84.031  0.00  0.00    +0.000 HD
ENDROOT
BRANCH   1   8
ATOM      3  C   UNL     1     104.121 123.576  82.619  0.00  0.00    +0.000 A 
ATOM      4  C   UNL     1     104.845 122.892  81.636  0.00  0.00    +0.000 A 
ATOM      5  C   UNL     1     105.000 123.448  80.365  0.00  0.00    +0.000 A 
ATOM      6  C   UNL     1     104.444 124.691  80.072  0.00  0.00    +0.000 A 
ATOM      7  C   UNL     1     103.720 125.379  81.048  0.00  0.00    +0.000 A 
ATOM      8  C   UNL     1     103.528 124.827  82.323  0.00  0.00    +0.000 A 
BRANCH   3  10
ATOM      9  C   UNL     1     104.506 121.878  84.252  0.00  0.00    +0.000 C 
ATOM     10  O   UNL     1     103.908 123.120  83.901  0.00  0.00    +0.000 OA
ENDBRANCH   3  10
ENDBRANCH   1   8
BRANCH   1  11
ATOM     11  S   UNL     1     102.928 127.183  83.487  0.00  0.00    +0.000 S 
BRANCH  11  12
ATOM     12  C   UNL     1     101.203 127.582  83.241  0.00  0.00    +0.000 A 
ATOM     13  C   UNL     1     100.677 128.818  83.633  0.00  0.00    +0.000 A 
ATOM     14  C   UNL     1      99.329 129.114  83.416  0.00  0.00    +0.000 A 
ATOM     15  C   UNL     1      98.501 128.176  82.802  0.00  0.00    +0.000 A 
ATOM     16  C   UNL     1      99.018 126.945  82.402  0.00  0.00    +0.000 A 
ATOM     17  C   UNL     1     100.367 126.649  82.618  0.00  0.00    +0.000 A 
ENDBRANCH  11  12
ENDBRANCH   1  11
TORSDOF 4
ENDMDL
