REMARK  Name = *****
REMARK  4 active torsions:
REMARK  status: ('A' for Active; 'I' for Inactive)
REMARK    1  A    between atoms: C_1  and  C_2
REMARK    2  A    between atoms: C_5  and  C_8
REMARK    3  A    between atoms: C_8  and  N_9
REMARK    4  A    between atoms: N_9  and  C_10
REMARK                            x       y       z     vdW  Elec       q    Type
REMARK                         _______ _______ _______ _____ _____    ______ ____
ROOT
ATOM      1  N   UNL     1      -4.022   1.348   0.165  0.00  0.00    +0.000 N 
ATOM      2  O   UNL     1      -3.570   2.491   0.496  0.00  0.00    +0.000 OA
ENDROOT
BRANCH   1   3
ATOM      3  C   UNL     1      -5.464   1.169   0.053  0.00  0.00    +0.000 A 
ATOM      4  C   UNL     1      -6.106   0.111   0.710  0.00  0.00    +0.000 A 
ATOM      5  C   UNL     1      -7.492  -0.026   0.597  0.00  0.00    +0.000 A 
ATOM      6  C   UNL     1      -8.223   0.894  -0.157  0.00  0.00    +0.000 A 
ATOM      7  C   UNL     1      -7.584   1.957  -0.796  0.00  0.00    +0.000 A 
ATOM      8  C   UNL     1      -6.200   2.101  -0.688  0.00  0.00    +0.000 A 
ATOM      9 CL   UNL     1      -9.929   0.719  -0.292  0.00  0.00    +0.000 Cl
ENDBRANCH   1   3
BRANCH   1  10
ATOM     10  C   UNL     1      -3.264   0.319  -0.141  0.00  0.00    +0.000 C 
BRANCH  10  15
ATOM     11  C   UNL     1       2.499  -0.145  -0.068  0.00  0.00    +0.000 C 
ATOM     12  C   UNL     1       1.008   0.016  -0.089  0.00  0.00    +0.000 A 
ATOM     13  C   UNL     1       0.386   1.021   0.660  0.00  0.00    +0.000 A 
ATOM     14  C   UNL     1      -1.006   1.154   0.658  0.00  0.00    +0.000 A 
ATOM     15  C   UNL     1      -1.793   0.282  -0.095  0.00  0.00    +0.000 A 
ATOM     16  C   UNL     1      -1.177  -0.741  -0.824  0.00  0.00    +0.000 A 
ATOM     17  C   UNL     1       0.214  -0.873  -0.821  0.00  0.00    +0.000 A 
ENDBRANCH  10  15
ENDBRANCH   1  10
TORSDOF 3
