REMARK  Name = *****
REMARK  4 active torsions:
REMARK  status: ('A' for Active; 'I' for Inactive)
REMARK    1  A    between atoms: C_1  and  O_2
REMARK    2  A    between atoms: O_2  and  C_3
REMARK    3  A    between atoms: C_8  and  C_9
REMARK    4  A    between atoms: C_11  and  C_12
REMARK                            x       y       z     vdW  Elec       q    Type
REMARK                         _______ _______ _______ _____ _____    ______ ____
ROOT
ATOM      1  C   UNL     1       4.323  -1.575   0.954  0.00  0.00    +0.000 C 
ATOM      2  C   UNL     1       3.620  -2.474   1.941  0.00  0.00    +0.000 C 
ATOM      3  C   UNL     1       3.356  -0.992   1.976  0.00  0.00    +0.000 C 
ENDROOT
BRANCH   1   9
ATOM      4  C   UNL     1       3.638  -0.452  -1.255  0.00  0.00    +0.000 A 
ATOM      5  C   UNL     1       3.321  -0.536  -2.617  0.00  0.00    +0.000 A 
ATOM      6  C   UNL     1       3.301  -1.773  -3.263  0.00  0.00    +0.000 A 
ATOM      7  C   UNL     1       3.606  -2.929  -2.557  0.00  0.00    +0.000 A 
ATOM      8  C   UNL     1       3.930  -2.848  -1.202  0.00  0.00    +0.000 A 
ATOM      9  C   UNL     1       3.947  -1.618  -0.517  0.00  0.00    +0.000 A 
BRANCH   4  11
ATOM     10  C   UNL     1       3.074   1.861  -1.138  0.00  0.00    +0.000 C 
ATOM     11  O   UNL     1       3.708   0.729  -0.557  0.00  0.00    +0.000 OA
ENDBRANCH   4  11
ENDBRANCH   1   9
BRANCH   3  12
ATOM     12  C   UNL     1       3.881  -0.161   3.124  0.00  0.00    +0.000 A 
ATOM     13  C   UNL     1       4.721   0.943   2.904  0.00  0.00    +0.000 A 
ATOM     14  C   UNL     1       5.200   1.719   3.963  0.00  0.00    +0.000 A 
ATOM     15  C   UNL     1       4.839   1.409   5.271  0.00  0.00    +0.000 A 
ATOM     16  C   UNL     1       3.997   0.328   5.517  0.00  0.00    +0.000 A 
ATOM     17  C   UNL     1       3.523  -0.445   4.453  0.00  0.00    +0.000 A 
ENDBRANCH   3  12
TORSDOF 3
