MODEL 1
REMARK VINA RESULT:      -4.1      0.000      0.000
REMARK  Name = *****
REMARK  4 active torsions:
REMARK  status: ('A' for Active; 'I' for Inactive)
REMARK    1  A    between atoms: C_2  and  C_3
REMARK    2  A    between atoms: C_8  and  C_9
REMARK    3  A    between atoms: C_9  and  C_10
REMARK    4  A    between atoms: C_10  and  C_11
REMARK                            x       y       z     vdW  Elec       q    Type
REMARK                         _______ _______ _______ _____ _____    ______ ____
ROOT
ATOM      1  C   UNL     1      88.466  71.428  84.226  0.00  0.00    +0.000 A 
ATOM      2  C   UNL     1      88.785  72.751  83.877  0.00  0.00    +0.000 A 
ATOM      3  C   UNL     1      90.079  73.097  83.487  0.00  0.00    +0.000 A 
ATOM      4  C   UNL     1      91.072  72.124  83.437  0.00  0.00    +0.000 A 
ATOM      5  C   UNL     1      90.770  70.805  83.776  0.00  0.00    +0.000 A 
ATOM      6  C   UNL     1      89.469  70.438  84.165  0.00  0.00    +0.000 A 
ENDROOT
BRANCH   1   8
ATOM      7  C   UNL     1      86.523  71.566  85.739  0.00  0.00    +0.000 C 
ATOM      8  C   UNL     1      87.085  71.109  84.613  0.00  0.00    +0.000 C 
ENDBRANCH   1   8
BRANCH   6   9
ATOM      9  C   UNL     1      89.215  68.996  84.553  0.00  0.00    +0.000 C 
BRANCH   9  10
ATOM     10  C   UNL     1      89.859  68.649  85.899  0.00  0.00    +0.000 C 
BRANCH  10  11
ATOM     11  C   UNL     1      89.013  69.117  87.057  0.00  0.00    +0.000 A 
ATOM     12  C   UNL     1      87.848  68.425  87.413  0.00  0.00    +0.000 A 
ATOM     13  C   UNL     1      87.056  68.873  88.472  0.00  0.00    +0.000 A 
ATOM     14  C   UNL     1      87.418  70.018  89.179  0.00  0.00    +0.000 A 
ATOM     15  C   UNL     1      88.572  70.717  88.828  0.00  0.00    +0.000 A 
ATOM     16  C   UNL     1      89.365  70.271  87.771  0.00  0.00    +0.000 A 
ENDBRANCH  10  11
ENDBRANCH   9  10
ENDBRANCH   6   9
TORSDOF 4
ENDMDL
