MODEL 1
REMARK VINA RESULT:      -5.0      0.000      0.000
REMARK  Name = *****
REMARK  5 active torsions:
REMARK  status: ('A' for Active; 'I' for Inactive)
REMARK    1  A    between atoms: C_1  and  C_2
REMARK    2  A    between atoms: C_5  and  C_17
REMARK    3  A    between atoms: C_8  and  C_9
REMARK    4  A    between atoms: C_9  and  C_11
REMARK    5  A    between atoms: C_17  and  C_19
REMARK                            x       y       z     vdW  Elec       q    Type
REMARK                         _______ _______ _______ _____ _____    ______ ____
ROOT
ATOM      1  C   UNL     1     104.750 128.543  80.334  0.00  0.00    +0.000 C 
ATOM      2  C   UNL     1     105.114 127.400  81.290  0.00  0.00    +0.000 C 
ATOM      3  C   UNL     1     106.068 126.390  80.635  0.00  0.00    +0.000 C 
ATOM      4  C   UNL     1     105.374 125.505  79.601  0.00  0.00    +0.000 C 
ATOM      5  C   UNL     1     104.187 124.729  80.207  0.00  0.00    +0.000 C 
ATOM      6  C   UNL     1     103.201 125.735  80.859  0.00  0.00    +0.000 C 
ATOM      7  C   UNL     1     103.857 126.719  81.815  0.00  0.00    +0.000 C 
ATOM      8  C   UNL     1     103.416 127.010  83.056  0.00  0.00    +0.000 C 
ENDROOT
BRANCH   5   9
ATOM      9  C   UNL     1     104.644 123.543  81.071  0.00  0.00    +0.000 C 
ATOM     10  C   UNL     1     104.404 123.403  82.387  0.00  0.00    +0.000 C 
ATOM     11  C   UNL     1     105.353 122.430  80.337  0.00  0.00    +0.000 C 
ENDBRANCH   5   9
BRANCH   8  12
ATOM     12  C   UNL     1     102.165 126.484  83.675  0.00  0.00    +0.000 C 
ATOM     13  O   UNL     1     102.145 125.436  84.310  0.00  0.00    +0.000 OA
BRANCH  12  14
ATOM     14  C   UNL     1     100.907 127.239  83.423  0.00  0.00    +0.000 A 
ATOM     15  C   UNL     1     100.801 128.542  83.927  0.00  0.00    +0.000 A 
ATOM     16  C   UNL     1      99.644 129.290  83.706  0.00  0.00    +0.000 A 
ATOM     17  C   UNL     1      98.590 128.745  82.974  0.00  0.00    +0.000 A 
ATOM     18  C   UNL     1      98.694 127.455  82.456  0.00  0.00    +0.000 A 
ATOM     19  C   UNL     1      99.850 126.701  82.674  0.00  0.00    +0.000 A 
ENDBRANCH  12  14
ENDBRANCH   8  12
TORSDOF 3
ENDMDL
