MODEL 1
REMARK VINA RESULT:      -4.9      0.000      0.000
REMARK  Name = *****
REMARK  6 active torsions:
REMARK  status: ('A' for Active; 'I' for Inactive)
REMARK    1  A    between atoms: C_1  and  C_2
REMARK    2  A    between atoms: C_5  and  S_8
REMARK    3  A    between atoms: S_8  and  C_9
REMARK    4  A    between atoms: C_9  and  C_10
REMARK    5  A    between atoms: C_9  and  C_13
REMARK    6  A    between atoms: C_10  and  C_11
REMARK                            x       y       z     vdW  Elec       q    Type
REMARK                         _______ _______ _______ _____ _____    ______ ____
ROOT
ATOM      1  C   UNL     1      87.661  70.933  85.412  0.00  0.00    +0.000 C 
ENDROOT
BRANCH   1   2
ATOM      2  C   UNL     1      86.476  71.463  86.233  0.00  0.00    +0.000 A 
ATOM      3  C   UNL     1      86.389  71.383  87.634  0.00  0.00    +0.000 A 
ATOM      4  C   UNL     1      85.270  71.861  88.326  0.00  0.00    +0.000 A 
ATOM      5  C   UNL     1      84.198  72.409  87.632  0.00  0.00    +0.000 A 
ATOM      6  C   UNL     1      84.239  72.467  86.244  0.00  0.00    +0.000 A 
ATOM      7  C   UNL     1      85.358  71.992  85.555  0.00  0.00    +0.000 A 
ENDBRANCH   1   2
BRANCH   1   8
ATOM      8  S   UNL     1      89.170  70.467  86.397  0.00  0.00    +0.000 S 
BRANCH   8  13
ATOM      9  C   UNL     1      88.763  64.430  87.214  0.00  0.00    +0.000 C 
ATOM     10  C   UNL     1      88.860  65.918  87.052  0.00  0.00    +0.000 A 
ATOM     11  C   UNL     1      87.834  66.748  87.513  0.00  0.00    +0.000 A 
ATOM     12  C   UNL     1      87.903  68.134  87.331  0.00  0.00    +0.000 A 
ATOM     13  C   UNL     1      88.999  68.713  86.690  0.00  0.00    +0.000 A 
ATOM     14  C   UNL     1      90.007  67.876  86.198  0.00  0.00    +0.000 A 
ATOM     15  C   UNL     1      89.941  66.491  86.377  0.00  0.00    +0.000 A 
ENDBRANCH   8  13
ENDBRANCH   1   8
BRANCH   1  16
ATOM     16  C   UNL     1      87.994  71.782  84.173  0.00  0.00    +0.000 C 
BRANCH  16  17
ATOM     17  C   UNL     1      89.395  72.328  84.235  0.00  0.00    +0.000 C 
ATOM     18  O   UNL     1      89.672  73.488  83.942  0.00  0.00    +0.000 OA
ENDBRANCH  16  17
ENDBRANCH   1  16
TORSDOF 5
ENDMDL
