MODEL 1
REMARK VINA RESULT:      -4.7      0.000      0.000
REMARK  Name = *****
REMARK  4 active torsions:
REMARK  status: ('A' for Active; 'I' for Inactive)
REMARK    1  A    between atoms: C_1  and  C_2
REMARK    2  A    between atoms: C_3  and  C_5
REMARK    3  A    between atoms: C_10  and  C_11
REMARK    4  A    between atoms: C_12  and  C_13
REMARK                            x       y       z     vdW  Elec       q    Type
REMARK                         _______ _______ _______ _____ _____    ______ ____
ROOT
ATOM      1  C   UNL     1     101.388 128.278  83.272  0.00  0.00    +0.000 A 
ATOM      2  C   UNL     1     100.323 129.058  83.761  0.00  0.00    +0.000 A 
ATOM      3  C   UNL     1      98.991 128.690  83.558  0.00  0.00    +0.000 A 
ATOM      4  C   UNL     1      98.690 127.530  82.854  0.00  0.00    +0.000 A 
ATOM      5  C   UNL     1      99.721 126.739  82.352  0.00  0.00    +0.000 A 
ATOM      6  C   UNL     1     101.058 127.108  82.556  0.00  0.00    +0.000 A 
ENDROOT
BRANCH   1   9
ATOM      7  C   UNL     1     105.019 128.093  84.770  0.00  0.00    +0.000 C 
ATOM      8  C   UNL     1     103.543 128.258  84.752  0.00  0.00    +0.000 C 
ATOM      9  C   UNL     1     102.821 128.706  83.499  0.00  0.00    +0.000 C 
ATOM     10  O   UNL     1     103.095 129.604  84.595  0.00  0.00    +0.000 OA
ENDBRANCH   1   9
BRANCH   6  11
ATOM     11  C   UNL     1     102.087 126.268  82.015  0.00  0.00    +0.000 C 
ATOM     12  C   UNL     1     102.952 125.571  81.558  0.00  0.00    +0.000 C 
BRANCH  12  13
ATOM     13  C   UNL     1     103.984 124.745  81.011  0.00  0.00    +0.000 A 
ATOM     14  C   UNL     1     104.277 123.511  81.597  0.00  0.00    +0.000 A 
ATOM     15  C   UNL     1     105.285 122.707  81.064  0.00  0.00    +0.000 A 
ATOM     16  C   UNL     1     106.001 123.134  79.946  0.00  0.00    +0.000 A 
ATOM     17  C   UNL     1     105.711 124.366  79.360  0.00  0.00    +0.000 A 
ATOM     18  C   UNL     1     104.702 125.172  79.891  0.00  0.00    +0.000 A 
ENDBRANCH  12  13
ENDBRANCH   6  11
TORSDOF 3
ENDMDL
