MODEL 1
REMARK VINA RESULT:      -4.8      0.000      0.000
REMARK  Name = *****
REMARK  3 active torsions:
REMARK  status: ('A' for Active; 'I' for Inactive)
REMARK    1  A    between atoms: C_5  and  C_7
REMARK    2  A    between atoms: C_7  and  C_8
REMARK    3  A    between atoms: C_8  and  C_9
REMARK                            x       y       z     vdW  Elec       q    Type
REMARK                         _______ _______ _______ _____ _____    ______ ____
ROOT
ATOM      1  C   UNL     1     101.474 126.002  82.211  0.00  0.00    +0.000 C 
ENDROOT
BRANCH   1   6
ATOM      2  C   UNL     1     100.827 129.359  83.896  0.00  0.00    +0.000 A 
ATOM      3  C   UNL     1      99.445 129.481  83.755  0.00  0.00    +0.000 A 
ATOM      4  C   UNL     1      98.722 128.477  83.114  0.00  0.00    +0.000 A 
ATOM      5  C   UNL     1      99.388 127.361  82.615  0.00  0.00    +0.000 A 
ATOM      6  C   UNL     1     100.774 127.226  82.740  0.00  0.00    +0.000 A 
ATOM      7  C   UNL     1     101.491 128.237  83.393  0.00  0.00    +0.000 A 
ATOM      8  F   UNL     1      98.676 126.399  82.011  0.00  0.00    +0.000 F 
ENDBRANCH   1   6
BRANCH   1   9
ATOM      9  C   UNL     1     102.995 126.174  82.218  0.00  0.00    +0.000 C 
BRANCH   9  10
ATOM     10  C   UNL     1     103.704 124.850  82.107  0.00  0.00    +0.000 A 
ATOM     11  C   UNL     1     103.933 124.061  83.242  0.00  0.00    +0.000 A 
ATOM     12  C   UNL     1     104.576 122.826  83.125  0.00  0.00    +0.000 A 
ATOM     13  C   UNL     1     104.992 122.365  81.875  0.00  0.00    +0.000 A 
ATOM     14  C   UNL     1     104.762 123.139  80.740  0.00  0.00    +0.000 A 
ATOM     15  C   UNL     1     104.121 124.369  80.862  0.00  0.00    +0.000 A 
ATOM     16  F   UNL     1     103.897 125.094  79.757  0.00  0.00    +0.000 F 
ENDBRANCH   9  10
ENDBRANCH   1   9
TORSDOF 3
ENDMDL
