REMARK  Name = *****
REMARK  3 active torsions:
REMARK  status: ('A' for Active; 'I' for Inactive)
REMARK    1  A    between atoms: C_1  and  N_2
REMARK    2  A    between atoms: N_2  and  C_11
REMARK    3  A    between atoms: N_4  and  C_5
REMARK                            x       y       z     vdW  Elec       q    Type
REMARK                         _______ _______ _______ _____ _____    ______ ____
ROOT
ATOM      1  C   UNL     1       0.901   0.494   0.352  0.00  0.00    +0.000 C 
ATOM      2  N   UNL     1       2.306   0.104   0.241  0.00  0.00    +0.000 N 
ATOM      3  C   UNL     1       2.880  -0.625   1.265  0.00  0.00    +0.000 C 
ATOM      4  N   UNL     1       2.263  -1.138   2.283  0.00  0.00    +0.000 NA
ENDROOT
BRANCH   2   5
ATOM      5  C   UNL     1       3.055   0.663  -0.820  0.00  0.00    +0.000 A 
ATOM      6  C   UNL     1       2.728   1.904  -1.396  0.00  0.00    +0.000 A 
ATOM      7  C   UNL     1       3.487   2.440  -2.441  0.00  0.00    +0.000 A 
ATOM      8  C   UNL     1       4.588   1.756  -2.943  0.00  0.00    +0.000 A 
ATOM      9  C   UNL     1       4.932   0.526  -2.395  0.00  0.00    +0.000 A 
ATOM     10  C   UNL     1       4.174  -0.010  -1.348  0.00  0.00    +0.000 A 
ATOM     11 CL   UNL     1       3.055   3.967  -3.110  0.00  0.00    +0.000 Cl
ENDBRANCH   2   5
BRANCH   4  12
ATOM     12  C   UNL     1       3.068  -1.823   3.203  0.00  0.00    +0.000 A 
ATOM     13  C   UNL     1       3.747  -1.131   4.210  0.00  0.00    +0.000 A 
ATOM     14  C   UNL     1       4.539  -1.820   5.131  0.00  0.00    +0.000 A 
ATOM     15  C   UNL     1       4.646  -3.209   5.055  0.00  0.00    +0.000 A 
ATOM     16  C   UNL     1       3.958  -3.907   4.064  0.00  0.00    +0.000 A 
ATOM     17  C   UNL     1       3.168  -3.215   3.144  0.00  0.00    +0.000 A 
ENDBRANCH   4  12
TORSDOF 2
