MODEL 1
REMARK VINA RESULT:      -4.5      0.000      0.000
REMARK  Name = *****
REMARK  3 active torsions:
REMARK  status: ('A' for Active; 'I' for Inactive)
REMARK    1  A    between atoms: C_4  and  C_7
REMARK    2  A    between atoms: C_7  and  C_8
REMARK    3  A    between atoms: C_8  and  C_9
REMARK                            x       y       z     vdW  Elec       q    Type
REMARK                         _______ _______ _______ _____ _____    ______ ____
ROOT
ATOM      1  C   UNL     1      87.788  70.599  85.686  0.00  0.00    +0.000 C 
ATOM      2 BR   UNL     1      88.571  71.889  84.420  0.00  0.00    +0.000 Br
ENDROOT
BRANCH   1   3
ATOM      3  C   UNL     1      86.602  71.255  86.361  0.00  0.00    +0.000 A 
ATOM      4  C   UNL     1      86.465  71.294  87.759  0.00  0.00    +0.000 A 
ATOM      5  C   UNL     1      85.349  71.889  88.351  0.00  0.00    +0.000 A 
ATOM      6  C   UNL     1      84.353  72.450  87.556  0.00  0.00    +0.000 A 
ATOM      7  C   UNL     1      84.471  72.418  86.169  0.00  0.00    +0.000 A 
ATOM      8  C   UNL     1      85.587  71.825  85.575  0.00  0.00    +0.000 A 
ENDBRANCH   1   3
BRANCH   1   9
ATOM      9  C   UNL     1      88.889  70.101  86.632  0.00  0.00    +0.000 C 
BRANCH   9  13
ATOM     10  C   UNL     1      89.074  65.797  86.898  0.00  0.00    +0.000 A 
ATOM     11  C   UNL     1      87.972  66.481  87.407  0.00  0.00    +0.000 A 
ATOM     12  C   UNL     1      87.909  67.871  87.316  0.00  0.00    +0.000 A 
ATOM     13  C   UNL     1      88.948  68.591  86.708  0.00  0.00    +0.000 A 
ATOM     14  C   UNL     1      90.053  67.894  86.202  0.00  0.00    +0.000 A 
ATOM     15  C   UNL     1      90.114  66.503  86.296  0.00  0.00    +0.000 A 
ENDBRANCH   9  13
ENDBRANCH   1   9
TORSDOF 3
ENDMDL
