MODEL 1
REMARK VINA RESULT:      -4.7      0.000      0.000
REMARK  Name = *****
REMARK  6 active torsions:
REMARK  status: ('A' for Active; 'I' for Inactive)
REMARK    1  A    between atoms: C_1  and  C_2
REMARK    2  A    between atoms: C_5  and  C_8
REMARK    3  A    between atoms: C_8  and  S_9
REMARK    4  A    between atoms: C_8  and  N_11
REMARK    5  A    between atoms: N_11  and  C_12
REMARK    6  A    between atoms: N_11  and  C_13
REMARK                            x       y       z     vdW  Elec       q    Type
REMARK                         _______ _______ _______ _____ _____    ______ ____
ROOT
ATOM      1  C   UNL     1     101.565 126.439  83.478  0.00  0.00    +0.000 C 
ENDROOT
BRANCH   1   6
ATOM      2  C   UNL     1     105.418 125.119  79.339  0.00  0.00    +0.000 C 
ATOM      3  C   UNL     1     104.401 125.458  80.389  0.00  0.00    +0.000 A 
ATOM      4  C   UNL     1     103.716 126.678  80.346  0.00  0.00    +0.000 A 
ATOM      5  C   UNL     1     102.788 127.007  81.338  0.00  0.00    +0.000 A 
ATOM      6  C   UNL     1     102.541 126.121  82.393  0.00  0.00    +0.000 A 
ATOM      7  C   UNL     1     103.233 124.903  82.443  0.00  0.00    +0.000 A 
ATOM      8  C   UNL     1     104.162 124.579  81.451  0.00  0.00    +0.000 A 
ENDBRANCH   1   6
BRANCH   1   9
ATOM      9  S   UNL     1     101.787 125.816  84.994  0.00  0.00    +0.000 S 
ATOM     10  O   UNL     1     100.605 125.150  85.608  0.00  0.00    +0.000 OA
ENDBRANCH   1   9
BRANCH   1  11
ATOM     11  N   UNL     1     100.505 127.335  83.206  0.00  0.00    +0.000 N 
ATOM     12  C   UNL     1      99.338 126.893  82.430  0.00  0.00    +0.000 C 
BRANCH  11  13
ATOM     13  C   UNL     1     100.532 128.720  83.611  0.00  0.00    +0.000 A 
ATOM     14  C   UNL     1      99.397 129.537  83.486  0.00  0.00    +0.000 A 
ATOM     15  C   UNL     1      99.415 130.875  83.895  0.00  0.00    +0.000 A 
ATOM     16  C   UNL     1     100.565 131.421  84.450  0.00  0.00    +0.000 A 
ATOM     17  C   UNL     1     101.695 130.626  84.606  0.00  0.00    +0.000 A 
ATOM     18  C   UNL     1     101.676 129.287  84.198  0.00  0.00    +0.000 A 
ENDBRANCH  11  13
ENDBRANCH   1  11
TORSDOF 4
ENDMDL
