MODEL 1
REMARK VINA RESULT:      -4.5      0.000      0.000
REMARK  Name = *****
REMARK  3 active torsions:
REMARK  status: ('A' for Active; 'I' for Inactive)
REMARK    1  A    between atoms: C_4  and  O_7
REMARK    2  A    between atoms: O_7  and  N_8
REMARK    3  A    between atoms: C_9  and  C_10
REMARK                            x       y       z     vdW  Elec       q    Type
REMARK                         _______ _______ _______ _____ _____    ______ ____
ROOT
ATOM      1  N   UNL     1     102.332 125.390  83.516  0.00  0.00    +0.000 NA
ATOM      2  C   UNL     1     103.517 124.955  83.208  0.00  0.00    +0.000 C 
ENDROOT
BRANCH   2   3
ATOM      3  C   UNL     1     104.183 124.915  81.890  0.00  0.00    +0.000 A 
ATOM      4  C   UNL     1     104.675 126.068  81.270  0.00  0.00    +0.000 A 
ATOM      5  C   UNL     1     105.332 125.971  80.041  0.00  0.00    +0.000 A 
ATOM      6  C   UNL     1     105.508 124.723  79.445  0.00  0.00    +0.000 A 
ATOM      7  C   UNL     1     105.038 123.567  80.070  0.00  0.00    +0.000 A 
ATOM      8  C   UNL     1     104.382 123.662  81.299  0.00  0.00    +0.000 A 
ATOM      9 CL   UNL     1     106.318 124.606  77.932  0.00  0.00    +0.000 Cl
ENDBRANCH   2   3
BRANCH   1  10
ATOM     10  O   UNL     1     101.598 125.779  82.390  0.00  0.00    +0.000 OA
BRANCH  10  14
ATOM     11  C   UNL     1      99.158 129.023  83.352  0.00  0.00    +0.000 A 
ATOM     12  C   UNL     1      98.577 127.913  82.739  0.00  0.00    +0.000 A 
ATOM     13  C   UNL     1      99.363 126.807  82.401  0.00  0.00    +0.000 A 
ATOM     14  C   UNL     1     100.733 126.810  82.675  0.00  0.00    +0.000 A 
ATOM     15  C   UNL     1     101.309 127.927  83.288  0.00  0.00    +0.000 A 
ATOM     16  C   UNL     1     100.525 129.031  83.626  0.00  0.00    +0.000 A 
ENDBRANCH  10  14
ENDBRANCH   1  10
TORSDOF 3
ENDMDL
