MODEL 1
REMARK VINA RESULT:      -4.1      0.000      0.000
REMARK  Name = *****
REMARK  2 active torsions:
REMARK  status: ('A' for Active; 'I' for Inactive)
REMARK    1  A    between atoms: C_4  and  S_8
REMARK    2  A    between atoms: S_8  and  C_9
REMARK                            x       y       z     vdW  Elec       q    Type
REMARK                         _______ _______ _______ _____ _____    ______ ____
ROOT
ATOM      1  C   UNL     1     104.313 123.572  80.932  0.00  0.00    +0.000 C 
ATOM      2  C   UNL     1     104.681 124.733  80.004  0.00  0.00    +0.000 C 
ATOM      3  C   UNL     1     103.551 125.745  80.304  0.00  0.00    +0.000 C 
ATOM      4  C   UNL     1     103.251 125.490  81.813  0.00  0.00    +0.000 C 
ATOM      5  C   UNL     1     104.337 124.445  82.195  0.00  0.00    +0.000 C 
ATOM      6  C   UNL     1     105.724 125.032  82.029  0.00  0.00    +0.000 C 
ATOM      7  C   UNL     1     105.925 125.210  80.714  0.00  0.00    +0.000 C 
ENDROOT
BRANCH   4   8
ATOM      8  S   UNL     1     103.273 126.991  82.858  0.00  0.00    +0.000 S 
BRANCH   8   9
ATOM      9  C   UNL     1     101.534 127.385  82.881  0.00  0.00    +0.000 A 
ATOM     10  C   UNL     1     100.577 126.498  82.377  0.00  0.00    +0.000 A 
ATOM     11  C   UNL     1      99.220 126.829  82.413  0.00  0.00    +0.000 A 
ATOM     12  C   UNL     1      98.813 128.044  82.962  0.00  0.00    +0.000 A 
ATOM     13  C   UNL     1      99.760 128.926  83.479  0.00  0.00    +0.000 A 
ATOM     14  C   UNL     1     101.116 128.595  83.443  0.00  0.00    +0.000 A 
ENDBRANCH   8   9
ENDBRANCH   4   8
TORSDOF 2
ENDMDL
