MODEL 1
REMARK VINA RESULT:      -4.8      0.000      0.000
REMARK  Name = *****
REMARK  4 active torsions:
REMARK  status: ('A' for Active; 'I' for Inactive)
REMARK    1  A    between atoms: C_1  and  O_2
REMARK    2  A    between atoms: O_2  and  C_3
REMARK    3  A    between atoms: C_6  and  C_9
REMARK    4  A    between atoms: C_10  and  C_11
REMARK                            x       y       z     vdW  Elec       q    Type
REMARK                         _______ _______ _______ _____ _____    ______ ____
ROOT
ATOM      1  C   UNL     1     102.862 126.110  81.591  0.00  0.00    +0.000 C 
ATOM      2  C   UNL     1     101.784 125.934  82.373  0.00  0.00    +0.000 C 
ENDROOT
BRANCH   2   3
ATOM      3  C   UNL     1     100.859 127.013  82.749  0.00  0.00    +0.000 A 
ATOM      4  C   UNL     1     101.296 128.191  83.369  0.00  0.00    +0.000 A 
ATOM      5  C   UNL     1     100.383 129.200  83.680  0.00  0.00    +0.000 A 
ATOM      6  C   UNL     1      99.033 129.058  83.368  0.00  0.00    +0.000 A 
ATOM      7  C   UNL     1      98.592 127.898  82.736  0.00  0.00    +0.000 A 
ATOM      8  C   UNL     1      99.502 126.884  82.422  0.00  0.00    +0.000 A 
ATOM      9 CL   UNL     1     100.932 130.639  84.450  0.00  0.00    +0.000 Cl
ENDBRANCH   2   3
BRANCH   1  13
ATOM     10  C   UNL     1     105.628 122.970  80.643  0.00  0.00    +0.000 A 
ATOM     11  C   UNL     1     105.389 123.985  79.716  0.00  0.00    +0.000 A 
ATOM     12  C   UNL     1     104.483 125.011  80.012  0.00  0.00    +0.000 A 
ATOM     13  C   UNL     1     103.796 125.033  81.232  0.00  0.00    +0.000 A 
ATOM     14  C   UNL     1     104.052 124.022  82.163  0.00  0.00    +0.000 A 
ATOM     15  C   UNL     1     104.957 122.997  81.867  0.00  0.00    +0.000 A 
BRANCH  10  17
ATOM     16  C   UNL     1     107.401 121.665  81.536  0.00  0.00    +0.000 C 
ATOM     17  O   UNL     1     106.482 121.915  80.481  0.00  0.00    +0.000 OA
ENDBRANCH  10  17
ENDBRANCH   1  13
TORSDOF 3
ENDMDL
