REMARK  Name = *****
REMARK  3 active torsions:
REMARK  status: ('A' for Active; 'I' for Inactive)
REMARK    1  A    between atoms: C_1  and  C_2
REMARK    2  A    between atoms: C_5  and  C_8
REMARK    3  A    between atoms: C_15  and  C_17
REMARK                            x       y       z     vdW  Elec       q    Type
REMARK                         _______ _______ _______ _____ _____    ______ ____
ROOT
ATOM      1  C   UNL     1      -3.465   0.740  -0.237  0.00  0.00    +0.000 A 
ATOM      2  N   UNL     1      -4.287   1.341  -1.081  0.00  0.00    +0.000 NA
ATOM      3  C   UNL     1      -5.531   1.102  -0.557  0.00  0.00    +0.000 A 
ATOM      4  C   UNL     1      -5.415   0.355   0.602  0.00  0.00    +0.000 A 
ATOM      5  O   UNL     1      -4.091   0.117   0.816  0.00  0.00    +0.000 OA
ATOM      6  C   UNL     1      -6.483  -0.061   1.383  0.00  0.00    +0.000 A 
ATOM      7  C   UNL     1      -7.751   0.326   0.927  0.00  0.00    +0.000 A 
ATOM      8  C   UNL     1      -7.923   1.088  -0.250  0.00  0.00    +0.000 A 
ATOM      9  C   UNL     1      -6.803   1.484  -1.006  0.00  0.00    +0.000 A 
ENDROOT
BRANCH   1  14
ATOM     10  C   UNL     1       2.312   0.474  -0.465  0.00  0.00    +0.000 C 
ATOM     11  C   UNL     1       0.813   0.515  -0.416  0.00  0.00    +0.000 A 
ATOM     12  C   UNL     1       0.089   1.213  -1.388  0.00  0.00    +0.000 A 
ATOM     13  C   UNL     1      -1.306   1.277  -1.321  0.00  0.00    +0.000 A 
ATOM     14  C   UNL     1      -2.007   0.655  -0.278  0.00  0.00    +0.000 A 
ATOM     15  C   UNL     1      -1.273  -0.030   0.701  0.00  0.00    +0.000 A 
ATOM     16  C   UNL     1       0.123  -0.095   0.636  0.00  0.00    +0.000 A 
ENDBRANCH   1  14
BRANCH   8  17
ATOM     17  C   UNL     1      -9.317   1.459  -0.666  0.00  0.00    +0.000 C 
ATOM     18  O   UNL     1     -10.237   1.074   0.053  0.00  0.00    +0.000 OA
ATOM     19 CL   UNL     1      -9.575   2.400  -2.120  0.00  0.00    +0.000 Cl
ENDBRANCH   8  17
TORSDOF 2
