MODEL 1
REMARK VINA RESULT:      -4.8      0.000      0.000
REMARK  Name = *****
REMARK  6 active torsions:
REMARK  status: ('A' for Active; 'I' for Inactive)
REMARK    1  A    between atoms: C_1  and  C_2
REMARK    2  A    between atoms: C_4  and  C_8
REMARK    3  A    between atoms: C_8  and  O_9
REMARK    4  A    between atoms: O_9  and  C_10
REMARK    5  A    between atoms: C_10  and  C_12
REMARK    6  A    between atoms: C_17  and  C_18
REMARK                            x       y       z     vdW  Elec       q    Type
REMARK                         _______ _______ _______ _____ _____    ______ ____
ROOT
ATOM      1  O   UNL     1     100.315 126.782  83.276  0.00  0.00    +0.000 OA
ENDROOT
BRANCH   1   2
ATOM      2  C   UNL     1      99.175 127.433  82.936  0.00  0.00    +0.000 C 
ATOM      3  O   UNL     1      98.409 127.087  82.053  0.00  0.00    +0.000 OA
BRANCH   2   4
ATOM      4  C   UNL     1      98.992 128.646  83.805  0.00  0.00    +0.000 A 
ATOM      5  C   UNL     1      99.502 129.891  83.384  0.00  0.00    +0.000 A 
ATOM      6  C   UNL     1      99.354 131.035  84.170  0.00  0.00    +0.000 A 
ATOM      7  C   UNL     1      98.695 130.955  85.390  0.00  0.00    +0.000 A 
ATOM      8  C   UNL     1      98.183 129.734  85.825  0.00  0.00    +0.000 A 
ATOM      9  C   UNL     1      98.319 128.569  85.045  0.00  0.00    +0.000 A 
ATOM     10  C   UNL     1      97.738 127.289  85.584  0.00  0.00    +0.000 C 
ENDBRANCH   2   4
ENDBRANCH   1   2
BRANCH   1  11
ATOM     11  C   UNL     1     101.120 126.293  82.198  0.00  0.00    +0.000 C 
BRANCH  11  15
ATOM     12  C   UNL     1     104.153 129.883  84.035  0.00  0.00    +0.000 C 
ATOM     13  C   UNL     1     103.781 128.925  82.942  0.00  0.00    +0.000 A 
ATOM     14  C   UNL     1     102.665 128.088  83.068  0.00  0.00    +0.000 A 
ATOM     15  C   UNL     1     102.312 127.199  82.040  0.00  0.00    +0.000 A 
ATOM     16  C   UNL     1     103.105 127.143  80.887  0.00  0.00    +0.000 A 
ATOM     17  C   UNL     1     104.216 127.975  80.754  0.00  0.00    +0.000 A 
ATOM     18  C   UNL     1     104.549 128.864  81.775  0.00  0.00    +0.000 A 
ENDBRANCH  11  15
ENDBRANCH   1  11
TORSDOF 4
ENDMDL
