MODEL 1
REMARK VINA RESULT:      -4.4      0.000      0.000
REMARK  Name = *****
REMARK  8 active torsions:
REMARK  status: ('A' for Active; 'I' for Inactive)
REMARK    1  A    between atoms: C_1  and  C_2
REMARK    2  A    between atoms: C_4  and  C_20
REMARK    3  A    between atoms: C_5  and  O_9
REMARK    4  A    between atoms: C_6  and  C_8
REMARK    5  A    between atoms: O_9  and  C_10
REMARK    6  A    between atoms: C_10  and  C_12
REMARK    7  A    between atoms: C_12  and  N_13
REMARK    8  A    between atoms: C_14  and  C_19
REMARK                            x       y       z     vdW  Elec       q    Type
REMARK                         _______ _______ _______ _____ _____    ______ ____
ROOT
ATOM      1  O   UNL     1      88.593  70.001  86.098  0.00  0.00    +0.000 OA
ENDROOT
BRANCH   1   6
ATOM      2  C   UNL     1      83.834  72.740  87.584  0.00  0.00    +0.000 C 
ATOM      3  C   UNL     1      85.079  71.999  87.191  0.00  0.00    +0.000 A 
ATOM      4  C   UNL     1      85.842  71.331  88.158  0.00  0.00    +0.000 A 
ATOM      5  C   UNL     1      87.021  70.660  87.809  0.00  0.00    +0.000 A 
ATOM      6  C   UNL     1      87.408  70.653  86.460  0.00  0.00    +0.000 A 
ATOM      7  C   UNL     1      86.691  71.352  85.478  0.00  0.00    +0.000 A 
ATOM      8  C   UNL     1      85.517  72.015  85.859  0.00  0.00    +0.000 A 
ATOM      9  C   UNL     1      87.130  71.362  84.045  0.00  0.00    +0.000 C 
ATOM     10  C   UNL     1      87.807  69.928  88.859  0.00  0.00    +0.000 C 
ENDBRANCH   1   6
BRANCH   1  11
ATOM     11  C   UNL     1      88.411  68.653  85.802  0.00  0.00    +0.000 C 
ATOM     12  O   UNL     1      87.585  68.178  85.033  0.00  0.00    +0.000 OA
BRANCH  11  13
ATOM     13  C   UNL     1      89.476  67.856  86.544  0.00  0.00    +0.000 C 
BRANCH  13  14
ATOM     14  N   UNL     1      89.293  66.430  86.342  0.00  0.00    +0.000 N 
ATOM     15  C   UNL     1      88.461  65.613  87.095  0.00  0.00    +0.000 A 
ATOM     16  C   UNL     1      88.536  64.321  86.742  0.00  0.00    +0.000 A 
ATOM     17  S   UNL     1      89.665  64.058  85.450  0.00  0.00    +0.000 S 
ATOM     18  C   UNL     1      90.078  65.773  85.404  0.00  0.00    +0.000 A 
ATOM     19  O   UNL     1      90.917  66.262  84.664  0.00  0.00    +0.000 OA
ATOM     20  C   UNL     1      87.598  66.151  88.187  0.00  0.00    +0.000 C 
ENDBRANCH  13  14
ENDBRANCH  11  13
ENDBRANCH   1  11
TORSDOF 4
ENDMDL
