REMARK  Name = *****
REMARK  3 active torsions:
REMARK  status: ('A' for Active; 'I' for Inactive)
REMARK    1  A    between atoms: C_1  and  C_2
REMARK    2  A    between atoms: C_5  and  C_7
REMARK    3  A    between atoms: C_8  and  C_9
REMARK                            x       y       z     vdW  Elec       q    Type
REMARK                         _______ _______ _______ _____ _____    ______ ____
ROOT
ATOM      1  C   UNL     1       5.870  -1.685   0.031  0.00  0.00    +0.000 C 
ATOM      2  C   UNL     1       6.839  -2.395   0.016  0.00  0.00    +0.000 C 
ENDROOT
BRANCH   1   7
ATOM      3  C   UNL     1       0.958   0.277   0.075  0.00  0.00    +0.000 C 
ATOM      4  C   UNL     1       2.439   0.115   0.069  0.00  0.00    +0.000 A 
ATOM      5  C   UNL     1       3.412   1.094   0.082  0.00  0.00    +0.000 A 
ATOM      6  C   UNL     1       4.718   0.536   0.069  0.00  0.00    +0.000 A 
ATOM      7  C   UNL     1       4.722  -0.839   0.048  0.00  0.00    +0.000 A 
ATOM      8  S   UNL     1       3.124  -1.455   0.044  0.00  0.00    +0.000 S 
ATOM      9 BR   UNL     1       6.244   1.656   0.082  0.00  0.00    +0.000 Br
ENDBRANCH   1   7
BRANCH   2  10
ATOM     10  C   UNL     1       7.994  -3.238  -0.004  0.00  0.00    +0.000 A 
ATOM     11  C   UNL     1       9.269  -2.676  -0.109  0.00  0.00    +0.000 A 
ATOM     12  C   UNL     1      10.396  -3.500  -0.129  0.00  0.00    +0.000 A 
ATOM     13  C   UNL     1      10.250  -4.884  -0.043  0.00  0.00    +0.000 A 
ATOM     14  C   UNL     1       8.978  -5.447   0.062  0.00  0.00    +0.000 A 
ATOM     15  C   UNL     1       7.850  -4.624   0.082  0.00  0.00    +0.000 A 
ENDBRANCH   2  10
TORSDOF 2
