MODEL 1
REMARK VINA RESULT:      -4.4      0.000      0.000
REMARK  Name = *****
REMARK  5 active torsions:
REMARK  status: ('A' for Active; 'I' for Inactive)
REMARK    1  A    between atoms: C_1  and  O_2
REMARK    2  A    between atoms: O_2  and  C_3
REMARK    3  A    between atoms: C_3  and  C_5
REMARK    4  A    between atoms: C_6  and  C_13
REMARK    5  A    between atoms: C_14  and  C_15
REMARK                            x       y       z     vdW  Elec       q    Type
REMARK                         _______ _______ _______ _____ _____    ______ ____
ROOT
ATOM      1  C   UNL     1      83.092  59.749  90.932  0.00  0.00    +0.000 A 
ATOM      2  C   UNL     1      84.477  59.597  90.729  0.00  0.00    +0.000 A 
ATOM      3  N   UNL     1      85.028  58.301  90.721  0.00  0.00    +0.000 N 
ATOM      4  C   UNL     1      84.174  57.192  90.851  0.00  0.00    +0.000 A 
ATOM      5  C   UNL     1      82.793  57.359  90.996  0.00  0.00    +0.000 A 
ATOM      6  C   UNL     1      82.253  58.636  91.040  0.00  0.00    +0.000 A 
ATOM      7 CL   UNL     1      84.788  55.570  90.832  0.00  0.00    +0.000 Cl
ATOM      8  O   UNL     1      86.294  58.134  90.593  0.00  0.00    +0.000 OA
ENDROOT
BRANCH   1   9
ATOM      9  C   UNL     1      82.450  61.068  91.053  0.00  0.00    +0.000 C 
ATOM     10  O   UNL     1      82.476  61.733  92.074  0.00  0.00    +0.000 OA
BRANCH   9  12
ATOM     11  C   UNL     1      82.276  62.755  89.454  0.00  0.00    +0.000 C 
ATOM     12  O   UNL     1      81.947  61.424  89.849  0.00  0.00    +0.000 OA
ENDBRANCH   9  12
ENDBRANCH   1   9
BRANCH   2  13
ATOM     13  C   UNL     1      85.418  60.720  90.536  0.00  0.00    +0.000 C 
ATOM     14  C   UNL     1      85.674  61.284  89.345  0.00  0.00    +0.000 C 
BRANCH  14  15
ATOM     15  C   UNL     1      86.628  62.388  89.157  0.00  0.00    +0.000 A 
ATOM     16  C   UNL     1      87.136  62.734  87.898  0.00  0.00    +0.000 A 
ATOM     17  C   UNL     1      88.019  63.808  87.759  0.00  0.00    +0.000 A 
ATOM     18  C   UNL     1      88.394  64.554  88.874  0.00  0.00    +0.000 A 
ATOM     19  C   UNL     1      87.881  64.231  90.129  0.00  0.00    +0.000 A 
ATOM     20  C   UNL     1      86.998  63.157  90.268  0.00  0.00    +0.000 A 
ENDBRANCH  14  15
ENDBRANCH   2  13
TORSDOF 4
ENDMDL
