MODEL 1
REMARK VINA RESULT:      -4.8      0.000      0.000
REMARK  Name = *****
REMARK  5 active torsions:
REMARK  status: ('A' for Active; 'I' for Inactive)
REMARK    1  A    between atoms: C_4  and  C_7
REMARK    2  A    between atoms: C_7  and  C_8
REMARK    3  A    between atoms: C_7  and  C_17
REMARK    4  A    between atoms: C_8  and  C_9
REMARK    5  A    between atoms: C_9  and  C_11
REMARK                            x       y       z     vdW  Elec       q    Type
REMARK                         _______ _______ _______ _____ _____    ______ ____
ROOT
ATOM      1  C   UNL     1     101.694 127.489  83.100  0.00  0.00    +0.000 C 
ENDROOT
BRANCH   1   5
ATOM      2  C   UNL     1     104.424 126.159  80.004  0.00  0.00    +0.000 A 
ATOM      3  C   UNL     1     104.399 127.495  80.397  0.00  0.00    +0.000 A 
ATOM      4  C   UNL     1     103.521 127.915  81.398  0.00  0.00    +0.000 A 
ATOM      5  C   UNL     1     102.654 127.002  82.020  0.00  0.00    +0.000 A 
ATOM      6  C   UNL     1     102.686 125.661  81.609  0.00  0.00    +0.000 A 
ATOM      7  C   UNL     1     103.567 125.243  80.609  0.00  0.00    +0.000 A 
ENDBRANCH   1   5
BRANCH   1   8
ATOM      8  C   UNL     1     102.326 127.439  84.499  0.00  0.00    +0.000 C 
ATOM      9  F   UNL     1     101.851 128.461  85.265  0.00  0.00    +0.000 F 
ENDBRANCH   1   8
BRANCH   1  10
ATOM     10  C   UNL     1     100.379 126.691  83.032  0.00  0.00    +0.000 C 
BRANCH  10  11
ATOM     11  C   UNL     1      99.163 127.585  82.866  0.00  0.00    +0.000 C 
ATOM     12  O   UNL     1      98.288 127.348  82.035  0.00  0.00    +0.000 OA
BRANCH  11  13
ATOM     13  C   UNL     1      99.020 128.776  83.758  0.00  0.00    +0.000 A 
ATOM     14  C   UNL     1      98.444 128.596  85.023  0.00  0.00    +0.000 A 
ATOM     15  C   UNL     1      98.290 129.680  85.891  0.00  0.00    +0.000 A 
ATOM     16  C   UNL     1      98.714 130.949  85.503  0.00  0.00    +0.000 A 
ATOM     17  C   UNL     1      99.293 131.136  84.249  0.00  0.00    +0.000 A 
ATOM     18  C   UNL     1      99.449 130.054  83.376  0.00  0.00    +0.000 A 
ENDBRANCH  11  13
ENDBRANCH  10  11
ENDBRANCH   1  10
TORSDOF 5
ENDMDL
