REMARK  Name = *****
REMARK  1 active torsions:
REMARK  status: ('A' for Active; 'I' for Inactive)
REMARK    1  A    between atoms: C_11  and  C_12
REMARK                            x       y       z     vdW  Elec       q    Type
REMARK                         _______ _______ _______ _____ _____    ______ ____
ROOT
ATOM      1  C   UNL     1       2.018  -0.940  -0.451  0.00  0.00    +0.000 C 
ATOM      2  C   UNL     1       1.023  -1.710   0.423  0.00  0.00    +0.000 C 
ATOM      3  C   UNL     1      -0.314  -1.009   0.488  0.00  0.00    +0.000 A 
ATOM      4  C   UNL     1      -1.502  -1.749   0.554  0.00  0.00    +0.000 A 
ATOM      5  C   UNL     1      -2.729  -1.098   0.660  0.00  0.00    +0.000 A 
ATOM      6  C   UNL     1      -2.773   0.292   0.720  0.00  0.00    +0.000 A 
ATOM      7  C   UNL     1      -1.590   1.031   0.671  0.00  0.00    +0.000 A 
ATOM      8  C   UNL     1      -0.342   0.402   0.543  0.00  0.00    +0.000 A 
ATOM      9  C   UNL     1       0.946   1.196   0.526  0.00  0.00    +0.000 C 
ATOM     10  C   UNL     1       2.183   0.482   0.019  0.00  0.00    +0.000 C 
ATOM     11  C   UNL     1       1.644   1.694  -0.722  0.00  0.00    +0.000 C 
ENDROOT
BRANCH  11  12
ATOM     12  C   UNL     1       1.075   1.605  -2.121  0.00  0.00    +0.000 A 
ATOM     13  C   UNL     1      -0.204   2.090  -2.437  0.00  0.00    +0.000 A 
ATOM     14  C   UNL     1      -0.707   2.043  -3.741  0.00  0.00    +0.000 A 
ATOM     15  C   UNL     1       0.072   1.525  -4.770  0.00  0.00    +0.000 A 
ATOM     16  C   UNL     1       1.355   1.065  -4.495  0.00  0.00    +0.000 A 
ATOM     17  C   UNL     1       1.849   1.116  -3.188  0.00  0.00    +0.000 A 
ENDBRANCH  11  12
TORSDOF 1
