REMARK  Name = *****
REMARK  2 active torsions:
REMARK  status: ('A' for Active; 'I' for Inactive)
REMARK    1  A    between atoms: C_4  and  C_7
REMARK    2  A    between atoms: N_8  and  C_9
REMARK                            x       y       z     vdW  Elec       q    Type
REMARK                         _______ _______ _______ _____ _____    ______ ____
ROOT
ATOM      1  C   UNL     1      -2.896   0.279  -0.176  0.00  0.00    +0.000 C 
ATOM      2  N   UNL     1      -3.644  -0.588  -0.784  0.00  0.00    +0.000 NA
ENDROOT
BRANCH   2   3
ATOM      3  C   UNL     1      -5.017  -0.310  -0.809  0.00  0.00    +0.000 A 
ATOM      4  C   UNL     1      -5.558   0.498  -1.811  0.00  0.00    +0.000 A 
ATOM      5  C   UNL     1      -6.927   0.746  -1.835  0.00  0.00    +0.000 A 
ATOM      6  C   UNL     1      -7.773   0.195  -0.883  0.00  0.00    +0.000 A 
ATOM      7  C   UNL     1      -7.229  -0.621   0.099  0.00  0.00    +0.000 A 
ATOM      8  C   UNL     1      -5.863  -0.882   0.142  0.00  0.00    +0.000 A 
ATOM      9  F   UNL     1      -8.034  -1.167   1.020  0.00  0.00    +0.000 F 
ATOM     10  F   UNL     1      -7.437   1.530  -2.793  0.00  0.00    +0.000 F 
ENDBRANCH   2   3
BRANCH   1  14
ATOM     11  C   UNL     1       1.333  -0.154   0.146  0.00  0.00    +0.000 A 
ATOM     12  C   UNL     1       0.588  -1.133  -0.512  0.00  0.00    +0.000 A 
ATOM     13  C   UNL     1      -0.796  -1.001  -0.623  0.00  0.00    +0.000 A 
ATOM     14  C   UNL     1      -1.433   0.115  -0.073  0.00  0.00    +0.000 A 
ATOM     15  C   UNL     1      -0.690   1.097   0.588  0.00  0.00    +0.000 A 
ATOM     16  C   UNL     1       0.696   0.960   0.696  0.00  0.00    +0.000 A 
ENDBRANCH   1  14
TORSDOF 2
