MODEL 1
REMARK VINA RESULT:      -4.9      0.000      0.000
REMARK  Name = *****
REMARK  3 active torsions:
REMARK  status: ('A' for Active; 'I' for Inactive)
REMARK    1  A    between atoms: C_1  and  C_2
REMARK    2  A    between atoms: C_2  and  C_12
REMARK    3  A    between atoms: C_12  and  C_13
REMARK                            x       y       z     vdW  Elec       q    Type
REMARK                         _______ _______ _______ _____ _____    ______ ____
ROOT
ATOM      1  C   UNL     1      89.374  71.688  84.856  0.00  0.00    +0.000 C 
ATOM      2  C   UNL     1      88.659  70.587  85.664  0.00  0.00    +0.000 C 
ATOM      3  C   UNL     1      89.388  70.390  87.029  0.00  0.00    +0.000 C 
ATOM      4  C   UNL     1      88.369  70.767  88.060  0.00  0.00    +0.000 A 
ATOM      5  C   UNL     1      88.552  70.747  89.437  0.00  0.00    +0.000 A 
ATOM      6  C   UNL     1      87.488  71.119  90.260  0.00  0.00    +0.000 A 
ATOM      7  C   UNL     1      86.264  71.504  89.700  0.00  0.00    +0.000 A 
ATOM      8  C   UNL     1      86.092  71.521  88.313  0.00  0.00    +0.000 A 
ATOM      9  C   UNL     1      87.153  71.150  87.498  0.00  0.00    +0.000 A 
ATOM     10  C   UNL     1      87.247  71.078  86.042  0.00  0.00    +0.000 C 
ATOM     11  C   UNL     1      86.260  71.407  85.194  0.00  0.00    +0.000 C 
ENDROOT
BRANCH   2  12
ATOM     12  C   UNL     1      88.553  69.252  84.868  0.00  0.00    +0.000 C 
BRANCH  12  13
ATOM     13  C   UNL     1      88.700  67.970  85.661  0.00  0.00    +0.000 A 
ATOM     14  C   UNL     1      87.638  67.481  86.434  0.00  0.00    +0.000 A 
ATOM     15  C   UNL     1      87.773  66.295  87.160  0.00  0.00    +0.000 A 
ATOM     16  C   UNL     1      88.968  65.581  87.114  0.00  0.00    +0.000 A 
ATOM     17  C   UNL     1      90.026  66.048  86.338  0.00  0.00    +0.000 A 
ATOM     18  C   UNL     1      89.892  67.233  85.612  0.00  0.00    +0.000 A 
ENDBRANCH  12  13
ENDBRANCH   2  12
TORSDOF 2
ENDMDL
