MODEL 1
REMARK VINA RESULT:      -4.4      0.000      0.000
REMARK  Name = *****
REMARK  3 active torsions:
REMARK  status: ('A' for Active; 'I' for Inactive)
REMARK    1  A    between atoms: C_1  and  C_2
REMARK    2  A    between atoms: C_5  and  C_7
REMARK    3  A    between atoms: C_8  and  C_9
REMARK                            x       y       z     vdW  Elec       q    Type
REMARK                         _______ _______ _______ _____ _____    ______ ____
ROOT
ATOM      1  C   UNL     1     102.864 126.133  81.585  0.00  0.00    +0.000 C 
ATOM      2  C   UNL     1     101.759 125.949  82.325  0.00  0.00    +0.000 C 
ENDROOT
BRANCH   1   7
ATOM      3  C   UNL     1     105.943 121.868  82.020  0.00  0.00    +0.000 C 
ATOM      4  C   UNL     1     105.211 123.052  81.489  0.00  0.00    +0.000 A 
ATOM      5  C   UNL     1     105.225 123.566  80.212  0.00  0.00    +0.000 A 
ATOM      6  C   UNL     1     104.394 124.719  80.087  0.00  0.00    +0.000 A 
ATOM      7  C   UNL     1     103.761 125.068  81.269  0.00  0.00    +0.000 A 
ATOM      8  S   UNL     1     104.195 123.959  82.519  0.00  0.00    +0.000 S 
ENDBRANCH   1   7
BRANCH   2   9
ATOM      9  C   UNL     1     100.815 127.026  82.667  0.00  0.00    +0.000 A 
ATOM     10  C   UNL     1      99.438 126.922  82.425  0.00  0.00    +0.000 A 
ATOM     11  C   UNL     1      98.571 127.953  82.796  0.00  0.00    +0.000 A 
ATOM     12  C   UNL     1      99.069 129.093  83.422  0.00  0.00    +0.000 A 
ATOM     13  C   UNL     1     100.433 129.202  83.682  0.00  0.00    +0.000 A 
ATOM     14  C   UNL     1     101.299 128.171  83.312  0.00  0.00    +0.000 A 
ENDBRANCH   2   9
TORSDOF 2
ENDMDL
