MODEL 1
REMARK VINA RESULT:      -4.5      0.000      0.000
REMARK  Name = *****
REMARK  4 active torsions:
REMARK  status: ('A' for Active; 'I' for Inactive)
REMARK    1  A    between atoms: C_1  and  C_2
REMARK    2  A    between atoms: C_5  and  N_8
REMARK    3  A    between atoms: N_8  and  O_18
REMARK    4  A    between atoms: C_9  and  C_11
REMARK                            x       y       z     vdW  Elec       q    Type
REMARK                         _______ _______ _______ _____ _____    ______ ____
ROOT
ATOM      1  N   UNL     1     101.798 127.055  83.256  0.00  0.00    +0.000 N 
ATOM      2  C   UNL     1     100.439 127.295  83.076  0.00  0.00    +0.000 C 
ATOM      3  O   UNL     1      99.682 126.727  82.292  0.00  0.00    +0.000 OA
ENDROOT
BRANCH   1   8
ATOM      4  C   UNL     1     105.038 123.226  80.417  0.00  0.00    +0.000 C 
ATOM      5  C   UNL     1     104.218 124.242  81.155  0.00  0.00    +0.000 A 
ATOM      6  C   UNL     1     103.625 125.310  80.477  0.00  0.00    +0.000 A 
ATOM      7  C   UNL     1     102.837 126.243  81.162  0.00  0.00    +0.000 A 
ATOM      8  C   UNL     1     102.611 126.130  82.539  0.00  0.00    +0.000 A 
ATOM      9  C   UNL     1     103.197 125.042  83.206  0.00  0.00    +0.000 A 
ATOM     10  C   UNL     1     103.986 124.108  82.525  0.00  0.00    +0.000 A 
ENDBRANCH   1   8
BRANCH   2  11
ATOM     11  C   UNL     1      99.824 128.353  83.914  0.00  0.00    +0.000 A 
ATOM     12  C   UNL     1      99.774 129.660  83.417  0.00  0.00    +0.000 A 
ATOM     13  C   UNL     1      99.171 130.667  84.174  0.00  0.00    +0.000 A 
ATOM     14  C   UNL     1      98.609 130.358  85.413  0.00  0.00    +0.000 A 
ATOM     15  C   UNL     1      98.636 129.051  85.901  0.00  0.00    +0.000 A 
ATOM     16  C   UNL     1      99.239 128.041  85.148  0.00  0.00    +0.000 A 
ATOM     17 CL   UNL     1      97.865 131.599  86.346  0.00  0.00    +0.000 Cl
ENDBRANCH   2  11
BRANCH   1  18
ATOM     18  O   UNL     1     102.509 127.981  84.058  0.00  0.00    +0.000 OA
ATOM     19  H   UNL     1     101.901 128.666  84.378  0.00  0.00    +0.000 HD
ENDBRANCH   1  18
TORSDOF 3
ENDMDL
