REMARK  Name = *****
REMARK  5 active torsions:
REMARK  status: ('A' for Active; 'I' for Inactive)
REMARK    1  A    between atoms: C_1  and  C_2
REMARK    2  A    between atoms: C_5  and  S_8
REMARK    3  A    between atoms: S_8  and  O_10
REMARK    4  A    between atoms: O_10  and  C_11
REMARK    5  A    between atoms: C_11  and  C_12
REMARK                            x       y       z     vdW  Elec       q    Type
REMARK                         _______ _______ _______ _____ _____    ______ ____
ROOT
ATOM      1  S   UNL     1      -3.173   0.077  -0.737  0.00  0.00    +0.000 S 
ATOM      2  O   UNL     1      -4.048  -0.267   0.432  0.00  0.00    +0.000 OA
ENDROOT
BRANCH   1   7
ATOM      3  C   UNL     1       2.588   0.212   1.335  0.00  0.00    +0.000 C 
ATOM      4  C   UNL     1       1.178   0.154   0.827  0.00  0.00    +0.000 A 
ATOM      5  C   UNL     1       0.884   0.540  -0.486  0.00  0.00    +0.000 A 
ATOM      6  C   UNL     1      -0.433   0.520  -0.952  0.00  0.00    +0.000 A 
ATOM      7  C   UNL     1      -1.476   0.124  -0.107  0.00  0.00    +0.000 A 
ATOM      8  C   UNL     1      -1.186  -0.253   1.208  0.00  0.00    +0.000 A 
ATOM      9  C   UNL     1       0.131  -0.230   1.674  0.00  0.00    +0.000 A 
ENDBRANCH   1   7
BRANCH   1  10
ATOM     10  O   UNL     1      -3.234   1.675  -0.931  0.00  0.00    +0.000 OA
BRANCH  10  11
ATOM     11  C   UNL     1      -4.541   2.194  -1.139  0.00  0.00    +0.000 C 
BRANCH  11  12
ATOM     12  C   UNL     1      -4.425   3.683  -1.305  0.00  0.00    +0.000 A 
ATOM     13  C   UNL     1      -4.407   4.530  -0.188  0.00  0.00    +0.000 A 
ATOM     14  C   UNL     1      -4.277   5.912  -0.352  0.00  0.00    +0.000 A 
ATOM     15  C   UNL     1      -4.154   6.458  -1.630  0.00  0.00    +0.000 A 
ATOM     16  C   UNL     1      -4.157   5.622  -2.745  0.00  0.00    +0.000 A 
ATOM     17  C   UNL     1      -4.288   4.247  -2.575  0.00  0.00    +0.000 A 
ATOM     18  F   UNL     1      -4.282   3.458  -3.660  0.00  0.00    +0.000 F 
ENDBRANCH  11  12
ENDBRANCH  10  11
ENDBRANCH   1  10
TORSDOF 4
