MODEL 1
REMARK VINA RESULT:      -4.7      0.000      0.000
REMARK  Name = *****
REMARK  6 active torsions:
REMARK  status: ('A' for Active; 'I' for Inactive)
REMARK    1  A    between atoms: C_1  and  C_2
REMARK    2  A    between atoms: C_2  and  N_3
REMARK    3  A    between atoms: N_3  and  C_4
REMARK    4  A    between atoms: N_3  and  C_11
REMARK    5  A    between atoms: C_4  and  C_5
REMARK    6  A    between atoms: C_15  and  C_17
REMARK                            x       y       z     vdW  Elec       q    Type
REMARK                         _______ _______ _______ _____ _____    ______ ____
ROOT
ATOM      1  N   UNL     1      88.570  70.003  86.704  0.00  0.00    +0.000 N 
ENDROOT
BRANCH   1   2
ATOM      2  C   UNL     1      88.680  68.596  86.803  0.00  0.00    +0.000 A 
ATOM      3  C   UNL     1      87.758  67.797  87.494  0.00  0.00    +0.000 A 
ATOM      4  C   UNL     1      87.901  66.406  87.558  0.00  0.00    +0.000 A 
ATOM      5  C   UNL     1      88.974  65.781  86.929  0.00  0.00    +0.000 A 
ATOM      6  C   UNL     1      89.911  66.542  86.231  0.00  0.00    +0.000 A 
ATOM      7  C   UNL     1      89.756  67.937  86.181  0.00  0.00    +0.000 A 
ATOM      8  C   UNL     1      91.083  65.899  85.552  0.00  0.00    +0.000 C 
ENDBRANCH   1   2
BRANCH   1  10
ATOM      9  C   UNL     1      89.565  71.350  84.874  0.00  0.00    +0.000 C 
ATOM     10  C   UNL     1      89.767  70.731  86.252  0.00  0.00    +0.000 C 
ENDBRANCH   1  10
BRANCH   1  11
ATOM     11  C   UNL     1      87.862  70.594  87.866  0.00  0.00    +0.000 C 
BRANCH  11  12
ATOM     12  C   UNL     1      86.540  71.247  87.504  0.00  0.00    +0.000 A 
ATOM     13  C   UNL     1      85.676  71.657  88.533  0.00  0.00    +0.000 A 
ATOM     14  C   UNL     1      84.467  72.294  88.242  0.00  0.00    +0.000 A 
ATOM     15  C   UNL     1      84.110  72.540  86.919  0.00  0.00    +0.000 A 
ATOM     16  C   UNL     1      84.960  72.151  85.887  0.00  0.00    +0.000 A 
ATOM     17  C   UNL     1      86.168  71.514  86.179  0.00  0.00    +0.000 A 
ENDBRANCH  11  12
ENDBRANCH   1  11
TORSDOF 4
ENDMDL
