MODEL 1
REMARK VINA RESULT:      -4.3      0.000      0.000
REMARK  Name = *****
REMARK  4 active torsions:
REMARK  status: ('A' for Active; 'I' for Inactive)
REMARK    1  A    between atoms: C_1  and  C_2
REMARK    2  A    between atoms: C_2  and  C_14
REMARK    3  A    between atoms: N_3  and  C_4
REMARK    4  A    between atoms: C_9  and  C_10
REMARK                            x       y       z     vdW  Elec       q    Type
REMARK                         _______ _______ _______ _____ _____    ______ ____
ROOT
ATOM      1  C   UNL     1     101.787 127.048  82.340  0.00  0.00    +0.000 A 
ATOM      2  C   UNL     1     100.452 126.625  82.391  0.00  0.00    +0.000 A 
ATOM      3  C   UNL     1      99.502 127.338  83.123  0.00  0.00    +0.000 A 
ATOM      4  C   UNL     1      99.878 128.493  83.801  0.00  0.00    +0.000 A 
ATOM      5  C   UNL     1     101.198 128.938  83.737  0.00  0.00    +0.000 A 
ATOM      6  C   UNL     1     102.164 128.225  83.001  0.00  0.00    +0.000 A 
ENDROOT
BRANCH   6   7
ATOM      7  C   UNL     1     103.583 128.721  82.925  0.00  0.00    +0.000 C 
ATOM      8  F   UNL     1     104.459 127.943  83.624  0.00  0.00    +0.000 F 
ATOM      9  F   UNL     1     104.068 128.804  81.655  0.00  0.00    +0.000 F 
ATOM     10  F   UNL     1     103.734 129.977  83.447  0.00  0.00    +0.000 F 
ENDBRANCH   6   7
BRANCH   1  13
ATOM     11  C   UNL     1     103.251 124.858  83.516  0.00  0.00    +0.000 C 
ATOM     12  C   UNL     1     103.371 125.323  82.074  0.00  0.00    +0.000 C 
ATOM     13  N   UNL     1     102.700 126.321  81.569  0.00  0.00    +0.000 NA
BRANCH  12  14
ATOM     14  C   UNL     1     104.265 124.608  81.165  0.00  0.00    +0.000 A 
ATOM     15  C   UNL     1     104.563 123.255  81.176  0.00  0.00    +0.000 A 
ATOM     16  C   UNL     1     105.484 122.881  80.156  0.00  0.00    +0.000 A 
ATOM     17  C   UNL     1     105.871 123.960  79.396  0.00  0.00    +0.000 A 
ATOM     18  S   UNL     1     105.128 125.407  79.917  0.00  0.00    +0.000 S 
ENDBRANCH  12  14
ENDBRANCH   1  13
TORSDOF 3
ENDMDL
