REMARK  Name = *****
REMARK  2 active torsions:
REMARK  status: ('A' for Active; 'I' for Inactive)
REMARK    1  A    between atoms: C_3  and  C_8
REMARK    2  A    between atoms: C_9  and  C_10
REMARK                            x       y       z     vdW  Elec       q    Type
REMARK                         _______ _______ _______ _____ _____    ______ ____
ROOT
ATOM      1  C   UNL     1      -1.322  -2.637  -0.310  0.00  0.00    +0.000 C 
ATOM      2  C   UNL     1      -1.855  -3.705  -0.436  0.00  0.00    +0.000 C 
ENDROOT
BRANCH   2   3
ATOM      3  C   UNL     1      -2.485  -4.980  -0.589  0.00  0.00    +0.000 A 
ATOM      4  C   UNL     1      -1.838  -6.149  -0.178  0.00  0.00    +0.000 A 
ATOM      5  C   UNL     1      -2.443  -7.393  -0.325  0.00  0.00    +0.000 A 
ATOM      6  C   UNL     1      -3.710  -7.460  -0.889  0.00  0.00    +0.000 A 
ATOM      7  C   UNL     1      -4.375  -6.310  -1.306  0.00  0.00    +0.000 A 
ATOM      8  C   UNL     1      -3.761  -5.064  -1.156  0.00  0.00    +0.000 A 
ATOM      9  F   UNL     1      -4.303  -8.652  -1.036  0.00  0.00    +0.000 F 
ATOM     10  F   UNL     1      -0.613  -6.092   0.367  0.00  0.00    +0.000 F 
ENDBRANCH   2   3
BRANCH   1  13
ATOM     11  C   UNL     1      -0.814   1.037   0.076  0.00  0.00    +0.000 A 
ATOM     12  C   UNL     1      -1.442  -0.202  -0.067  0.00  0.00    +0.000 A 
ATOM     13  C   UNL     1      -0.677  -1.369  -0.161  0.00  0.00    +0.000 A 
ATOM     14  C   UNL     1       0.716  -1.297  -0.112  0.00  0.00    +0.000 A 
ATOM     15  C   UNL     1       1.337  -0.056   0.031  0.00  0.00    +0.000 A 
ATOM     16  C   UNL     1       0.578   1.111   0.124  0.00  0.00    +0.000 A 
ATOM     17 CL   UNL     1       3.054   0.038   0.091  0.00  0.00    +0.000 Cl
ENDBRANCH   1  13
TORSDOF 2
