MODEL 1
REMARK VINA RESULT:      -4.6      0.000      0.000
REMARK  Name = *****
REMARK  3 active torsions:
REMARK  status: ('A' for Active; 'I' for Inactive)
REMARK    1  A    between atoms: C_6  and  C_7
REMARK    2  A    between atoms: C_7  and  S_8
REMARK    3  A    between atoms: S_8  and  C_10
REMARK                            x       y       z     vdW  Elec       q    Type
REMARK                         _______ _______ _______ _____ _____    ______ ____
ROOT
ATOM      1  S   UNL     1     103.403 126.426  81.755  0.00  0.00    +0.000 S 
ATOM      2  O   UNL     1     103.374 126.919  80.336  0.00  0.00    +0.000 OA
ENDROOT
BRANCH   1   3
ATOM      3  C   UNL     1     104.039 124.735  81.663  0.00  0.00    +0.000 A 
ATOM      4  C   UNL     1     104.473 124.194  80.446  0.00  0.00    +0.000 A 
ATOM      5  C   UNL     1     104.959 122.886  80.394  0.00  0.00    +0.000 A 
ATOM      6  C   UNL     1     105.012 122.129  81.558  0.00  0.00    +0.000 A 
ATOM      7  C   UNL     1     104.592 122.654  82.775  0.00  0.00    +0.000 A 
ATOM      8  C   UNL     1     104.106 123.962  82.830  0.00  0.00    +0.000 A 
ATOM      9  F   UNL     1     105.477 120.874  81.508  0.00  0.00    +0.000 F 
ENDBRANCH   1   3
BRANCH   1  10
ATOM     10  C   UNL     1     101.690 125.986  82.217  0.00  0.00    +0.000 C 
BRANCH  10  16
ATOM     11  C   UNL     1     101.589 128.222  83.398  0.00  0.00    +0.000 A 
ATOM     12  C   UNL     1     100.874 129.321  83.879  0.00  0.00    +0.000 A 
ATOM     13  C   UNL     1      99.498 129.378  83.701  0.00  0.00    +0.000 A 
ATOM     14  C   UNL     1      98.819 128.355  83.049  0.00  0.00    +0.000 A 
ATOM     15  C   UNL     1      99.530 127.254  82.570  0.00  0.00    +0.000 A 
ATOM     16  C   UNL     1     100.922 127.176  82.740  0.00  0.00    +0.000 A 
ATOM     17  F   UNL     1      98.816 130.434  84.162  0.00  0.00    +0.000 F 
ENDBRANCH  10  16
ENDBRANCH   1  10
TORSDOF 3
ENDMDL
