MODEL 1
REMARK VINA RESULT:      -3.8      0.000      0.000
REMARK  Name = *****
REMARK  3 active torsions:
REMARK  status: ('A' for Active; 'I' for Inactive)
REMARK    1  A    between atoms: C_4  and  O_7
REMARK    2  A    between atoms: O_7  and  C_8
REMARK    3  A    between atoms: C_8  and  C_10
REMARK                            x       y       z     vdW  Elec       q    Type
REMARK                         _______ _______ _______ _____ _____    ______ ____
ROOT
ATOM      1  C   UNL     1     102.737 127.964  83.296  0.00  0.00    +0.000 C 
ATOM      2  O   UNL     1     103.352 128.998  83.502  0.00  0.00    +0.000 OA
ENDROOT
BRANCH   1   3
ATOM      3  C   UNL     1     101.267 127.897  83.107  0.00  0.00    +0.000 A 
ATOM      4  C   UNL     1     100.489 128.966  83.569  0.00  0.00    +0.000 A 
ATOM      5  C   UNL     1      99.101 128.939  83.414  0.00  0.00    +0.000 A 
ATOM      6  C   UNL     1      98.488 127.842  82.810  0.00  0.00    +0.000 A 
ATOM      7  C   UNL     1      99.258 126.769  82.358  0.00  0.00    +0.000 A 
ATOM      8  C   UNL     1     100.647 126.794  82.506  0.00  0.00    +0.000 A 
ENDBRANCH   1   3
BRANCH   1   9
ATOM      9  O   UNL     1     103.279 126.729  83.173  0.00  0.00    +0.000 OA
BRANCH   9  13
ATOM     10  C   UNL     1     104.312 124.077  80.773  0.00  0.00    +0.000 C 
ATOM     11  C   UNL     1     103.542 125.336  80.392  0.00  0.00    +0.000 C 
ATOM     12  S   UNL     1     104.452 126.866  80.762  0.00  0.00    +0.000 S 
ATOM     13  C   UNL     1     104.586 126.693  82.584  0.00  0.00    +0.000 C 
ATOM     14  C   UNL     1     105.344 125.417  82.985  0.00  0.00    +0.000 C 
ATOM     15  S   UNL     1     104.484 123.850  82.572  0.00  0.00    +0.000 S 
ENDBRANCH   9  13
ENDBRANCH   1   9
TORSDOF 3
ENDMDL
