MODEL 1
REMARK VINA RESULT:      -3.4      0.000      0.000
REMARK  Name = *****
REMARK  4 active torsions:
REMARK  status: ('A' for Active; 'I' for Inactive)
REMARK    1  A    between atoms: C_4  and  S_6
REMARK    2  A    between atoms: S_6  and  C_7
REMARK    3  A    between atoms: C_7  and  C_8
REMARK    4  A    between atoms: C_8  and  C_10
REMARK                            x       y       z     vdW  Elec       q    Type
REMARK                         _______ _______ _______ _____ _____    ______ ____
ROOT
ATOM      1  C   UNL     1      89.867  68.182  86.093  0.00  0.00    +0.000 C 
ATOM      2  O   UNL     1      90.512  67.191  86.426  0.00  0.00    +0.000 OA
ENDROOT
BRANCH   1   3
ATOM      3  C   UNL     1      88.995  68.822  87.098  0.00  0.00    +0.000 A 
ATOM      4  C   UNL     1      89.370  70.091  87.556  0.00  0.00    +0.000 A 
ATOM      5  C   UNL     1      88.593  70.743  88.514  0.00  0.00    +0.000 A 
ATOM      6  C   UNL     1      87.437  70.136  89.004  0.00  0.00    +0.000 A 
ATOM      7  C   UNL     1      87.051  68.879  88.531  0.00  0.00    +0.000 A 
ATOM      8  C   UNL     1      87.826  68.219  87.573  0.00  0.00    +0.000 A 
ATOM      9 CL   UNL     1      87.263  66.695  86.990  0.00  0.00    +0.000 Cl
ENDBRANCH   1   3
BRANCH   1  10
ATOM     10  C   UNL     1      89.849  68.743  84.684  0.00  0.00    +0.000 C 
BRANCH  10  11
ATOM     11  S   UNL     1      88.370  68.143  83.808  0.00  0.00    +0.000 S 
BRANCH  11  15
ATOM     12  C   UNL     1      86.435  70.988  85.458  0.00  0.00    +0.000 C 
ATOM     13  C   UNL     1      87.338  71.902  84.650  0.00  0.00    +0.000 C 
ATOM     14  C   UNL     1      88.327  70.930  84.026  0.00  0.00    +0.000 C 
ATOM     15  C   UNL     1      87.470  69.720  83.641  0.00  0.00    +0.000 C 
ATOM     16  C   UNL     1      86.237  69.772  84.558  0.00  0.00    +0.000 C 
ENDBRANCH  11  15
ENDBRANCH  10  11
ENDBRANCH   1  10
TORSDOF 4
ENDMDL
