MODEL 1
REMARK VINA RESULT:      -4.4      0.000      0.000
REMARK  Name = *****
REMARK  6 active torsions:
REMARK  status: ('A' for Active; 'I' for Inactive)
REMARK    1  A    between atoms: C_1  and  C_2
REMARK    2  A    between atoms: C_2  and  C_3
REMARK    3  A    between atoms: C_2  and  N_9
REMARK    4  A    between atoms: N_9  and  C_10
REMARK    5  A    between atoms: N_9  and  O_18
REMARK    6  A    between atoms: C_10  and  C_12
REMARK                            x       y       z     vdW  Elec       q    Type
REMARK                         _______ _______ _______ _____ _____    ______ ____
ROOT
ATOM      1  N   UNL     1      87.441  63.078  87.148  0.00  0.00    +0.000 N 
ENDROOT
BRANCH   1   3
ATOM      2  C   UNL     1      87.528  65.567  87.046  0.00  0.00    +0.000 C 
ATOM      3  C   UNL     1      88.080  64.298  87.706  0.00  0.00    +0.000 C 
BRANCH   3   4
ATOM      4  C   UNL     1      88.003  64.364  89.228  0.00  0.00    +0.000 A 
ATOM      5  C   UNL     1      89.011  63.828  90.046  0.00  0.00    +0.000 A 
ATOM      6  C   UNL     1      88.916  63.892  91.438  0.00  0.00    +0.000 A 
ATOM      7  C   UNL     1      87.812  64.494  92.035  0.00  0.00    +0.000 A 
ATOM      8  C   UNL     1      86.804  65.035  91.242  0.00  0.00    +0.000 A 
ATOM      9  C   UNL     1      86.898  64.971  89.849  0.00  0.00    +0.000 A 
ENDBRANCH   3   4
ENDBRANCH   1   3
BRANCH   1  10
ATOM     10  C   UNL     1      86.068  62.848  87.058  0.00  0.00    +0.000 C 
ATOM     11  S   UNL     1      85.112  63.206  85.715  0.00  0.00    +0.000 S 
BRANCH  10  12
ATOM     12  C   UNL     1      85.413  62.330  88.285  0.00  0.00    +0.000 A 
ATOM     13  C   UNL     1      86.101  61.436  89.112  0.00  0.00    +0.000 A 
ATOM     14  C   UNL     1      85.478  60.944  90.258  0.00  0.00    +0.000 A 
ATOM     15  C   UNL     1      84.177  61.344  90.572  0.00  0.00    +0.000 A 
ATOM     16  C   UNL     1      83.493  62.235  89.742  0.00  0.00    +0.000 A 
ATOM     17  C   UNL     1      84.109  62.732  88.593  0.00  0.00    +0.000 A 
ENDBRANCH  10  12
ENDBRANCH   1  10
BRANCH   1  18
ATOM     18  O   UNL     1      88.212  62.503  86.103  0.00  0.00    +0.000 OA
ATOM     19  H   UNL     1      88.521  61.625  86.375  0.00  0.00    +0.000 HD
ENDBRANCH   1  18
TORSDOF 5
ENDMDL
