MODEL 1
REMARK VINA RESULT:      -4.8      0.000      0.000
REMARK  Name = *****
REMARK  2 active torsions:
REMARK  status: ('A' for Active; 'I' for Inactive)
REMARK    1  A    between atoms: C_4  and  C_9
REMARK    2  A    between atoms: C_5  and  C_7
REMARK                            x       y       z     vdW  Elec       q    Type
REMARK                         _______ _______ _______ _____ _____    ______ ____
ROOT
ATOM      1  C   UNL     1     102.103 126.075  82.481  0.00  0.00    +0.000 A 
ATOM      2  N   UNL     1     102.626 125.145  83.260  0.00  0.00    +0.000 NA
ATOM      3  C   UNL     1     103.552 124.524  82.462  0.00  0.00    +0.000 A 
ATOM      4  C   UNL     1     104.430 123.465  82.720  0.00  0.00    +0.000 A 
ATOM      5  C   UNL     1     105.274 123.038  81.683  0.00  0.00    +0.000 A 
ATOM      6  C   UNL     1     105.240 123.651  80.422  0.00  0.00    +0.000 A 
ATOM      7  C   UNL     1     104.365 124.710  80.150  0.00  0.00    +0.000 A 
ATOM      8  C   UNL     1     103.549 125.101  81.204  0.00  0.00    +0.000 A 
ATOM      9  O   UNL     1     102.616 126.095  81.204  0.00  0.00    +0.000 OA
ENDROOT
BRANCH   1  13
ATOM     10  C   UNL     1      98.976 128.899  83.287  0.00  0.00    +0.000 A 
ATOM     11  C   UNL     1      98.695 127.687  82.673  0.00  0.00    +0.000 A 
ATOM     12  C   UNL     1      99.728 126.783  82.417  0.00  0.00    +0.000 A 
ATOM     13  C   UNL     1     101.062 127.068  82.772  0.00  0.00    +0.000 A 
ATOM     14  C   UNL     1     101.344 128.302  83.406  0.00  0.00    +0.000 A 
ATOM     15  C   UNL     1     100.287 129.206  83.646  0.00  0.00    +0.000 A 
BRANCH  14  16
ATOM     16  C   UNL     1     102.737 128.734  83.793  0.00  0.00    +0.000 C 
ATOM     17 CL   UNL     1     102.715 130.372  84.480  0.00  0.00    +0.000 Cl
ENDBRANCH  14  16
ENDBRANCH   1  13
TORSDOF 2
ENDMDL
