MODEL 1
REMARK VINA RESULT:      -4.2      0.000      0.000
REMARK  Name = *****
REMARK  4 active torsions:
REMARK  status: ('A' for Active; 'I' for Inactive)
REMARK    1  A    between atoms: C_1  and  C_2
REMARK    2  A    between atoms: N_7  and  C_8
REMARK    3  A    between atoms: C_8  and  C_9
REMARK    4  A    between atoms: C_8  and  C_10
REMARK                            x       y       z     vdW  Elec       q    Type
REMARK                         _______ _______ _______ _____ _____    ______ ____
ROOT
ATOM      1  C   UNL     1      89.201  70.791  85.728  0.00  0.00    +0.000 C 
ATOM      2  C   UNL     1      89.585  69.872  86.892  0.00  0.00    +0.000 C 
ATOM      3  C   UNL     1      89.015  68.453  86.707  0.00  0.00    +0.000 C 
ATOM      4  C   UNL     1      87.501  68.377  86.922  0.00  0.00    +0.000 C 
ATOM      5  C   UNL     1      87.093  68.950  88.275  0.00  0.00    +0.000 C 
ATOM      6  C   UNL     1      87.648  70.353  88.399  0.00  0.00    +0.000 C 
ATOM      7  N   UNL     1      86.990  71.434  88.626  0.00  0.00    +0.000 NA
ATOM      8  C   UNL     1      89.154  70.466  88.237  0.00  0.00    +0.000 C 
ENDROOT
BRANCH   7   9
ATOM      9  C   UNL     1      85.532  71.452  88.765  0.00  0.00    +0.000 C 
ATOM     10  C   UNL     1      85.155  72.309  89.974  0.00  0.00    +0.000 C 
BRANCH   9  11
ATOM     11  C   UNL     1      84.862  72.009  87.515  0.00  0.00    +0.000 A 
ATOM     12  C   UNL     1      85.451  71.813  86.256  0.00  0.00    +0.000 A 
ATOM     13  C   UNL     1      84.836  72.297  85.099  0.00  0.00    +0.000 A 
ATOM     14  C   UNL     1      83.624  72.978  85.185  0.00  0.00    +0.000 A 
ATOM     15  C   UNL     1      83.024  73.174  86.426  0.00  0.00    +0.000 A 
ATOM     16  C   UNL     1      83.638  72.690  87.583  0.00  0.00    +0.000 A 
ENDBRANCH   9  11
ENDBRANCH   7   9
TORSDOF 2
ENDMDL
