REMARK  Name = *****
REMARK  4 active torsions:
REMARK  status: ('A' for Active; 'I' for Inactive)
REMARK    1  A    between atoms: C_1  and  S_2
REMARK    2  A    between atoms: S_2  and  C_5
REMARK    3  A    between atoms: C_5  and  C_13
REMARK    4  A    between atoms: C_6  and  C_7
REMARK                            x       y       z     vdW  Elec       q    Type
REMARK                         _______ _______ _______ _____ _____    ______ ____
ROOT
ATOM      1  C   UNL     1       3.364   1.350   0.610  0.00  0.00    +0.000 C 
ATOM      2  C   UNL     1       2.454   2.273   0.964  0.00  0.00    +0.000 C 
ENDROOT
BRANCH   2   3
ATOM      3  C   UNL     1       1.000   2.136   1.057  0.00  0.00    +0.000 A 
ATOM      4  C   UNL     1       0.405   1.313   2.018  0.00  0.00    +0.000 A 
ATOM      5  C   UNL     1      -0.986   1.209   2.092  0.00  0.00    +0.000 A 
ATOM      6  C   UNL     1      -1.789   1.939   1.217  0.00  0.00    +0.000 A 
ATOM      7  C   UNL     1      -1.203   2.777   0.270  0.00  0.00    +0.000 A 
ATOM      8  C   UNL     1       0.187   2.880   0.193  0.00  0.00    +0.000 A 
ENDBRANCH   2   3
BRANCH   1   9
ATOM      9  C   UNL     1       4.797   1.655   0.623  0.00  0.00    +0.000 A 
ATOM     10  C   UNL     1       5.595   1.268   1.709  0.00  0.00    +0.000 A 
ATOM     11  C   UNL     1       6.952   1.595   1.739  0.00  0.00    +0.000 A 
ATOM     12  C   UNL     1       7.519   2.319   0.691  0.00  0.00    +0.000 A 
ATOM     13  C   UNL     1       6.731   2.719  -0.387  0.00  0.00    +0.000 A 
ATOM     14  C   UNL     1       5.373   2.394  -0.420  0.00  0.00    +0.000 A 
ENDBRANCH   1   9
BRANCH   1  16
ATOM     15  C   UNL     1       1.846  -0.196  -1.124  0.00  0.00    +0.000 C 
ATOM     16  S   UNL     1       3.051  -0.301   0.173  0.00  0.00    +0.000 S 
ATOM     17  O   UNL     1       2.434  -0.990   1.293  0.00  0.00    +0.000 OA
ATOM     18  O   UNL     1       4.225  -0.890  -0.452  0.00  0.00    +0.000 OA
ENDBRANCH   1  16
TORSDOF 3
