MODEL 1
REMARK VINA RESULT:      -4.5      0.000      0.000
REMARK  Name = *****
REMARK  3 active torsions:
REMARK  status: ('A' for Active; 'I' for Inactive)
REMARK    1  A    between atoms: C_3  and  N_8
REMARK    2  A    between atoms: N_8  and  C_9
REMARK    3  A    between atoms: C_9  and  C_10
REMARK                            x       y       z     vdW  Elec       q    Type
REMARK                         _______ _______ _______ _____ _____    ______ ____
ROOT
ATOM      1  N   UNL     1      89.263  63.735  88.034  0.00  0.00    +0.000 N 
ATOM      2  H   UNL     1      90.209  63.538  88.217  0.00  0.00    +0.000 HD
ENDROOT
BRANCH   1   5
ATOM      3  C   UNL     1      87.455  64.086  91.244  0.00  0.00    +0.000 A 
ATOM      4  C   UNL     1      88.416  64.206  90.235  0.00  0.00    +0.000 A 
ATOM      5  C   UNL     1      88.300  63.508  89.022  0.00  0.00    +0.000 A 
ATOM      6  C   UNL     1      87.151  62.736  88.824  0.00  0.00    +0.000 A 
ATOM      7  C   UNL     1      86.189  62.613  89.833  0.00  0.00    +0.000 A 
ATOM      8  C   UNL     1      86.340  63.279  91.045  0.00  0.00    +0.000 A 
ATOM      9 CL   UNL     1      84.798  61.633  89.568  0.00  0.00    +0.000 Cl
ENDBRANCH   1   5
BRANCH   1  10
ATOM     10  C   UNL     1      88.869  64.262  86.734  0.00  0.00    +0.000 C 
BRANCH  10  11
ATOM     11  C   UNL     1      88.923  65.773  86.772  0.00  0.00    +0.000 A 
ATOM     12  C   UNL     1      87.871  66.517  87.327  0.00  0.00    +0.000 A 
ATOM     13  C   UNL     1      87.930  67.912  87.357  0.00  0.00    +0.000 A 
ATOM     14  C   UNL     1      89.041  68.572  86.832  0.00  0.00    +0.000 A 
ATOM     15  C   UNL     1      90.091  67.848  86.274  0.00  0.00    +0.000 A 
ATOM     16  C   UNL     1      90.033  66.453  86.245  0.00  0.00    +0.000 A 
ATOM     17 CL   UNL     1      89.110  70.290  86.868  0.00  0.00    +0.000 Cl
ENDBRANCH  10  11
ENDBRANCH   1  10
TORSDOF 3
ENDMDL
