REMARK  Name = *****
REMARK  5 active torsions:
REMARK  status: ('A' for Active; 'I' for Inactive)
REMARK    1  A    between atoms: C_3  and  C_9
REMARK    2  A    between atoms: C_5  and  N_7
REMARK    3  A    between atoms: N_7  and  O_8
REMARK    4  A    between atoms: C_10  and  C_11
REMARK    5  A    between atoms: C_13  and  N_17
REMARK                            x       y       z     vdW  Elec       q    Type
REMARK                         _______ _______ _______ _____ _____    ______ ____
ROOT
ATOM      1  C   UNL     1       1.289  -0.041  -0.509  0.00  0.00    +0.000 A 
ATOM      2  C   UNL     1       0.468  -1.169  -0.539  0.00  0.00    +0.000 A 
ATOM      3  C   UNL     1      -0.815  -1.127   0.020  0.00  0.00    +0.000 A 
ATOM      4  C   UNL     1      -1.266   0.074   0.590  0.00  0.00    +0.000 A 
ATOM      5  C   UNL     1      -0.441   1.205   0.655  0.00  0.00    +0.000 A 
ATOM      6  C   UNL     1       0.832   1.140   0.078  0.00  0.00    +0.000 A 
ENDROOT
BRANCH   5   7
ATOM      7  N   UNL     1      -0.904   2.440   1.166  0.00  0.00    +0.000 N 
ATOM      8  H   UNL     1      -0.402   3.269   0.992  0.00  0.00    +0.000 HD
BRANCH   7   9
ATOM      9  O   UNL     1      -2.077   2.475   1.919  0.00  0.00    +0.000 OA
ATOM     10  H   UNL     1      -2.440   1.579   1.994  0.00  0.00    +0.000 HD
ENDBRANCH   7   9
ENDBRANCH   5   7
BRANCH   3  11
ATOM     11  C   UNL     1      -1.731  -2.277  -0.028  0.00  0.00    +0.000 C 
ATOM     12  C   UNL     1      -1.337  -3.554   0.114  0.00  0.00    +0.000 C 
BRANCH  12  13
ATOM     13  C   UNL     1      -2.255  -4.703   0.088  0.00  0.00    +0.000 A 
ATOM     14  C   UNL     1      -3.366  -4.757  -0.767  0.00  0.00    +0.000 A 
ATOM     15  C   UNL     1      -4.212  -5.878  -0.787  0.00  0.00    +0.000 A 
ATOM     16  C   UNL     1      -3.913  -6.965   0.042  0.00  0.00    +0.000 A 
ATOM     17  C   UNL     1      -2.801  -6.932   0.884  0.00  0.00    +0.000 A 
ATOM     18  C   UNL     1      -1.975  -5.807   0.903  0.00  0.00    +0.000 A 
BRANCH  15  19
ATOM     19  N   UNL     1      -5.307  -5.972  -1.623  0.00  0.00    +0.000 NA
ATOM     20  O   UNL     1      -5.875  -4.891  -1.821  0.00  0.00    +0.000 OA
ENDBRANCH  15  19
ENDBRANCH  12  13
ENDBRANCH   3  11
TORSDOF 5
