MODEL 1
REMARK VINA RESULT:      -4.5      0.000      0.000
REMARK  Name = *****
REMARK  4 active torsions:
REMARK  status: ('A' for Active; 'I' for Inactive)
REMARK    1  A    between atoms: C_4  and  C_7
REMARK    2  A    between atoms: C_7  and  C_8
REMARK    3  A    between atoms: C_8  and  C_9
REMARK    4  A    between atoms: C_9  and  C_10
REMARK                            x       y       z     vdW  Elec       q    Type
REMARK                         _______ _______ _______ _____ _____    ______ ____
ROOT
ATOM      1  C   UNL     1      87.843  69.782  88.160  0.00  0.00    +0.000 C 
ENDROOT
BRANCH   1   2
ATOM      2  C   UNL     1      87.178  71.055  88.688  0.00  0.00    +0.000 C 
BRANCH   2   6
ATOM      3  C   UNL     1      84.150  72.484  85.972  0.00  0.00    +0.000 A 
ATOM      4  C   UNL     1      83.943  72.557  87.348  0.00  0.00    +0.000 A 
ATOM      5  C   UNL     1      84.925  72.099  88.229  0.00  0.00    +0.000 A 
ATOM      6  C   UNL     1      86.125  71.568  87.739  0.00  0.00    +0.000 A 
ATOM      7  C   UNL     1      86.320  71.493  86.353  0.00  0.00    +0.000 A 
ATOM      8  C   UNL     1      85.337  71.951  85.475  0.00  0.00    +0.000 A 
ENDBRANCH   2   6
ENDBRANCH   1   2
BRANCH   1   9
ATOM      9  C   UNL     1      89.298  70.044  87.768  0.00  0.00    +0.000 C 
BRANCH   9  10
ATOM     10  C   UNL     1      89.587  69.589  86.362  0.00  0.00    +0.000 A 
ATOM     11  C   UNL     1      89.646  68.228  86.048  0.00  0.00    +0.000 A 
ATOM     12  C   UNL     1      89.933  67.868  84.740  0.00  0.00    +0.000 A 
ATOM     13  N   UNL     1      90.164  68.741  83.740  0.00  0.00    +0.000 NA
ATOM     14  C   UNL     1      90.110  70.048  84.068  0.00  0.00    +0.000 A 
ATOM     15  C   UNL     1      89.832  70.515  85.345  0.00  0.00    +0.000 A 
ATOM     16 CL   UNL     1      90.019  66.217  84.285  0.00  0.00    +0.000 Cl
ENDBRANCH   9  10
ENDBRANCH   1   9
TORSDOF 4
ENDMDL
