MODEL 1
REMARK VINA RESULT:      -4.6      0.000      0.000
REMARK  Name = *****
REMARK  6 active torsions:
REMARK  status: ('A' for Active; 'I' for Inactive)
REMARK    1  A    between atoms: C_1  and  C_2
REMARK    2  A    between atoms: C_3  and  C_18
REMARK    3  A    between atoms: C_4  and  O_9
REMARK    4  A    between atoms: C_5  and  C_8
REMARK    5  A    between atoms: O_9  and  C_10
REMARK    6  A    between atoms: C_10  and  C_12
REMARK                            x       y       z     vdW  Elec       q    Type
REMARK                         _______ _______ _______ _____ _____    ______ ____
ROOT
ATOM      1  C   UNL     1      88.539  64.922  87.795  0.00  0.00    +0.000 C 
ATOM      2  C   UNL     1      88.876  66.052  86.861  0.00  0.00    +0.000 A 
ATOM      3  C   UNL     1      88.100  67.229  86.808  0.00  0.00    +0.000 A 
ATOM      4  C   UNL     1      88.457  68.222  85.876  0.00  0.00    +0.000 A 
ATOM      5  C   UNL     1      89.599  68.119  85.066  0.00  0.00    +0.000 A 
ATOM      6  C   UNL     1      90.363  66.953  85.151  0.00  0.00    +0.000 A 
ATOM      7  C   UNL     1      90.006  65.934  86.035  0.00  0.00    +0.000 A 
ATOM      8  C   UNL     1      89.974  69.197  84.093  0.00  0.00    +0.000 C 
ATOM      9  C   UNL     1      86.877  67.394  87.670  0.00  0.00    +0.000 C 
ENDROOT
BRANCH   4  10
ATOM     10  O   UNL     1      87.695  69.399  85.804  0.00  0.00    +0.000 OA
BRANCH  10  11
ATOM     11  C   UNL     1      88.020  70.329  86.773  0.00  0.00    +0.000 C 
ATOM     12  O   UNL     1      89.126  70.561  87.239  0.00  0.00    +0.000 OA
BRANCH  11  13
ATOM     13  C   UNL     1      86.788  71.047  87.207  0.00  0.00    +0.000 A 
ATOM     14  C   UNL     1      85.946  71.568  86.215  0.00  0.00    +0.000 A 
ATOM     15  C   UNL     1      84.779  72.250  86.567  0.00  0.00    +0.000 A 
ATOM     16  C   UNL     1      84.447  72.415  87.910  0.00  0.00    +0.000 A 
ATOM     17  C   UNL     1      85.278  71.900  88.903  0.00  0.00    +0.000 A 
ATOM     18  C   UNL     1      86.446  71.216  88.557  0.00  0.00    +0.000 A 
ENDBRANCH  11  13
ENDBRANCH  10  11
ENDBRANCH   4  10
TORSDOF 3
ENDMDL
