MODEL 1
REMARK VINA RESULT:      -4.8      0.000      0.000
REMARK  Name = *****
REMARK  3 active torsions:
REMARK  status: ('A' for Active; 'I' for Inactive)
REMARK    1  A    between atoms: C_4  and  C_9
REMARK    2  A    between atoms: C_5  and  C_7
REMARK    3  A    between atoms: C_10  and  C_11
REMARK                            x       y       z     vdW  Elec       q    Type
REMARK                         _______ _______ _______ _____ _____    ______ ____
ROOT
ATOM      1  C   UNL     1     102.008 126.212  82.186  0.00  0.00    +0.000 C 
ATOM      2  C   UNL     1     102.868 125.449  81.839  0.00  0.00    +0.000 C 
ENDROOT
BRANCH   2   3
ATOM      3  C   UNL     1     103.904 124.551  81.432  0.00  0.00    +0.000 A 
ATOM      4  C   UNL     1     104.494 124.686  80.171  0.00  0.00    +0.000 A 
ATOM      5  C   UNL     1     105.498 123.801  79.774  0.00  0.00    +0.000 A 
ATOM      6  C   UNL     1     105.904 122.791  80.638  0.00  0.00    +0.000 A 
ATOM      7  C   UNL     1     105.326 122.648  81.894  0.00  0.00    +0.000 A 
ATOM      8  C   UNL     1     104.321 123.531  82.295  0.00  0.00    +0.000 A 
ATOM      9  F   UNL     1     106.865 121.941  80.255  0.00  0.00    +0.000 F 
ENDBRANCH   2   3
BRANCH   1  13
ATOM     10  C   UNL     1      98.923 128.837  83.436  0.00  0.00    +0.000 A 
ATOM     11  C   UNL     1      98.629 127.671  82.732  0.00  0.00    +0.000 A 
ATOM     12  C   UNL     1      99.659 126.821  82.324  0.00  0.00    +0.000 A 
ATOM     13  C   UNL     1     100.994 127.129  82.616  0.00  0.00    +0.000 A 
ATOM     14  C   UNL     1     101.287 128.305  83.323  0.00  0.00    +0.000 A 
ATOM     15  C   UNL     1     100.248 129.155  83.732  0.00  0.00    +0.000 A 
BRANCH  14  16
ATOM     16  C   UNL     1     102.679 128.684  83.657  0.00  0.00    +0.000 C 
ATOM     17  O   UNL     1     102.974 129.818  84.018  0.00  0.00    +0.000 OA
ENDBRANCH  14  16
ENDBRANCH   1  13
TORSDOF 3
ENDMDL
