REMARK  Name = *****
REMARK  4 active torsions:
REMARK  status: ('A' for Active; 'I' for Inactive)
REMARK    1  A    between atoms: C_1  and  O_2
REMARK    2  A    between atoms: O_2  and  C_3
REMARK    3  A    between atoms: C_6  and  C_9
REMARK    4  A    between atoms: C_10  and  C_11
REMARK                            x       y       z     vdW  Elec       q    Type
REMARK                         _______ _______ _______ _____ _____    ______ ____
ROOT
ATOM      1  C   UNL     1       3.155   0.787   0.956  0.00  0.00    +0.000 A 
ATOM      2  C   UNL     1       2.674   0.849   2.264  0.00  0.00    +0.000 A 
ATOM      3  C   UNL     1       3.396   1.536   3.248  0.00  0.00    +0.000 A 
ATOM      4  C   UNL     1       4.610   2.161   2.941  0.00  0.00    +0.000 A 
ATOM      5  C   UNL     1       5.080   2.109   1.625  0.00  0.00    +0.000 A 
ATOM      6  C   UNL     1       4.359   1.422   0.644  0.00  0.00    +0.000 A 
ENDROOT
BRANCH   1   8
ATOM      7  C   UNL     1       1.320  -0.502   0.170  0.00  0.00    +0.000 C 
ATOM      8  O   UNL     1       2.553   0.153  -0.095  0.00  0.00    +0.000 OA
ENDBRANCH   1   8
BRANCH   4   9
ATOM      9  C   UNL     1       5.373   2.916   3.944  0.00  0.00    +0.000 C 
ATOM     10  C   UNL     1       5.616   2.460   5.185  0.00  0.00    +0.000 C 
BRANCH  10  11
ATOM     11  C   UNL     1       6.357   3.133   6.212  0.00  0.00    +0.000 A 
ATOM     12  C   UNL     1       6.828   4.429   6.142  0.00  0.00    +0.000 A 
ATOM     13  S   UNL     1       7.667   4.901   7.559  0.00  0.00    +0.000 S 
ATOM     14  C   UNL     1       7.406   3.375   8.285  0.00  0.00    +0.000 A 
ATOM     15  C   UNL     1       6.694   2.528   7.464  0.00  0.00    +0.000 A 
ENDBRANCH  10  11
ENDBRANCH   4   9
TORSDOF 3
