MODEL 1
REMARK VINA RESULT:      -4.1      0.000      0.000
REMARK  Name = *****
REMARK  4 active torsions:
REMARK  status: ('A' for Active; 'I' for Inactive)
REMARK    1  A    between atoms: C_1  and  O_2
REMARK    2  A    between atoms: O_2  and  C_3
REMARK    3  A    between atoms: C_3  and  C_10
REMARK    4  A    between atoms: C_11  and  C_12
REMARK                            x       y       z     vdW  Elec       q    Type
REMARK                         _______ _______ _______ _____ _____    ______ ____
ROOT
ATOM      1  C   UNL     1      90.105  66.314  86.080  0.00  0.00    +0.000 C 
ATOM      2  C   UNL     1      89.977  66.336  84.564  0.00  0.00    +0.000 C 
ATOM      3  C   UNL     1      91.246  65.811  85.185  0.00  0.00    +0.000 C 
ATOM      4  C   UNL     1      91.620  64.367  85.029  0.00  0.00    +0.000 C 
ATOM      5  C   UNL     1      90.959  63.725  83.814  0.00  0.00    +0.000 C 
ATOM      6  C   UNL     1      89.451  63.946  83.837  0.00  0.00    +0.000 C 
ATOM      7  C   UNL     1      89.106  65.430  83.745  0.00  0.00    +0.000 C 
ENDROOT
BRANCH   1   9
ATOM      8  C   UNL     1      89.605  68.670  86.226  0.00  0.00    +0.000 C 
ATOM      9  O   UNL     1      90.435  67.604  86.669  0.00  0.00    +0.000 OA
ENDBRANCH   1   9
BRANCH   1  10
ATOM     10  C   UNL     1      89.356  65.330  86.886  0.00  0.00    +0.000 C 
ATOM     11  C   UNL     1      88.250  65.568  87.613  0.00  0.00    +0.000 C 
BRANCH  11  12
ATOM     12  C   UNL     1      87.543  64.532  88.437  0.00  0.00    +0.000 C 
ATOM     13  C   UNL     1      86.719  65.156  89.534  0.00  0.00    +0.000 C 
ATOM     14  C   UNL     1      87.151  64.731  90.732  0.00  0.00    +0.000 C 
ATOM     15  C   UNL     1      88.257  63.825  90.545  0.00  0.00    +0.000 C 
ATOM     16  C   UNL     1      88.508  63.693  89.234  0.00  0.00    +0.000 C 
ENDBRANCH  11  12
ENDBRANCH   1  10
TORSDOF 3
ENDMDL
