MODEL 1
REMARK VINA RESULT:      -4.5      0.000      0.000
REMARK  Name = *****
REMARK  1 active torsions:
REMARK  status: ('A' for Active; 'I' for Inactive)
REMARK    1  A    between atoms: C_6  and  C_7
REMARK                            x       y       z     vdW  Elec       q    Type
REMARK                         _______ _______ _______ _____ _____    ______ ____
ROOT
ATOM      1  C   UNL     1     103.947 124.529  81.344  0.00  0.00    +0.000 C 
ATOM      2  C   UNL     1     103.432 125.565  80.333  0.00  0.00    +0.000 C 
ATOM      3  C   UNL     1     103.580 126.994  80.759  0.00  0.00    +0.000 C 
ATOM      4  C   UNL     1     104.808 127.343  81.670  0.00  0.00    +0.000 C 
ATOM      5  C   UNL     1     103.457 127.462  82.084  0.00  0.00    +0.000 C 
ATOM      6  C   UNL     1     102.673 127.829  83.079  0.00  0.00    +0.000 C 
ATOM      7  C   UNL     1     105.589 126.207  82.168  0.00  0.00    +0.000 C 
ATOM      8  C   UNL     1     105.227 124.920  82.033  0.00  0.00    +0.000 C 
ENDROOT
BRANCH   6   9
ATOM      9  C   UNL     1     101.206 127.839  83.039  0.00  0.00    +0.000 A 
ATOM     10  C   UNL     1     100.447 128.931  83.475  0.00  0.00    +0.000 A 
ATOM     11  C   UNL     1      99.052 128.910  83.391  0.00  0.00    +0.000 A 
ATOM     12  C   UNL     1      98.401 127.799  82.858  0.00  0.00    +0.000 A 
ATOM     13  C   UNL     1      99.145 126.712  82.404  0.00  0.00    +0.000 A 
ATOM     14  C   UNL     1     100.539 126.735  82.489  0.00  0.00    +0.000 A 
ENDBRANCH   6   9
TORSDOF 1
ENDMDL
