MODEL 1
REMARK VINA RESULT:      -4.7      0.000      0.000
REMARK  Name = *****
REMARK  2 active torsions:
REMARK  status: ('A' for Active; 'I' for Inactive)
REMARK    1  A    between atoms: C_2  and  C_10
REMARK    2  A    between atoms: N_3  and  C_4
REMARK                            x       y       z     vdW  Elec       q    Type
REMARK                         _______ _______ _______ _____ _____    ______ ____
ROOT
ATOM      1  C   UNL     1     103.515 127.347  81.637  0.00  0.00    +0.000 C 
ATOM      2  C   UNL     1     102.584 126.808  82.713  0.00  0.00    +0.000 C 
ATOM      3  N   UNL     1     102.889 126.043  81.502  0.00  0.00    +0.000 N 
ENDROOT
BRANCH   2   4
ATOM      4  C   UNL     1     101.195 127.372  82.854  0.00  0.00    +0.000 A 
ATOM      5  C   UNL     1     100.967 128.629  83.441  0.00  0.00    +0.000 A 
ATOM      6  C   UNL     1      99.678 129.151  83.552  0.00  0.00    +0.000 A 
ATOM      7  C   UNL     1      98.584 128.434  83.079  0.00  0.00    +0.000 A 
ATOM      8  C   UNL     1      98.782 127.188  82.490  0.00  0.00    +0.000 A 
ATOM      9  C   UNL     1     100.075 126.668  82.378  0.00  0.00    +0.000 A 
ATOM     10 CL   UNL     1      99.439 130.694  84.276  0.00  0.00    +0.000 Cl
ENDBRANCH   2   4
BRANCH   3  11
ATOM     11  C   UNL     1     103.685 124.876  81.597  0.00  0.00    +0.000 A 
ATOM     12  C   UNL     1     103.841 124.208  82.820  0.00  0.00    +0.000 A 
ATOM     13  C   UNL     1     104.596 123.035  82.903  0.00  0.00    +0.000 A 
ATOM     14  C   UNL     1     105.188 122.505  81.758  0.00  0.00    +0.000 A 
ATOM     15  C   UNL     1     105.017 123.141  80.530  0.00  0.00    +0.000 A 
ATOM     16  C   UNL     1     104.262 124.314  80.451  0.00  0.00    +0.000 A 
ENDBRANCH   3  11
TORSDOF 2
ENDMDL
