MODEL 1
REMARK VINA RESULT:      -4.7      0.000      0.000
REMARK  Name = *****
REMARK  4 active torsions:
REMARK  status: ('A' for Active; 'I' for Inactive)
REMARK    1  A    between atoms: C_1  and  C_2
REMARK    2  A    between atoms: C_7  and  C_8
REMARK    3  A    between atoms: C_9  and  C_10
REMARK    4  A    between atoms: C_11  and  N_15
REMARK                            x       y       z     vdW  Elec       q    Type
REMARK                         _______ _______ _______ _____ _____    ______ ____
ROOT
ATOM      1  C   UNL     1     102.153 126.135  82.290  0.00  0.00    +0.000 C 
ATOM      2  C   UNL     1     103.030 125.376  81.977  0.00  0.00    +0.000 C 
ENDROOT
BRANCH   1   9
ATOM      3  C   UNL     1     102.787 128.680  83.622  0.00  0.00    +0.000 C 
ATOM      4  C   UNL     1     101.379 128.263  83.294  0.00  0.00    +0.000 A 
ATOM      5  C   UNL     1     100.310 129.108  83.629  0.00  0.00    +0.000 A 
ATOM      6  C   UNL     1      98.993 128.744  83.338  0.00  0.00    +0.000 A 
ATOM      7  C   UNL     1      98.730 127.531  82.708  0.00  0.00    +0.000 A 
ATOM      8  C   UNL     1      99.781 126.681  82.369  0.00  0.00    +0.000 A 
ATOM      9  C   UNL     1     101.104 127.039  82.657  0.00  0.00    +0.000 A 
ENDBRANCH   1   9
BRANCH   2  10
ATOM     10  C   UNL     1     104.060 124.476  81.608  0.00  0.00    +0.000 C 
ATOM     11  C   UNL     1     104.719 123.674  82.459  0.00  0.00    +0.000 C 
ATOM     12  C   UNL     1     105.719 122.817  81.732  0.00  0.00    +0.000 C 
ATOM     13  C   UNL     1     105.302 122.979  80.272  0.00  0.00    +0.000 C 
ATOM     14  C   UNL     1     104.538 124.300  80.201  0.00  0.00    +0.000 C 
BRANCH  11  15
ATOM     15  N   UNL     1     104.493 123.532  83.801  0.00  0.00    +0.000 NA
ATOM     16  C   UNL     1     104.163 122.441  84.083  0.00  0.00    +0.000 C 
ATOM     17  O   UNL     1     103.821 121.350  84.361  0.00  0.00    +0.000 OA
ENDBRANCH  11  15
ENDBRANCH   2  10
TORSDOF 3
ENDMDL
