MODEL 1
REMARK VINA RESULT:      -4.2      0.000      0.000
REMARK  Name = *****
REMARK  5 active torsions:
REMARK  status: ('A' for Active; 'I' for Inactive)
REMARK    1  A    between atoms: C_1  and  C_2
REMARK    2  A    between atoms: C_2  and  C_4
REMARK    3  A    between atoms: C_4  and  C_5
REMARK    4  A    between atoms: C_4  and  N_12
REMARK    5  A    between atoms: C_5  and  C_6
REMARK                            x       y       z     vdW  Elec       q    Type
REMARK                         _______ _______ _______ _____ _____    ______ ____
ROOT
ATOM      1  C   UNL     1     103.903 127.568  81.606  0.00  0.00    +0.000 C 
ENDROOT
BRANCH   1   2
ATOM      2  N   UNL     1     104.808 126.484  81.181  0.00  0.00    +0.000 N 
ATOM      3  C   UNL     1     105.816 126.030  81.997  0.00  0.00    +0.000 C 
ATOM      4  O   UNL     1     106.034 126.385  83.151  0.00  0.00    +0.000 OA
ATOM      5  C   UNL     1     106.627 124.942  81.344  0.00  0.00    +0.000 C 
ATOM      6  S   UNL     1     105.584 124.317  80.024  0.00  0.00    +0.000 S 
ATOM      7  C   UNL     1     104.307 125.447  80.433  0.00  0.00    +0.000 C 
ATOM      8  O   UNL     1     103.145 125.211  80.146  0.00  0.00    +0.000 OA
ENDBRANCH   1   2
BRANCH   1  10
ATOM      9  C   UNL     1     105.172 129.371  80.284  0.00  0.00    +0.000 C 
ATOM     10  C   UNL     1     104.636 128.923  81.619  0.00  0.00    +0.000 C 
ATOM     11  C   UNL     1     104.838 129.672  82.720  0.00  0.00    +0.000 C 
ENDBRANCH   1  10
BRANCH   1  12
ATOM     12  C   UNL     1     103.140 127.371  82.955  0.00  0.00    +0.000 C 
BRANCH  12  13
ATOM     13  C   UNL     1     101.640 127.597  82.957  0.00  0.00    +0.000 A 
ATOM     14  C   UNL     1     100.773 126.653  82.390  0.00  0.00    +0.000 A 
ATOM     15  C   UNL     1      99.391 126.858  82.390  0.00  0.00    +0.000 A 
ATOM     16  C   UNL     1      98.857 128.003  82.974  0.00  0.00    +0.000 A 
ATOM     17  C   UNL     1      99.702 128.937  83.567  0.00  0.00    +0.000 A 
ATOM     18  C   UNL     1     101.083 128.733  83.563  0.00  0.00    +0.000 A 
ENDBRANCH  12  13
ENDBRANCH   1  12
TORSDOF 4
ENDMDL
