MODEL 1
REMARK VINA RESULT:      -4.0      0.000      0.000
REMARK  Name = *****
REMARK  2 active torsions:
REMARK  status: ('A' for Active; 'I' for Inactive)
REMARK    1  A    between atoms: C_4  and  N_7
REMARK    2  A    between atoms: C_8  and  C_9
REMARK                            x       y       z     vdW  Elec       q    Type
REMARK                         _______ _______ _______ _____ _____    ______ ____
ROOT
ATOM      1  N   UNL     1     101.878 125.816  82.437  0.00  0.00    +0.000 NA
ATOM      2  C   UNL     1     102.796 126.089  81.568  0.00  0.00    +0.000 C 
ENDROOT
BRANCH   1   6
ATOM      3  C   UNL     1      99.203 128.935  83.310  0.00  0.00    +0.000 A 
ATOM      4  C   UNL     1      98.742 127.777  82.686  0.00  0.00    +0.000 A 
ATOM      5  C   UNL     1      99.631 126.739  82.397  0.00  0.00    +0.000 A 
ATOM      6  C   UNL     1     100.985 126.859  82.719  0.00  0.00    +0.000 A 
ATOM      7  C   UNL     1     101.436 128.015  83.360  0.00  0.00    +0.000 A 
ATOM      8  C   UNL     1     100.550 129.054  83.650  0.00  0.00    +0.000 A 
ENDBRANCH   1   6
BRANCH   2   9
ATOM      9  C   UNL     1     103.763 125.065  81.219  0.00  0.00    +0.000 A 
ATOM     10  C   UNL     1     104.104 124.038  82.078  0.00  0.00    +0.000 A 
ATOM     11  S   UNL     1     105.268 122.973  81.411  0.00  0.00    +0.000 S 
ATOM     12  C   UNL     1     105.334 123.871  79.957  0.00  0.00    +0.000 A 
ATOM     13  C   UNL     1     104.486 124.957  79.985  0.00  0.00    +0.000 A 
ENDBRANCH   2   9
TORSDOF 2
ENDMDL
