MODEL 1
REMARK VINA RESULT:      -4.3      0.000      0.000
REMARK  Name = *****
REMARK  3 active torsions:
REMARK  status: ('A' for Active; 'I' for Inactive)
REMARK    1  A    between atoms: C_4  and  C_7
REMARK    2  A    between atoms: C_8  and  O_9
REMARK    3  A    between atoms: O_9  and  C_10
REMARK                            x       y       z     vdW  Elec       q    Type
REMARK                         _______ _______ _______ _____ _____    ______ ____
ROOT
ATOM      1  C   UNL     1     105.280 124.149  80.314  0.00  0.00    +0.000 C 
ATOM      2  C   UNL     1     104.439 125.110  79.908  0.00  0.00    +0.000 C 
ENDROOT
BRANCH   1   6
ATOM      3  C   UNL     1     104.301 120.923  82.950  0.00  0.00    +0.000 A 
ATOM      4  C   UNL     1     104.477 122.203  83.470  0.00  0.00    +0.000 A 
ATOM      5  C   UNL     1     104.806 123.264  82.623  0.00  0.00    +0.000 A 
ATOM      6  C   UNL     1     104.975 123.055  81.248  0.00  0.00    +0.000 A 
ATOM      7  C   UNL     1     104.779 121.766  80.735  0.00  0.00    +0.000 A 
ATOM      8  C   UNL     1     104.449 120.704  81.582  0.00  0.00    +0.000 A 
ENDBRANCH   1   6
BRANCH   2   9
ATOM      9  O   UNL     1     103.140 125.236  80.341  0.00  0.00    +0.000 OA
BRANCH   9  10
ATOM     10  C   UNL     1     102.891 126.195  81.291  0.00  0.00    +0.000 A 
ATOM     11  C   UNL     1     103.693 127.332  81.415  0.00  0.00    +0.000 A 
ATOM     12  C   UNL     1     103.375 128.299  82.370  0.00  0.00    +0.000 A 
ATOM     13  C   UNL     1     102.253 128.134  83.183  0.00  0.00    +0.000 A 
ATOM     14  C   UNL     1     101.442 127.008  83.040  0.00  0.00    +0.000 A 
ATOM     15  C   UNL     1     101.757 126.040  82.086  0.00  0.00    +0.000 A 
ENDBRANCH   9  10
ENDBRANCH   2   9
TORSDOF 3
ENDMDL
