MODEL 1
REMARK VINA RESULT:      -4.0      0.000      0.000
REMARK  Name = *****
REMARK  4 active torsions:
REMARK  status: ('A' for Active; 'I' for Inactive)
REMARK    1  A    between atoms: C_2  and  C_3
REMARK    2  A    between atoms: C_2  and  C_9
REMARK    3  A    between atoms: C_9  and  S_11
REMARK    4  A    between atoms: S_11  and  C_12
REMARK                            x       y       z     vdW  Elec       q    Type
REMARK                         _______ _______ _______ _____ _____    ______ ____
ROOT
ATOM      1  C   UNL     1      89.936  70.089  83.514  0.00  0.00    +0.000 C 
ATOM      2  O   UNL     1      91.101  70.068  83.136  0.00  0.00    +0.000 OA
ENDROOT
BRANCH   1   4
ATOM      3  C   UNL     1      89.350  72.467  83.854  0.00  0.00    +0.000 C 
ATOM      4  C   UNL     1      89.363  71.211  84.337  0.00  0.00    +0.000 C 
BRANCH   4   5
ATOM      5  C   UNL     1      88.782  70.906  85.644  0.00  0.00    +0.000 C 
ATOM      6  C   UNL     1      89.554  70.556  86.691  0.00  0.00    +0.000 C 
ATOM      7  C   UNL     1      89.016  70.240  88.058  0.00  0.00    +0.000 C 
ATOM      8  C   UNL     1      87.495  70.086  88.096  0.00  0.00    +0.000 C 
ATOM      9  C   UNL     1      86.813  71.137  87.228  0.00  0.00    +0.000 C 
ATOM     10  C   UNL     1      87.279  71.028  85.773  0.00  0.00    +0.000 C 
ENDBRANCH   4   5
ENDBRANCH   1   4
BRANCH   1  11
ATOM     11  S   UNL     1      88.818  68.799  83.069  0.00  0.00    +0.000 S 
BRANCH  11  12
ATOM     12  C   UNL     1      88.888  67.798  84.543  0.00  0.00    +0.000 A 
ATOM     13  C   UNL     1      87.723  67.440  85.231  0.00  0.00    +0.000 A 
ATOM     14  C   UNL     1      87.800  66.656  86.384  0.00  0.00    +0.000 A 
ATOM     15  C   UNL     1      89.040  66.220  86.850  0.00  0.00    +0.000 A 
ATOM     16  C   UNL     1      90.203  66.564  86.162  0.00  0.00    +0.000 A 
ATOM     17  C   UNL     1      90.127  67.349  85.010  0.00  0.00    +0.000 A 
ENDBRANCH  11  12
ENDBRANCH   1  11
TORSDOF 4
ENDMDL
