MODEL 1
REMARK VINA RESULT:      -4.2      0.000      0.000
REMARK  Name = *****
REMARK  2 active torsions:
REMARK  status: ('A' for Active; 'I' for Inactive)
REMARK    1  A    between atoms: C_8  and  S_10
REMARK    2  A    between atoms: S_10  and  C_11
REMARK                            x       y       z     vdW  Elec       q    Type
REMARK                         _______ _______ _______ _____ _____    ______ ____
ROOT
ATOM      1  C   UNL     1      90.306  64.618  83.290  0.00  0.00    +0.000 A 
ATOM      2  C   UNL     1      91.415  64.454  84.132  0.00  0.00    +0.000 A 
ATOM      3  C   UNL     1      91.612  65.277  85.247  0.00  0.00    +0.000 A 
ATOM      4  C   UNL     1      90.644  66.252  85.454  0.00  0.00    +0.000 A 
ATOM      5  C   UNL     1      89.536  66.448  84.648  0.00  0.00    +0.000 A 
ATOM      6  C   UNL     1      89.351  65.616  83.535  0.00  0.00    +0.000 A 
ATOM      7  N   UNL     1      88.788  67.489  85.131  0.00  0.00    +0.000 NA
ATOM      8  C   UNL     1      89.454  67.886  86.200  0.00  0.00    +0.000 A 
ATOM      9  O   UNL     1      90.600  67.175  86.455  0.00  0.00    +0.000 OA
ENDROOT
BRANCH   8  10
ATOM     10  S   UNL     1      88.936  69.209  87.208  0.00  0.00    +0.000 S 
BRANCH  10  11
ATOM     11  C   UNL     1      88.778  70.440  85.927  0.00  0.00    +0.000 A 
ATOM     12  C   UNL     1      87.507  70.914  85.579  0.00  0.00    +0.000 A 
ATOM     13  C   UNL     1      87.365  71.894  84.592  0.00  0.00    +0.000 A 
ATOM     14  C   UNL     1      88.495  72.406  83.957  0.00  0.00    +0.000 A 
ATOM     15  C   UNL     1      89.765  71.949  84.301  0.00  0.00    +0.000 A 
ATOM     16  C   UNL     1      89.907  70.971  85.289  0.00  0.00    +0.000 A 
ATOM     17 CL   UNL     1      88.319  73.612  82.743  0.00  0.00    +0.000 Cl
ENDBRANCH  10  11
ENDBRANCH   8  10
TORSDOF 2
ENDMDL
