REMARK  Name = *****
REMARK  3 active torsions:
REMARK  status: ('A' for Active; 'I' for Inactive)
REMARK    1  A    between atoms: C_4  and  N_7
REMARK    2  A    between atoms: N_7  and  S_8
REMARK    3  A    between atoms: S_8  and  C_10
REMARK                            x       y       z     vdW  Elec       q    Type
REMARK                         _______ _______ _______ _____ _____    ______ ____
ROOT
ATOM      1  S   UNL     1      -3.932  -1.203  -0.667  0.00  0.00    +0.000 S 
ATOM      2  O   UNL     1      -3.834  -2.377   0.259  0.00  0.00    +0.000 OA
ENDROOT
BRANCH   1   3
ATOM      3  C   UNL     1      -5.467  -0.344  -0.244  0.00  0.00    +0.000 A 
ATOM      4  C   UNL     1      -6.070   0.499  -1.186  0.00  0.00    +0.000 A 
ATOM      5  C   UNL     1      -7.253   1.172  -0.868  0.00  0.00    +0.000 A 
ATOM      6  C   UNL     1      -7.833   1.000   0.389  0.00  0.00    +0.000 A 
ATOM      7  C   UNL     1      -7.241   0.161   1.331  0.00  0.00    +0.000 A 
ATOM      8  C   UNL     1      -6.059  -0.512   1.014  0.00  0.00    +0.000 A 
ATOM      9 CL   UNL     1      -9.287   1.831   0.778  0.00  0.00    +0.000 Cl
ENDBRANCH   1   3
BRANCH   1  10
ATOM     10  N   UNL     1      -2.967   0.049  -0.124  0.00  0.00    +0.000 N 
ATOM     11  H   UNL     1      -3.403   0.876   0.184  0.00  0.00    +0.000 HD
BRANCH  10  15
ATOM     12  C   UNL     1       1.261  -0.018   0.123  0.00  0.00    +0.000 A 
ATOM     13  C   UNL     1       0.570  -1.213  -0.055  0.00  0.00    +0.000 A 
ATOM     14  C   UNL     1      -0.826  -1.213  -0.146  0.00  0.00    +0.000 A 
ATOM     15  C   UNL     1      -1.557  -0.019  -0.084  0.00  0.00    +0.000 A 
ATOM     16  C   UNL     1      -0.841   1.171   0.130  0.00  0.00    +0.000 A 
ATOM     17  C   UNL     1       0.554   1.176   0.222  0.00  0.00    +0.000 A 
ENDBRANCH  10  15
ENDBRANCH   1  10
TORSDOF 3
