REMARK  Name = *****
REMARK  3 active torsions:
REMARK  status: ('A' for Active; 'I' for Inactive)
REMARK    1  A    between atoms: C_9  and  C_10
REMARK    2  A    between atoms: C_10  and  C_11
REMARK    3  A    between atoms: C_11  and  C_12
REMARK                            x       y       z     vdW  Elec       q    Type
REMARK                         _______ _______ _______ _____ _____    ______ ____
ROOT
ATOM      1  C   UNL     1       0.028   1.655   0.107  0.00  0.00    +0.000 C 
ATOM      2  C   UNL     1      -1.097   0.903   0.863  0.00  0.00    +0.000 C 
ATOM      3  C   UNL     1      -0.995  -0.611   0.596  0.00  0.00    +0.000 C 
ATOM      4  C   UNL     1       0.383  -1.028   1.116  0.00  0.00    +0.000 C 
ATOM      5  O   UNL     1       0.542  -1.860   2.005  0.00  0.00    +0.000 OA
ATOM      6  C   UNL     1       1.551  -0.308   0.444  0.00  0.00    +0.000 C 
ATOM      7  C   UNL     1       0.948   0.644  -0.614  0.00  0.00    +0.000 C 
ATOM      8  C   UNL     1       0.067  -0.186  -1.528  0.00  0.00    +0.000 C 
ATOM      9  C   UNL     1      -0.925  -0.852  -0.904  0.00  0.00    +0.000 C 
ENDROOT
BRANCH   9  10
ATOM     10  C   UNL     1      -1.919  -1.756  -1.571  0.00  0.00    +0.000 C 
BRANCH  10  11
ATOM     11  C   UNL     1      -1.719  -3.227  -1.190  0.00  0.00    +0.000 C 
BRANCH  11  12
ATOM     12  C   UNL     1      -2.710  -4.121  -1.893  0.00  0.00    +0.000 A 
ATOM     13  C   UNL     1      -2.396  -4.693  -3.133  0.00  0.00    +0.000 A 
ATOM     14  C   UNL     1      -3.322  -5.504  -3.792  0.00  0.00    +0.000 A 
ATOM     15  C   UNL     1      -4.569  -5.746  -3.221  0.00  0.00    +0.000 A 
ATOM     16  C   UNL     1      -4.894  -5.177  -1.991  0.00  0.00    +0.000 A 
ATOM     17  C   UNL     1      -3.970  -4.366  -1.330  0.00  0.00    +0.000 A 
ENDBRANCH  11  12
ENDBRANCH  10  11
ENDBRANCH   9  10
TORSDOF 3
