MODEL 1
REMARK VINA RESULT:      -4.7      0.000      0.000
REMARK  Name = *****
REMARK  1 active torsions:
REMARK  status: ('A' for Active; 'I' for Inactive)
REMARK    1  A    between atoms: C_4  and  C_7
REMARK                            x       y       z     vdW  Elec       q    Type
REMARK                         _______ _______ _______ _____ _____    ______ ____
ROOT
ATOM      1  C   UNL     1     102.170 126.076  82.284  0.00  0.00    +0.000 A 
ATOM      2  N   UNL     1     102.705 125.859  81.094  0.00  0.00    +0.000 NA
ATOM      3  C   UNL     1     103.614 124.858  81.321  0.00  0.00    +0.000 A 
ATOM      4  C   UNL     1     103.597 124.497  82.658  0.00  0.00    +0.000 A 
ATOM      5  O   UNL     1     102.669 125.278  83.284  0.00  0.00    +0.000 OA
ATOM      6  C   UNL     1     104.406 123.508  83.203  0.00  0.00    +0.000 A 
ATOM      7  C   UNL     1     105.279 122.855  82.324  0.00  0.00    +0.000 A 
ATOM      8  C   UNL     1     105.323 123.196  80.966  0.00  0.00    +0.000 A 
ATOM      9  C   UNL     1     104.492 124.201  80.446  0.00  0.00    +0.000 A 
ATOM     10 CL   UNL     1     104.348 123.096  84.865  0.00  0.00    +0.000 Cl
ENDROOT
BRANCH   1  14
ATOM     11  C   UNL     1      99.106 128.850  83.377  0.00  0.00    +0.000 A 
ATOM     12  C   UNL     1      98.784 127.665  82.719  0.00  0.00    +0.000 A 
ATOM     13  C   UNL     1      99.793 126.765  82.367  0.00  0.00    +0.000 A 
ATOM     14  C   UNL     1     101.137 127.036  82.666  0.00  0.00    +0.000 A 
ATOM     15  C   UNL     1     101.444 128.234  83.330  0.00  0.00    +0.000 A 
ATOM     16  C   UNL     1     100.435 129.135  83.683  0.00  0.00    +0.000 A 
ENDBRANCH   1  14
TORSDOF 1
ENDMDL
