REMARK  Name = *****
REMARK  3 active torsions:
REMARK  status: ('A' for Active; 'I' for Inactive)
REMARK    1  A    between atoms: C_1  and  C_2
REMARK    2  A    between atoms: C_2  and  C_19
REMARK    3  A    between atoms: C_10  and  C_12
REMARK                            x       y       z     vdW  Elec       q    Type
REMARK                         _______ _______ _______ _____ _____    ______ ____
ROOT
ATOM      1  C   UNL     1       0.891  -0.079  -0.353  0.00  0.00    +0.000 C 
ATOM      2  C   UNL     1       2.387  -0.072  -0.012  0.00  0.00    +0.000 C 
ATOM      3  C   UNL     1       2.845  -1.358   0.642  0.00  0.00    +0.000 A 
ATOM      4  C   UNL     1       2.423  -2.632   0.227  0.00  0.00    +0.000 A 
ATOM      5  C   UNL     1       2.928  -3.779   0.842  0.00  0.00    +0.000 A 
ATOM      6  C   UNL     1       3.863  -3.665   1.866  0.00  0.00    +0.000 A 
ATOM      7  C   UNL     1       4.291  -2.403   2.274  0.00  0.00    +0.000 A 
ATOM      8  C   UNL     1       3.787  -1.250   1.668  0.00  0.00    +0.000 A 
ATOM      9  N   UNL     1       4.243  -0.007   2.110  0.00  0.00    +0.000 NA
ATOM     10  C   UNL     1       3.610   1.051   1.727  0.00  0.00    +0.000 C 
ATOM     11  O   UNL     1       2.564   1.063   0.874  0.00  0.00    +0.000 OA
ENDROOT
BRANCH  10  12
ATOM     12  C   UNL     1       3.937   2.418   2.205  0.00  0.00    +0.000 A 
ATOM     13  C   UNL     1       4.868   2.567   3.243  0.00  0.00    +0.000 A 
ATOM     14  C   UNL     1       5.203   3.840   3.714  0.00  0.00    +0.000 A 
ATOM     15  C   UNL     1       4.610   4.966   3.146  0.00  0.00    +0.000 A 
ATOM     16  C   UNL     1       3.686   4.831   2.111  0.00  0.00    +0.000 A 
ATOM     17  C   UNL     1       3.349   3.558   1.640  0.00  0.00    +0.000 A 
ATOM     18 CL   UNL     1       5.022   6.533   3.725  0.00  0.00    +0.000 Cl
ENDBRANCH  10  12
BRANCH   2  19
ATOM     19  C   UNL     1       3.223   0.180  -1.281  0.00  0.00    +0.000 C 
ATOM     20  F   UNL     1       2.760   1.289  -1.928  0.00  0.00    +0.000 F 
ENDBRANCH   2  19
TORSDOF 2
