MODEL 1
REMARK VINA RESULT:      -4.9      0.000      0.000
REMARK  Name = *****
REMARK  4 active torsions:
REMARK  status: ('A' for Active; 'I' for Inactive)
REMARK    1  A    between atoms: C_4  and  C_19
REMARK    2  A    between atoms: C_5  and  C_7
REMARK    3  A    between atoms: C_8  and  C_9
REMARK    4  A    between atoms: C_14  and  C_15
REMARK                            x       y       z     vdW  Elec       q    Type
REMARK                         _______ _______ _______ _____ _____    ______ ____
ROOT
ATOM      1  C   UNL     1     103.142 125.183  82.226  0.00  0.00    +0.000 C 
ATOM      2  C   UNL     1     102.607 126.287  81.683  0.00  0.00    +0.000 C 
ENDROOT
BRANCH   1   7
ATOM      3  C   UNL     1     105.542 123.993  79.567  0.00  0.00    +0.000 A 
ATOM      4  C   UNL     1     106.107 122.872  80.168  0.00  0.00    +0.000 A 
ATOM      5  C   UNL     1     105.705 122.493  81.449  0.00  0.00    +0.000 A 
ATOM      6  C   UNL     1     104.730 123.234  82.136  0.00  0.00    +0.000 A 
ATOM      7  C   UNL     1     104.147 124.363  81.530  0.00  0.00    +0.000 A 
ATOM      8  C   UNL     1     104.573 124.736  80.244  0.00  0.00    +0.000 A 
BRANCH   6   9
ATOM      9  C   UNL     1     104.342 122.802  83.450  0.00  0.00    +0.000 C 
ATOM     10  N   UNL     1     104.020 122.448  84.507  0.00  0.00    +0.000 NA
ENDBRANCH   6   9
ENDBRANCH   1   7
BRANCH   2  11
ATOM     11  C   UNL     1     101.610 127.085  82.402  0.00  0.00    +0.000 A 
ATOM     12  C   UNL     1     100.275 126.653  82.397  0.00  0.00    +0.000 A 
ATOM     13  C   UNL     1      99.291 127.378  83.069  0.00  0.00    +0.000 A 
ATOM     14  C   UNL     1      99.631 128.539  83.755  0.00  0.00    +0.000 A 
ATOM     15  C   UNL     1     100.955 128.977  83.769  0.00  0.00    +0.000 A 
ATOM     16  C   UNL     1     101.962 128.260  83.094  0.00  0.00    +0.000 A 
BRANCH  16  17
ATOM     17  C   UNL     1     103.389 128.748  83.141  0.00  0.00    +0.000 C 
ATOM     18  F   UNL     1     103.508 129.995  83.679  0.00  0.00    +0.000 F 
ATOM     19  F   UNL     1     104.208 127.942  83.874  0.00  0.00    +0.000 F 
ATOM     20  F   UNL     1     103.973 128.829  81.909  0.00  0.00    +0.000 F 
ENDBRANCH  16  17
ENDBRANCH   2  11
TORSDOF 4
ENDMDL
