MODEL 1
REMARK VINA RESULT:      -5.0      0.000      0.000
REMARK  Name = *****
REMARK  2 active torsions:
REMARK  status: ('A' for Active; 'I' for Inactive)
REMARK    1  A    between atoms: C_4  and  C_7
REMARK    2  A    between atoms: C_8  and  C_9
REMARK                            x       y       z     vdW  Elec       q    Type
REMARK                         _______ _______ _______ _____ _____    ______ ____
ROOT
ATOM      1  C   UNL     1     103.946 124.419  81.615  0.00  0.00    +0.000 A 
ATOM      2  C   UNL     1     104.568 124.516  80.368  0.00  0.00    +0.000 A 
ATOM      3  C   UNL     1     105.552 123.606  80.002  0.00  0.00    +0.000 A 
ATOM      4  C   UNL     1     105.919 122.595  80.880  0.00  0.00    +0.000 A 
ATOM      5  C   UNL     1     105.309 122.482  82.128  0.00  0.00    +0.000 A 
ATOM      6  C   UNL     1     104.320 123.397  82.497  0.00  0.00    +0.000 A 
ATOM      7  F   UNL     1     106.866 121.713  80.534  0.00  0.00    +0.000 F 
ATOM      8  F   UNL     1     106.146 123.704  78.804  0.00  0.00    +0.000 F 
ATOM      9  F   UNL     1     104.221 125.491  79.513  0.00  0.00    +0.000 F 
ENDROOT
BRANCH   1  11
ATOM     10  C   UNL     1     102.077 126.133  82.318  0.00  0.00    +0.000 C 
ATOM     11  C   UNL     1     102.931 125.351  81.999  0.00  0.00    +0.000 C 
BRANCH  10  15
ATOM     12  C   UNL     1      99.067 128.886  83.411  0.00  0.00    +0.000 A 
ATOM     13  C   UNL     1     100.402 129.162  83.704  0.00  0.00    +0.000 A 
ATOM     14  C   UNL     1     101.398 128.252  83.344  0.00  0.00    +0.000 A 
ATOM     15  C   UNL     1     101.058 127.065  82.689  0.00  0.00    +0.000 A 
ATOM     16  C   UNL     1      99.721 126.791  82.397  0.00  0.00    +0.000 A 
ATOM     17  C   UNL     1      98.726 127.702  82.758  0.00  0.00    +0.000 A 
ENDBRANCH  10  15
ENDBRANCH   1  11
TORSDOF 2
ENDMDL
