MODEL 1
REMARK VINA RESULT:      -3.9      0.000      0.000
REMARK  Name = *****
REMARK  2 active torsions:
REMARK  status: ('A' for Active; 'I' for Inactive)
REMARK    1  A    between atoms: C_6  and  S_7
REMARK    2  A    between atoms: S_7  and  C_8
REMARK                            x       y       z     vdW  Elec       q    Type
REMARK                         _______ _______ _______ _____ _____    ______ ____
ROOT
ATOM      1  S   UNL     1     101.953 127.748  83.054  0.00  0.00    +0.000 S 
ENDROOT
BRANCH   1   7
ATOM      2  C   UNL     1     103.325 126.967  80.831  0.00  0.00    +0.000 C 
ATOM      3  C   UNL     1     104.391 126.117  80.140  0.00  0.00    +0.000 C 
ATOM      4  C   UNL     1     104.194 124.633  80.443  0.00  0.00    +0.000 C 
ATOM      5  C   UNL     1     104.172 124.372  81.948  0.00  0.00    +0.000 C 
ATOM      6  C   UNL     1     103.112 125.226  82.650  0.00  0.00    +0.000 C 
ATOM      7  C   UNL     1     103.298 126.717  82.347  0.00  0.00    +0.000 C 
ATOM      8 CL   UNL     1     105.499 123.680  79.684  0.00  0.00    +0.000 Cl
ENDBRANCH   1   7
BRANCH   1   9
ATOM      9  C   UNL     1     100.607 126.516  83.334  0.00  0.00    +0.000 C 
ATOM     10  C   UNL     1      99.416 126.870  82.425  0.00  0.00    +0.000 C 
ATOM     11  C   UNL     1      98.641 128.111  82.884  0.00  0.00    +0.000 C 
ATOM     12  C   UNL     1      98.224 128.047  84.354  0.00  0.00    +0.000 C 
ATOM     13  C   UNL     1      99.398 127.683  85.267  0.00  0.00    +0.000 C 
ATOM     14  C   UNL     1     100.151 126.434  84.796  0.00  0.00    +0.000 C 
ATOM     15 CL   UNL     1      96.891 126.864  84.565  0.00  0.00    +0.000 Cl
ENDBRANCH   1   9
TORSDOF 2
ENDMDL
