MODEL 1
REMARK VINA RESULT:      -4.2      0.000      0.000
REMARK  Name = *****
REMARK  5 active torsions:
REMARK  status: ('A' for Active; 'I' for Inactive)
REMARK    1  A    between atoms: C_1  and  C_2
REMARK    2  A    between atoms: C_6  and  C_16
REMARK    3  A    between atoms: C_7  and  O_8
REMARK    4  A    between atoms: O_8  and  C_9
REMARK    5  A    between atoms: C_9  and  C_10
REMARK                            x       y       z     vdW  Elec       q    Type
REMARK                         _______ _______ _______ _____ _____    ______ ____
ROOT
ATOM      1  C   UNL     1     105.394 124.401  83.278  0.00  0.00    +0.000 C 
ATOM      2  C   UNL     1     104.180 124.094  82.393  0.00  0.00    +0.000 C 
ATOM      3  C   UNL     1     104.567 123.209  81.198  0.00  0.00    +0.000 C 
ATOM      4  C   UNL     1     105.361 123.962  80.136  0.00  0.00    +0.000 C 
ATOM      5  C   UNL     1     104.627 125.213  79.669  0.00  0.00    +0.000 C 
ATOM      6  C   UNL     1     104.251 126.133  80.839  0.00  0.00    +0.000 C 
ATOM      7  C   UNL     1     103.444 125.368  81.913  0.00  0.00    +0.000 C 
ATOM      8  C   UNL     1     103.473 127.347  80.319  0.00  0.00    +0.000 C 
ENDROOT
BRANCH   7   9
ATOM      9  O   UNL     1     103.192 126.267  82.998  0.00  0.00    +0.000 OA
BRANCH   9  10
ATOM     10  C   UNL     1     101.993 125.978  83.715  0.00  0.00    +0.000 C 
BRANCH  10  11
ATOM     11  C   UNL     1     100.966 127.052  83.449  0.00  0.00    +0.000 A 
ATOM     12  C   UNL     1      99.795 126.768  82.732  0.00  0.00    +0.000 A 
ATOM     13  C   UNL     1      98.831 127.754  82.523  0.00  0.00    +0.000 A 
ATOM     14  C   UNL     1      99.021 129.035  83.037  0.00  0.00    +0.000 A 
ATOM     15  C   UNL     1     100.174 129.329  83.761  0.00  0.00    +0.000 A 
ATOM     16  C   UNL     1     101.139 128.342  83.972  0.00  0.00    +0.000 A 
ENDBRANCH  10  11
ENDBRANCH   9  10
ENDBRANCH   7   9
TORSDOF 3
ENDMDL
