MODEL 1
REMARK VINA RESULT:      -4.7      0.000      0.000
REMARK  Name = *****
REMARK  3 active torsions:
REMARK  status: ('A' for Active; 'I' for Inactive)
REMARK    1  A    between atoms: C_3  and  O_8
REMARK    2  A    between atoms: O_8  and  C_9
REMARK    3  A    between atoms: C_9  and  C_10
REMARK                            x       y       z     vdW  Elec       q    Type
REMARK                         _______ _______ _______ _____ _____    ______ ____
ROOT
ATOM      1  C   UNL     1     103.446 127.790  82.246  0.00  0.00    +0.000 C 
ENDROOT
BRANCH   1   2
ATOM      2  C   UNL     1     103.781 126.391  81.773  0.00  0.00    +0.000 A 
ATOM      3  C   UNL     1     103.902 125.349  82.707  0.00  0.00    +0.000 A 
ATOM      4  C   UNL     1     104.248 124.055  82.299  0.00  0.00    +0.000 A 
ATOM      5  C   UNL     1     104.487 123.792  80.947  0.00  0.00    +0.000 A 
ATOM      6  C   UNL     1     104.385 124.825  80.011  0.00  0.00    +0.000 A 
ATOM      7  C   UNL     1     104.041 126.116  80.422  0.00  0.00    +0.000 A 
ATOM      8 CL   UNL     1     104.919 122.222  80.369  0.00  0.00    +0.000 Cl
ATOM      9 CL   UNL     1     104.368 122.836  83.517  0.00  0.00    +0.000 Cl
ENDBRANCH   1   2
BRANCH   1  10
ATOM     10  O   UNL     1     102.615 127.729  83.406  0.00  0.00    +0.000 OA
BRANCH  10  13
ATOM     11  C   UNL     1      99.297 129.202  83.452  0.00  0.00    +0.000 A 
ATOM     12  C   UNL     1     100.671 128.997  83.601  0.00  0.00    +0.000 A 
ATOM     13  C   UNL     1     101.264 127.792  83.207  0.00  0.00    +0.000 A 
ATOM     14  C   UNL     1     100.467 126.788  82.659  0.00  0.00    +0.000 A 
ATOM     15  C   UNL     1      99.098 127.002  82.513  0.00  0.00    +0.000 A 
ATOM     16  C   UNL     1      98.505 128.198  82.903  0.00  0.00    +0.000 A 
ATOM     17  F   UNL     1      98.338 126.035  81.984  0.00  0.00    +0.000 F 
ENDBRANCH  10  13
ENDBRANCH   1  10
TORSDOF 3
ENDMDL
