MODEL 1
REMARK VINA RESULT:      -4.6      0.000      0.000
REMARK  Name = *****
REMARK  4 active torsions:
REMARK  status: ('A' for Active; 'I' for Inactive)
REMARK    1  A    between atoms: C_7  and  C_8
REMARK    2  A    between atoms: C_8  and  O_10
REMARK    3  A    between atoms: O_10  and  C_11
REMARK    4  A    between atoms: C_11  and  C_12
REMARK                            x       y       z     vdW  Elec       q    Type
REMARK                         _______ _______ _______ _____ _____    ______ ____
ROOT
ATOM      1  C   UNL     1     103.293 126.487  80.616  0.00  0.00    +0.000 C 
ATOM      2  O   UNL     1     103.473 127.396  79.817  0.00  0.00    +0.000 OA
ENDROOT
BRANCH   1   9
ATOM      3  C   UNL     1     101.686 127.288  84.610  0.00  0.00    +0.000 C 
ATOM      4  C   UNL     1     101.963 125.839  84.187  0.00  0.00    +0.000 C 
ATOM      5  C   UNL     1     101.866 125.902  82.652  0.00  0.00    +0.000 C 
ATOM      6  C   UNL     1     100.737 126.918  82.459  0.00  0.00    +0.000 C 
ATOM      7  C   UNL     1     101.445 128.000  83.267  0.00  0.00    +0.000 C 
ATOM      8  C   UNL     1     102.784 128.126  82.517  0.00  0.00    +0.000 C 
ATOM      9  C   UNL     1     103.100 126.668  82.114  0.00  0.00    +0.000 C 
ENDBRANCH   1   9
BRANCH   1  10
ATOM     10  O   UNL     1     103.305 125.161  80.307  0.00  0.00    +0.000 OA
BRANCH  10  11
ATOM     11  C   UNL     1     104.596 124.541  80.266  0.00  0.00    +0.000 C 
BRANCH  11  12
ATOM     12  C   UNL     1     104.593 123.318  81.145  0.00  0.00    +0.000 A 
ATOM     13  C   UNL     1     104.647 122.036  80.580  0.00  0.00    +0.000 A 
ATOM     14  C   UNL     1     104.628 120.903  81.395  0.00  0.00    +0.000 A 
ATOM     15  C   UNL     1     104.545 121.041  82.779  0.00  0.00    +0.000 A 
ATOM     16  C   UNL     1     104.477 122.310  83.350  0.00  0.00    +0.000 A 
ATOM     17  C   UNL     1     104.496 123.444  82.538  0.00  0.00    +0.000 A 
ENDBRANCH  11  12
ENDBRANCH  10  11
ENDBRANCH   1  10
TORSDOF 4
ENDMDL
