REMARK  Name = *****
REMARK  3 active torsions:
REMARK  status: ('A' for Active; 'I' for Inactive)
REMARK    1  A    between atoms: C_4  and  C_7
REMARK    2  A    between atoms: C_8  and  C_9
REMARK    3  A    between atoms: C_8  and  C_11
REMARK                            x       y       z     vdW  Elec       q    Type
REMARK                         _______ _______ _______ _____ _____    ______ ____
ROOT
ATOM      1  C   UNL     1      -2.854   0.237  -0.430  0.00  0.00    +0.000 C 
ATOM      2  C   UNL     1      -3.790  -0.693  -0.147  0.00  0.00    +0.000 C 
ENDROOT
BRANCH   1   6
ATOM      3  C   UNL     1       1.362  -0.125   0.127  0.00  0.00    +0.000 A 
ATOM      4  C   UNL     1       0.712  -0.965  -0.776  0.00  0.00    +0.000 A 
ATOM      5  C   UNL     1      -0.668  -0.857  -0.963  0.00  0.00    +0.000 A 
ATOM      6  C   UNL     1      -1.406   0.088  -0.240  0.00  0.00    +0.000 A 
ATOM      7  C   UNL     1      -0.744   0.935   0.656  0.00  0.00    +0.000 A 
ATOM      8  C   UNL     1       0.636   0.825   0.841  0.00  0.00    +0.000 A 
ENDBRANCH   1   6
BRANCH   2   9
ATOM      9  C   UNL     1      -5.166  -0.364  -0.399  0.00  0.00    +0.000 A 
ATOM     10  C   UNL     1      -5.736   0.260  -1.501  0.00  0.00    +0.000 A 
ATOM     11  C   UNL     1      -7.147   0.427  -1.389  0.00  0.00    +0.000 A 
ATOM     12  C   UNL     1      -7.628  -0.070  -0.202  0.00  0.00    +0.000 A 
ATOM     13  S   UNL     1      -6.389  -0.735   0.764  0.00  0.00    +0.000 S 
ENDBRANCH   2   9
BRANCH   2  14
ATOM     14  C   UNL     1      -3.442  -1.975   0.394  0.00  0.00    +0.000 C 
ATOM     15  N   UNL     1      -3.164  -3.020   0.816  0.00  0.00    +0.000 NA
ENDBRANCH   2  14
TORSDOF 3
