MODEL 1
REMARK VINA RESULT:      -4.1      0.000      0.000
REMARK  Name = *****
REMARK  4 active torsions:
REMARK  status: ('A' for Active; 'I' for Inactive)
REMARK    1  A    between atoms: C_4  and  C_7
REMARK    2  A    between atoms: C_7  and  O_8
REMARK    3  A    between atoms: O_8  and  O_9
REMARK    4  A    between atoms: O_9  and  C_10
REMARK                            x       y       z     vdW  Elec       q    Type
REMARK                         _______ _______ _______ _____ _____    ______ ____
ROOT
ATOM      1  O   UNL     1     103.302 125.250  80.104  0.00  0.00    +0.000 OA
ENDROOT
BRANCH   1   2
ATOM      2  C   UNL     1     104.589 124.633  80.102  0.00  0.00    +0.000 C 
BRANCH   2   6
ATOM      3  C   UNL     1     104.576 121.332  82.882  0.00  0.00    +0.000 A 
ATOM      4  C   UNL     1     104.395 122.633  83.346  0.00  0.00    +0.000 A 
ATOM      5  C   UNL     1     104.406 123.703  82.449  0.00  0.00    +0.000 A 
ATOM      6  C   UNL     1     104.609 123.484  81.078  0.00  0.00    +0.000 A 
ATOM      7  C   UNL     1     104.780 122.168  80.623  0.00  0.00    +0.000 A 
ATOM      8  C   UNL     1     104.767 121.099  81.522  0.00  0.00    +0.000 A 
ENDBRANCH   2   6
ENDBRANCH   1   2
BRANCH   1   9
ATOM      9  O   UNL     1     103.555 126.685  80.047  0.00  0.00    +0.000 OA
BRANCH   9  10
ATOM     10  C   UNL     1     103.216 127.246  81.258  0.00  0.00    +0.000 A 
ATOM     11  C   UNL     1     103.915 128.289  81.867  0.00  0.00    +0.000 A 
ATOM     12  C   UNL     1     103.496 128.778  83.107  0.00  0.00    +0.000 A 
ATOM     13  C   UNL     1     102.383 128.223  83.740  0.00  0.00    +0.000 A 
ATOM     14  C   UNL     1     101.691 127.175  83.138  0.00  0.00    +0.000 A 
ATOM     15  C   UNL     1     102.109 126.684  81.899  0.00  0.00    +0.000 A 
ENDBRANCH   9  10
ENDBRANCH   1   9
TORSDOF 4
ENDMDL
