MODEL 1
REMARK VINA RESULT:      -4.6      0.000      0.000
REMARK  Name = *****
REMARK  2 active torsions:
REMARK  status: ('A' for Active; 'I' for Inactive)
REMARK    1  A    between atoms: C_4  and  C_7
REMARK    2  A    between atoms: C_9  and  C_10
REMARK                            x       y       z     vdW  Elec       q    Type
REMARK                         _______ _______ _______ _____ _____    ______ ____
ROOT
ATOM      1  C   UNL     1     101.886 125.924  83.026  0.00  0.00    +0.000 C 
ATOM      2  N   UNL     1     102.788 125.731  83.923  0.00  0.00    +0.000 NA
ATOM      3  C   UNL     1     103.250 125.806  82.567  0.00  0.00    +0.000 C 
ENDROOT
BRANCH   3   4
ATOM      4  C   UNL     1     103.922 124.549  82.087  0.00  0.00    +0.000 A 
ATOM      5  C   UNL     1     104.269 124.342  80.740  0.00  0.00    +0.000 A 
ATOM      6  C   UNL     1     104.926 123.175  80.334  0.00  0.00    +0.000 A 
ATOM      7  C   UNL     1     105.247 122.203  81.274  0.00  0.00    +0.000 A 
ATOM      8  C   UNL     1     104.922 122.373  82.610  0.00  0.00    +0.000 A 
ATOM      9  C   UNL     1     104.265 123.538  83.009  0.00  0.00    +0.000 A 
ATOM     10  F   UNL     1     105.879 121.088  80.884  0.00  0.00    +0.000 F 
ENDBRANCH   3   4
BRANCH   1  14
ATOM     11  C   UNL     1      98.954 128.962  83.115  0.00  0.00    +0.000 A 
ATOM     12  C   UNL     1      98.657 127.737  82.517  0.00  0.00    +0.000 A 
ATOM     13  C   UNL     1      99.619 126.728  82.480  0.00  0.00    +0.000 A 
ATOM     14  C   UNL     1     100.878 126.954  83.043  0.00  0.00    +0.000 A 
ATOM     15  C   UNL     1     101.181 128.177  83.644  0.00  0.00    +0.000 A 
ATOM     16  C   UNL     1     100.213 129.184  83.678  0.00  0.00    +0.000 A 
ENDBRANCH   1  14
TORSDOF 2
ENDMDL
