MODEL 1
REMARK VINA RESULT:      -5.1      0.000      0.000
REMARK  Name = *****
REMARK  4 active torsions:
REMARK  status: ('A' for Active; 'I' for Inactive)
REMARK    1  A    between atoms: C_1  and  C_2
REMARK    2  A    between atoms: C_2  and  C_4
REMARK    3  A    between atoms: C_8  and  C_10
REMARK    4  A    between atoms: C_11  and  C_12
REMARK                            x       y       z     vdW  Elec       q    Type
REMARK                         _______ _______ _______ _____ _____    ______ ____
ROOT
ATOM      1  C   UNL     1     105.317 122.938  80.602  0.00  0.00    +0.000 A 
ATOM      2  C   UNL     1     106.057 123.534  79.571  0.00  0.00    +0.000 A 
ATOM      3  C   UNL     1     105.767 124.838  79.162  0.00  0.00    +0.000 A 
ATOM      4  C   UNL     1     104.741 125.553  79.780  0.00  0.00    +0.000 A 
ATOM      5  C   UNL     1     103.999 124.968  80.808  0.00  0.00    +0.000 A 
ATOM      6  C   UNL     1     104.284 123.663  81.216  0.00  0.00    +0.000 A 
ENDROOT
BRANCH   1   8
ATOM      7  C   UNL     1     104.441 120.705  81.561  0.00  0.00    +0.000 C 
ATOM      8  C   UNL     1     105.591 121.550  81.075  0.00  0.00    +0.000 C 
ATOM      9  O   UNL     1     106.740 121.111  81.063  0.00  0.00    +0.000 OA
ENDBRANCH   1   8
BRANCH   5  10
ATOM     10  C   UNL     1     102.959 125.710  81.447  0.00  0.00    +0.000 C 
ATOM     11  C   UNL     1     102.082 126.347  81.965  0.00  0.00    +0.000 C 
BRANCH  11  12
ATOM     12  C   UNL     1     101.039 127.114  82.566  0.00  0.00    +0.000 C 
ATOM     13  C   UNL     1     101.361 128.205  83.282  0.00  0.00    +0.000 C 
ATOM     14  C   UNL     1     100.354 129.079  83.968  0.00  0.00    +0.000 C 
ATOM     15  C   UNL     1      98.958 128.458  84.035  0.00  0.00    +0.000 C 
ATOM     16  C   UNL     1      98.593 127.781  82.719  0.00  0.00    +0.000 C 
ATOM     17  C   UNL     1      99.605 126.688  82.362  0.00  0.00    +0.000 C 
ENDBRANCH  11  12
ENDBRANCH   5  10
TORSDOF 3
ENDMDL
