REMARK  Name = *****
REMARK  3 active torsions:
REMARK  status: ('A' for Active; 'I' for Inactive)
REMARK    1  A    between atoms: C_4  and  C_7
REMARK    2  A    between atoms: C_7  and  C_8
REMARK    3  A    between atoms: C_8  and  C_10
REMARK                            x       y       z     vdW  Elec       q    Type
REMARK                         _______ _______ _______ _____ _____    ______ ____
ROOT
ATOM      1  C   UNL     1      -3.692  -0.972  -0.355  0.00  0.00    +0.000 C 
ATOM      2  O   UNL     1      -3.946  -1.560  -1.407  0.00  0.00    +0.000 OA
ENDROOT
BRANCH   1   3
ATOM      3  C   UNL     1      -4.219  -1.528   0.930  0.00  0.00    +0.000 A 
ATOM      4  C   UNL     1      -3.788  -1.079   2.184  0.00  0.00    +0.000 A 
ATOM      5  C   UNL     1      -4.326  -1.633   3.352  0.00  0.00    +0.000 A 
ATOM      6  C   UNL     1      -5.291  -2.635   3.270  0.00  0.00    +0.000 A 
ATOM      7  C   UNL     1      -5.722  -3.095   2.028  0.00  0.00    +0.000 A 
ATOM      8  C   UNL     1      -5.185  -2.544   0.862  0.00  0.00    +0.000 A 
ATOM      9 CL   UNL     1      -5.951  -3.308   4.708  0.00  0.00    +0.000 Cl
ENDBRANCH   1   3
BRANCH   1  10
ATOM     10  C   UNL     1      -2.872   0.305  -0.349  0.00  0.00    +0.000 C 
BRANCH  10  14
ATOM     11  C   UNL     1       1.359  -0.177   0.368  0.00  0.00    +0.000 A 
ATOM     12  C   UNL     1       0.684  -1.092  -0.438  0.00  0.00    +0.000 A 
ATOM     13  C   UNL     1      -0.685  -0.947  -0.667  0.00  0.00    +0.000 A 
ATOM     14  C   UNL     1      -1.400   0.106  -0.079  0.00  0.00    +0.000 A 
ATOM     15  C   UNL     1      -0.705   1.032   0.714  0.00  0.00    +0.000 A 
ATOM     16  C   UNL     1       0.665   0.887   0.940  0.00  0.00    +0.000 A 
ENDBRANCH  10  14
ENDBRANCH   1  10
TORSDOF 3
