MODEL 1
REMARK VINA RESULT:      -5.2      0.000      0.000
REMARK  Name = *****
REMARK  2 active torsions:
REMARK  status: ('A' for Active; 'I' for Inactive)
REMARK    1  A    between atoms: C_4  and  C_7
REMARK    2  A    between atoms: C_8  and  C_9
REMARK                            x       y       z     vdW  Elec       q    Type
REMARK                         _______ _______ _______ _____ _____    ______ ____
ROOT
ATOM      1  C   UNL     1     104.019 124.538  81.401  0.00  0.00    +0.000 A 
ATOM      2  C   UNL     1     104.427 123.478  82.212  0.00  0.00    +0.000 A 
ATOM      3  C   UNL     1     105.437 122.616  81.794  0.00  0.00    +0.000 A 
ATOM      4  C   UNL     1     106.048 122.805  80.563  0.00  0.00    +0.000 A 
ATOM      5  C   UNL     1     105.650 123.856  79.747  0.00  0.00    +0.000 A 
ATOM      6  C   UNL     1     104.640 124.718  80.164  0.00  0.00    +0.000 A 
ATOM      7  F   UNL     1     104.270 125.728  79.361  0.00  0.00    +0.000 F 
ATOM      8  F   UNL     1     106.237 124.040  78.557  0.00  0.00    +0.000 F 
ATOM      9  F   UNL     1     107.018 121.974  80.160  0.00  0.00    +0.000 F 
ATOM     10  F   UNL     1     105.819 121.601  82.582  0.00  0.00    +0.000 F 
ATOM     11  F   UNL     1     103.849 123.278  83.406  0.00  0.00    +0.000 F 
ENDROOT
BRANCH   1  13
ATOM     12  C   UNL     1     102.107 126.167  82.186  0.00  0.00    +0.000 C 
ATOM     13  C   UNL     1     102.980 125.423  81.828  0.00  0.00    +0.000 C 
BRANCH  12  17
ATOM     14  C   UNL     1      99.044 128.794  83.431  0.00  0.00    +0.000 A 
ATOM     15  C   UNL     1     100.380 129.115  83.673  0.00  0.00    +0.000 A 
ATOM     16  C   UNL     1     101.393 128.247  83.262  0.00  0.00    +0.000 A 
ATOM     17  C   UNL     1     101.069 127.056  82.608  0.00  0.00    +0.000 A 
ATOM     18  C   UNL     1      99.732 126.735  82.367  0.00  0.00    +0.000 A 
ATOM     19  C   UNL     1      98.720 127.604  82.778  0.00  0.00    +0.000 A 
ENDBRANCH  12  17
ENDBRANCH   1  13
TORSDOF 2
ENDMDL
