MODEL 1
REMARK VINA RESULT:      -4.6      0.000      0.000
REMARK  Name = *****
REMARK  6 active torsions:
REMARK  status: ('A' for Active; 'I' for Inactive)
REMARK    1  A    between atoms: C_1  and  C_2
REMARK    2  A    between atoms: C_2  and  N_3
REMARK    3  A    between atoms: N_3  and  C_4
REMARK    4  A    between atoms: N_3  and  C_12
REMARK    5  A    between atoms: C_4  and  C_5
REMARK    6  A    between atoms: C_16  and  C_18
REMARK                            x       y       z     vdW  Elec       q    Type
REMARK                         _______ _______ _______ _____ _____    ______ ____
ROOT
ATOM      1  N   UNL     1     103.199 126.675  81.737  0.00  0.00    +0.000 N 
ENDROOT
BRANCH   1   2
ATOM      2  C   UNL     1     103.734 125.385  81.651  0.00  0.00    +0.000 A 
ATOM      3  C   UNL     1     104.223 124.841  80.454  0.00  0.00    +0.000 A 
ATOM      4  C   UNL     1     104.777 123.556  80.395  0.00  0.00    +0.000 A 
ATOM      5  C   UNL     1     104.864 122.776  81.543  0.00  0.00    +0.000 A 
ATOM      6  C   UNL     1     104.394 123.277  82.755  0.00  0.00    +0.000 A 
ATOM      7  C   UNL     1     103.855 124.575  82.796  0.00  0.00    +0.000 A 
ATOM      8  C   UNL     1     104.529 122.474  84.015  0.00  0.00    +0.000 C 
ENDBRANCH   1   2
BRANCH   1  10
ATOM      9  C   UNL     1     104.410 128.797  81.514  0.00  0.00    +0.000 C 
ATOM     10  C   UNL     1     103.671 127.687  80.781  0.00  0.00    +0.000 C 
ENDBRANCH   1  10
BRANCH   1  11
ATOM     11  C   UNL     1     102.671 127.203  83.009  0.00  0.00    +0.000 C 
BRANCH  11  12
ATOM     12  C   UNL     1     101.183 127.466  82.985  0.00  0.00    +0.000 A 
ATOM     13  C   UNL     1     100.264 126.553  82.445  0.00  0.00    +0.000 A 
ATOM     14  C   UNL     1      98.899 126.855  82.403  0.00  0.00    +0.000 A 
ATOM     15  C   UNL     1      98.438 128.079  82.884  0.00  0.00    +0.000 A 
ATOM     16  C   UNL     1      99.341 129.003  83.406  0.00  0.00    +0.000 A 
ATOM     17  C   UNL     1     100.698 128.693  83.446  0.00  0.00    +0.000 A 
ATOM     18  F   UNL     1     101.550 129.605  83.937  0.00  0.00    +0.000 F 
ENDBRANCH  11  12
ENDBRANCH   1  11
TORSDOF 4
ENDMDL
