MODEL 1
REMARK VINA RESULT:      -5.1      0.000      0.000
REMARK  Name = *****
REMARK  2 active torsions:
REMARK  status: ('A' for Active; 'I' for Inactive)
REMARK    1  A    between atoms: C_2  and  C_12
REMARK    2  A    between atoms: C_4  and  C_6
REMARK                            x       y       z     vdW  Elec       q    Type
REMARK                         _______ _______ _______ _____ _____    ______ ____
ROOT
ATOM      1  C   UNL     1     103.190 126.980  80.924  0.00  0.00    +0.000 C 
ATOM      2  C   UNL     1     103.204 125.435  80.728  0.00  0.00    +0.000 C 
ATOM      3  C   UNL     1     102.859 125.290  82.176  0.00  0.00    +0.000 C 
ATOM      4  C   UNL     1     102.679 126.766  82.309  0.00  0.00    +0.000 C 
ATOM      5  C   UNL     1     103.498 126.005  83.325  0.00  0.00    +0.000 C 
ENDROOT
BRANCH   4   6
ATOM      6  C   UNL     1     101.391 127.418  82.731  0.00  0.00    +0.000 A 
ATOM      7  C   UNL     1     101.409 128.626  83.448  0.00  0.00    +0.000 A 
ATOM      8  C   UNL     1     100.228 129.260  83.844  0.00  0.00    +0.000 A 
ATOM      9  C   UNL     1      98.996 128.698  83.524  0.00  0.00    +0.000 A 
ATOM     10  C   UNL     1      98.947 127.506  82.810  0.00  0.00    +0.000 A 
ATOM     11  C   UNL     1     100.132 126.875  82.418  0.00  0.00    +0.000 A 
ENDBRANCH   4   6
BRANCH   2  12
ATOM     12  C   UNL     1     104.557 124.728  80.297  0.00  0.00    +0.000 A 
ATOM     13  C   UNL     1     105.568 125.382  79.562  0.00  0.00    +0.000 A 
ATOM     14  C   UNL     1     106.760 124.744  79.203  0.00  0.00    +0.000 A 
ATOM     15  C   UNL     1     106.983 123.424  79.576  0.00  0.00    +0.000 A 
ATOM     16  C   UNL     1     106.016 122.747  80.309  0.00  0.00    +0.000 A 
ATOM     17  C   UNL     1     104.827 123.392  80.663  0.00  0.00    +0.000 A 
ENDBRANCH   2  12
TORSDOF 2
ENDMDL
