REMARK  Name = *****
REMARK  3 active torsions:
REMARK  status: ('A' for Active; 'I' for Inactive)
REMARK    1  A    between atoms: C_3  and  C_8
REMARK    2  A    between atoms: C_8  and  C_9
REMARK    3  A    between atoms: C_9  and  C_11
REMARK                            x       y       z     vdW  Elec       q    Type
REMARK                         _______ _______ _______ _____ _____    ______ ____
ROOT
ATOM      1  C   UNL     1      -1.382   3.740  -0.008  0.00  0.00    +0.000 C 
ATOM      2  O   UNL     1      -1.233   4.351   1.052  0.00  0.00    +0.000 OA
ENDROOT
BRANCH   1   3
ATOM      3  C   UNL     1      -0.847   4.337  -1.272  0.00  0.00    +0.000 A 
ATOM      4  C   UNL     1      -0.884   3.670  -2.499  0.00  0.00    +0.000 A 
ATOM      5  C   UNL     1      -0.369   4.292  -3.634  0.00  0.00    +0.000 A 
ATOM      6  C   UNL     1       0.184   5.566  -3.575  0.00  0.00    +0.000 A 
ATOM      7  C   UNL     1       0.227   6.237  -2.356  0.00  0.00    +0.000 A 
ATOM      8  C   UNL     1      -0.286   5.624  -1.210  0.00  0.00    +0.000 A 
ATOM      9  F   UNL     1      -0.410   3.648  -4.807  0.00  0.00    +0.000 F 
ENDBRANCH   1   3
BRANCH   1  10
ATOM     10  C   UNL     1      -2.092   2.399  -0.038  0.00  0.00    +0.000 C 
BRANCH  10  13
ATOM     11  C   UNL     1       0.732   0.003   0.911  0.00  0.00    +0.000 A 
ATOM     12  C   UNL     1      -0.117   1.114   0.900  0.00  0.00    +0.000 A 
ATOM     13  C   UNL     1      -1.158   1.213  -0.038  0.00  0.00    +0.000 A 
ATOM     14  C   UNL     1      -1.350   0.160  -0.943  0.00  0.00    +0.000 A 
ATOM     15  C   UNL     1      -0.499  -0.942  -0.921  0.00  0.00    +0.000 A 
ATOM     16  C   UNL     1       0.541  -1.028  -0.006  0.00  0.00    +0.000 A 
ATOM     17  F   UNL     1      -0.691  -1.937  -1.798  0.00  0.00    +0.000 F 
ENDBRANCH  10  13
ENDBRANCH   1  10
TORSDOF 3
