REMARK  Name = *****
REMARK  6 active torsions:
REMARK  status: ('A' for Active; 'I' for Inactive)
REMARK    1  A    between atoms: C_1  and  C_2
REMARK    2  A    between atoms: C_4  and  C_8
REMARK    3  A    between atoms: C_8  and  O_10
REMARK    4  A    between atoms: O_10  and  C_11
REMARK    5  A    between atoms: C_11  and  C_12
REMARK    6  A    between atoms: C_11  and  C_13
REMARK                            x       y       z     vdW  Elec       q    Type
REMARK                         _______ _______ _______ _____ _____    ______ ____
ROOT
ATOM      1  C   UNL     1      -1.079   2.468   0.035  0.00  0.00    +0.000 C 
ATOM      2  O   UNL     1      -1.970   2.203  -0.756  0.00  0.00    +0.000 OA
ENDROOT
BRANCH   1   6
ATOM      3  C   UNL     1       2.479   1.071   3.343  0.00  0.00    +0.000 C 
ATOM      4  C   UNL     1       1.534   0.751   2.222  0.00  0.00    +0.000 A 
ATOM      5  C   UNL     1       0.719   1.750   1.670  0.00  0.00    +0.000 A 
ATOM      6  C   UNL     1      -0.192   1.443   0.648  0.00  0.00    +0.000 A 
ATOM      7  C   UNL     1      -0.293   0.124   0.189  0.00  0.00    +0.000 A 
ATOM      8  C   UNL     1       0.507  -0.876   0.742  0.00  0.00    +0.000 A 
ATOM      9  C   UNL     1       1.412  -0.564   1.758  0.00  0.00    +0.000 A 
ENDBRANCH   1   6
BRANCH   1  10
ATOM     10  O   UNL     1      -0.744   3.707   0.474  0.00  0.00    +0.000 OA
BRANCH  10  11
ATOM     11  C   UNL     1      -1.534   4.802  -0.030  0.00  0.00    +0.000 C 
ATOM     12  C   UNL     1      -2.750   4.981   0.875  0.00  0.00    +0.000 C 
BRANCH  11  13
ATOM     13  C   UNL     1      -0.670   6.072  -0.076  0.00  0.00    +0.000 C 
ATOM     14  C   UNL     1       0.541   5.945  -1.003  0.00  0.00    +0.000 C 
ATOM     15  C   UNL     1       1.418   7.132  -0.623  0.00  0.00    +0.000 C 
ATOM     16  C   UNL     1       1.103   7.433   0.842  0.00  0.00    +0.000 C 
ATOM     17  C   UNL     1      -0.008   6.467   1.246  0.00  0.00    +0.000 C 
ENDBRANCH  11  13
ENDBRANCH  10  11
ENDBRANCH   1  10
TORSDOF 4
