MODEL 1
REMARK VINA RESULT:      -4.7      0.000      0.000
REMARK  Name = *****
REMARK  2 active torsions:
REMARK  status: ('A' for Active; 'I' for Inactive)
REMARK    1  A    between atoms: C_4  and  C_7
REMARK    2  A    between atoms: C_8  and  C_9
REMARK                            x       y       z     vdW  Elec       q    Type
REMARK                         _______ _______ _______ _____ _____    ______ ____
ROOT
ATOM      1  C   UNL     1     102.919 125.629  81.507  0.00  0.00    +0.000 C 
ATOM      2  C   UNL     1     102.043 126.300  81.983  0.00  0.00    +0.000 C 
ENDROOT
BRANCH   2   3
ATOM      3  C   UNL     1     101.001 127.104  82.550  0.00  0.00    +0.000 A 
ATOM      4  C   UNL     1      99.674 126.735  82.293  0.00  0.00    +0.000 A 
ATOM      5  C   UNL     1      98.614 127.480  82.816  0.00  0.00    +0.000 A 
ATOM      6  C   UNL     1      98.873 128.600  83.601  0.00  0.00    +0.000 A 
ATOM      7  C   UNL     1     100.190 128.978  83.865  0.00  0.00    +0.000 A 
ATOM      8  C   UNL     1     101.255 128.233  83.342  0.00  0.00    +0.000 A 
ATOM      9  I   UNL     1     103.199 128.887  83.799  0.00  0.00    +0.000 I 
ENDBRANCH   2   3
BRANCH   1  13
ATOM     10  C   UNL     1     106.033 123.307  79.851  0.00  0.00    +0.000 A 
ATOM     11  C   UNL     1     105.720 124.548  79.297  0.00  0.00    +0.000 A 
ATOM     12  C   UNL     1     104.690 125.317  79.844  0.00  0.00    +0.000 A 
ATOM     13  C   UNL     1     103.973 124.843  80.944  0.00  0.00    +0.000 A 
ATOM     14  C   UNL     1     104.287 123.600  81.497  0.00  0.00    +0.000 A 
ATOM     15  C   UNL     1     105.317 122.832  80.950  0.00  0.00    +0.000 A 
ENDBRANCH   1  13
TORSDOF 2
ENDMDL
