REMARK  Name = *****
REMARK  2 active torsions:
REMARK  status: ('A' for Active; 'I' for Inactive)
REMARK    1  A    between atoms: C_4  and  C_7
REMARK    2  A    between atoms: C_7  and  C_8
REMARK                            x       y       z     vdW  Elec       q    Type
REMARK                         _______ _______ _______ _____ _____    ______ ____
ROOT
ATOM      1  C   UNL     1       0.107   0.884   2.180  0.00  0.00    +0.000 C 
ENDROOT
BRANCH   1   5
ATOM      2  C   UNL     1       3.700   1.275   0.757  0.00  0.00    +0.000 C 
ATOM      3  C   UNL     1       2.824   2.475   1.088  0.00  0.00    +0.000 C 
ATOM      4  S   UNL     1       1.271   2.498   0.151  0.00  0.00    +0.000 S 
ATOM      5  C   UNL     1       0.521   0.928   0.698  0.00  0.00    +0.000 C 
ATOM      6  S   UNL     1       1.594  -0.487   0.259  0.00  0.00    +0.000 S 
ATOM      7  C   UNL     1       3.104  -0.062   1.173  0.00  0.00    +0.000 C 
ENDBRANCH   1   5
BRANCH   1   8
ATOM      8  C   UNL     1      -0.969   1.911   2.577  0.00  0.00    +0.000 C 
ATOM      9  S   UNL     1      -2.571   1.722   1.727  0.00  0.00    +0.000 S 
ATOM     10  C   UNL     1      -3.133   0.141   2.416  0.00  0.00    +0.000 C 
ATOM     11  C   UNL     1      -3.288   0.173   3.930  0.00  0.00    +0.000 C 
ATOM     12  C   UNL     1      -1.979   0.355   4.684  0.00  0.00    +0.000 C 
ATOM     13  S   UNL     1      -1.204   1.970   4.391  0.00  0.00    +0.000 S 
ENDBRANCH   1   8
TORSDOF 2
