MODEL 1
REMARK VINA RESULT:      -4.8      0.000      0.000
REMARK  Name = *****
REMARK  4 active torsions:
REMARK  status: ('A' for Active; 'I' for Inactive)
REMARK    1  A    between atoms: C_4  and  C_7
REMARK    2  A    between atoms: C_7  and  C_8
REMARK    3  A    between atoms: C_8  and  C_9
REMARK    4  A    between atoms: C_11  and  C_16
REMARK                            x       y       z     vdW  Elec       q    Type
REMARK                         _______ _______ _______ _____ _____    ______ ____
ROOT
ATOM      1  C   UNL     1      88.858  68.663  86.870  0.00  0.00    +0.000 A 
ATOM      2  C   UNL     1      89.922  67.966  86.275  0.00  0.00    +0.000 A 
ATOM      3  C   UNL     1      89.952  66.565  86.296  0.00  0.00    +0.000 A 
ATOM      4  C   UNL     1      88.918  65.869  86.915  0.00  0.00    +0.000 A 
ATOM      5  C   UNL     1      87.859  66.547  87.513  0.00  0.00    +0.000 A 
ATOM      6  C   UNL     1      87.830  67.942  87.493  0.00  0.00    +0.000 A 
ATOM      7  F   UNL     1      88.923  64.529  86.949  0.00  0.00    +0.000 F 
ENDROOT
BRANCH   3   8
ATOM      8  C   UNL     1      91.035  65.858  85.688  0.00  0.00    +0.000 C 
ATOM      9  N   UNL     1      91.932  65.284  85.226  0.00  0.00    +0.000 NA
ENDBRANCH   3   8
BRANCH   1  10
ATOM     10  C   UNL     1      88.836  70.174  86.863  0.00  0.00    +0.000 C 
BRANCH  10  11
ATOM     11  C   UNL     1      87.893  70.721  85.787  0.00  0.00    +0.000 C 
BRANCH  11  15
ATOM     12  C   UNL     1      84.320  72.398  87.523  0.00  0.00    +0.000 A 
ATOM     13  C   UNL     1      85.318  71.879  88.347  0.00  0.00    +0.000 A 
ATOM     14  C   UNL     1      86.477  71.342  87.786  0.00  0.00    +0.000 A 
ATOM     15  C   UNL     1      86.649  71.322  86.396  0.00  0.00    +0.000 A 
ATOM     16  C   UNL     1      85.638  71.841  85.577  0.00  0.00    +0.000 A 
ATOM     17  C   UNL     1      84.479  72.378  86.139  0.00  0.00    +0.000 A 
ENDBRANCH  11  15
ENDBRANCH  10  11
ENDBRANCH   1  10
TORSDOF 4
ENDMDL
