MODEL 1
REMARK VINA RESULT:      -4.5      0.000      0.000
REMARK  Name = *****
REMARK  0 active torsions:
REMARK  status: ('A' for Active; 'I' for Inactive)
REMARK                            x       y       z     vdW  Elec       q    Type
REMARK                         _______ _______ _______ _____ _____    ______ ____
ROOT
ATOM      1  C   UNL     1      97.388 118.084  82.835  0.00  0.00    +0.000 C 
ATOM      2  C   UNL     1      98.534 118.914  82.273  0.00  0.00    +0.000 C 
ATOM      3  C   UNL     1      98.209 119.006  80.783  0.00  0.00    +0.000 C 
ATOM      4  C   UNL     1      97.535 117.691  80.477  0.00  0.00    +0.000 C 
ATOM      5  C   UNL     1      97.173 117.005  81.772  0.00  0.00    +0.000 C 
ATOM      6  C   UNL     1      96.645 117.567  79.264  0.00  0.00    +0.000 C 
ATOM      7  C   UNL     1      97.974 116.872  79.287  0.00  0.00    +0.000 C 
ATOM      8  C   UNL     1      97.317 115.598  78.835  0.00  0.00    +0.000 C 
ATOM      9  C   UNL     1      95.987 116.292  78.811  0.00  0.00    +0.000 C 
ATOM     10  C   UNL     1      96.428 115.472  77.622  0.00  0.00    +0.000 C 
ATOM     11  C   UNL     1      96.793 116.157  76.327  0.00  0.00    +0.000 C 
ATOM     12  C   UNL     1      96.591 115.073  75.266  0.00  0.00    +0.000 C 
ATOM     13  C   UNL     1      95.442 114.240  75.823  0.00  0.00    +0.000 C 
ATOM     14  C   UNL     1      95.755 114.157  77.316  0.00  0.00    +0.000 C 
ENDROOT
TORSDOF 0
ENDMDL
