REMARK  Name = *****
REMARK  6 active torsions:
REMARK  status: ('A' for Active; 'I' for Inactive)
REMARK    1  A    between atoms: C_1  and  C_2
REMARK    2  A    between atoms: C_5  and  C_8
REMARK    3  A    between atoms: C_8  and  C_9
REMARK    4  A    between atoms: C_9  and  C_10
REMARK    5  A    between atoms: C_13  and  O_16
REMARK    6  A    between atoms: O_16  and  C_17
REMARK                            x       y       z     vdW  Elec       q    Type
REMARK                         _______ _______ _______ _____ _____    ______ ____
ROOT
ATOM      1  C   UNL     1      -3.180   1.334   0.471  0.00  0.00    +0.000 C 
ENDROOT
BRANCH   1   2
ATOM      2  C   UNL     1      -2.141   2.249  -0.130  0.00  0.00    +0.000 A 
ATOM      3  C   UNL     1      -2.283   2.724  -1.440  0.00  0.00    +0.000 A 
ATOM      4  C   UNL     1      -1.310   3.555  -2.007  0.00  0.00    +0.000 A 
ATOM      5  C   UNL     1      -0.182   3.918  -1.273  0.00  0.00    +0.000 A 
ATOM      6  C   UNL     1      -0.037   3.442   0.032  0.00  0.00    +0.000 A 
ATOM      7  C   UNL     1      -1.006   2.611   0.601  0.00  0.00    +0.000 A 
BRANCH   5   8
ATOM      8  O   UNL     1       0.838   4.719  -1.706  0.00  0.00    +0.000 OA
ATOM      9  C   UNL     1       0.740   5.223  -3.031  0.00  0.00    +0.000 C 
ENDBRANCH   5   8
ENDBRANCH   1   2
BRANCH   1  10
ATOM     10  C   UNL     1      -2.919  -0.131   0.109  0.00  0.00    +0.000 C 
BRANCH  10  15
ATOM     11  C   UNL     1      -6.879  -3.646   2.538  0.00  0.00    +0.000 C 
ATOM     12  C   UNL     1      -5.870  -2.721   1.926  0.00  0.00    +0.000 A 
ATOM     13  C   UNL     1      -6.118  -2.121   0.686  0.00  0.00    +0.000 A 
ATOM     14  C   UNL     1      -5.165  -1.287   0.098  0.00  0.00    +0.000 A 
ATOM     15  C   UNL     1      -3.941  -1.049   0.734  0.00  0.00    +0.000 A 
ATOM     16  C   UNL     1      -3.689  -1.656   1.970  0.00  0.00    +0.000 A 
ATOM     17  C   UNL     1      -4.642  -2.491   2.557  0.00  0.00    +0.000 A 
ENDBRANCH  10  15
ENDBRANCH   1  10
TORSDOF 4
