REMARK  Name = *****
REMARK  1 active torsions:
REMARK  status: ('A' for Active; 'I' for Inactive)
REMARK    1  A    between atoms: N_3  and  C_11
REMARK                            x       y       z     vdW  Elec       q    Type
REMARK                         _______ _______ _______ _____ _____    ______ ____
ROOT
ATOM      1  C   UNL     1       0.995   1.427  -0.992  0.00  0.00    +0.000 C 
ATOM      2  C   UNL     1       2.361   1.099  -0.388  0.00  0.00    +0.000 C 
ATOM      3  N   UNL     1       2.493  -0.371  -0.086  0.00  0.00    +0.000 N 
ATOM      4  C   UNL     1       1.458  -1.078   0.242  0.00  0.00    +0.000 C 
ATOM      5  C   UNL     1       0.104  -0.504   0.314  0.00  0.00    +0.000 A 
ATOM      6  C   UNL     1      -0.922  -1.213   0.939  0.00  0.00    +0.000 A 
ATOM      7  C   UNL     1      -2.197  -0.651   0.996  0.00  0.00    +0.000 A 
ATOM      8  C   UNL     1      -2.438   0.600   0.426  0.00  0.00    +0.000 A 
ATOM      9  C   UNL     1      -1.408   1.299  -0.208  0.00  0.00    +0.000 A 
ATOM     10  C   UNL     1      -0.124   0.752  -0.257  0.00  0.00    +0.000 A 
ENDROOT
BRANCH   3  11
ATOM     11  C   UNL     1       3.803  -0.980  -0.168  0.00  0.00    +0.000 A 
ATOM     12  C   UNL     1       3.979  -2.375  -0.180  0.00  0.00    +0.000 A 
ATOM     13  C   UNL     1       5.261  -2.935  -0.255  0.00  0.00    +0.000 A 
ATOM     14  C   UNL     1       6.389  -2.128  -0.316  0.00  0.00    +0.000 A 
ATOM     15  C   UNL     1       6.239  -0.747  -0.303  0.00  0.00    +0.000 A 
ATOM     16  C   UNL     1       4.960  -0.178  -0.230  0.00  0.00    +0.000 A 
ATOM     17 CL   UNL     1       5.434  -4.646  -0.279  0.00  0.00    +0.000 Cl
ENDBRANCH   3  11
TORSDOF 1
