MODEL 1
REMARK VINA RESULT:      -4.7      0.000      0.000
REMARK  Name = *****
REMARK  5 active torsions:
REMARK  status: ('A' for Active; 'I' for Inactive)
REMARK    1  A    between atoms: C_1  and  O_2
REMARK    2  A    between atoms: O_2  and  C_3
REMARK    3  A    between atoms: C_8  and  C_9
REMARK    4  A    between atoms: C_10  and  C_11
REMARK    5  A    between atoms: C_11  and  C_12
REMARK                            x       y       z     vdW  Elec       q    Type
REMARK                         _______ _______ _______ _____ _____    ______ ____
ROOT
ATOM      1  C   UNL     1      89.832  66.838  86.492  0.00  0.00    +0.000 C 
ATOM      2  C   UNL     1      88.711  66.180  86.828  0.00  0.00    +0.000 C 
ENDROOT
BRANCH   1   8
ATOM      3  C   UNL     1      89.964  68.595  84.686  0.00  0.00    +0.000 A 
ATOM      4  C   UNL     1      89.928  69.949  84.330  0.00  0.00    +0.000 A 
ATOM      5  C   UNL     1      89.746  70.934  85.306  0.00  0.00    +0.000 A 
ATOM      6  C   UNL     1      89.593  70.577  86.641  0.00  0.00    +0.000 A 
ATOM      7  C   UNL     1      89.622  69.232  87.008  0.00  0.00    +0.000 A 
ATOM      8  C   UNL     1      89.809  68.236  86.039  0.00  0.00    +0.000 A 
BRANCH   3  10
ATOM      9  C   UNL     1      89.047  67.341  82.876  0.00  0.00    +0.000 C 
ATOM     10  O   UNL     1      90.111  67.566  83.791  0.00  0.00    +0.000 OA
ENDBRANCH   3  10
ENDBRANCH   1   8
BRANCH   2  11
ATOM     11  C   UNL     1      88.689  64.764  87.327  0.00  0.00    +0.000 C 
BRANCH  11  12
ATOM     12  C   UNL     1      88.166  64.656  88.741  0.00  0.00    +0.000 A 
ATOM     13  C   UNL     1      88.882  63.949  89.717  0.00  0.00    +0.000 A 
ATOM     14  C   UNL     1      88.398  63.857  91.023  0.00  0.00    +0.000 A 
ATOM     15  C   UNL     1      87.193  64.468  91.366  0.00  0.00    +0.000 A 
ATOM     16  C   UNL     1      86.471  65.171  90.405  0.00  0.00    +0.000 A 
ATOM     17  C   UNL     1      86.954  65.265  89.099  0.00  0.00    +0.000 A 
ENDBRANCH  11  12
ENDBRANCH   2  11
TORSDOF 4
ENDMDL
