MODEL 1
REMARK VINA RESULT:      -4.8      0.000      0.000
REMARK  Name = *****
REMARK  3 active torsions:
REMARK  status: ('A' for Active; 'I' for Inactive)
REMARK    1  A    between atoms: C_4  and  C_7
REMARK    2  A    between atoms: C_7  and  C_8
REMARK    3  A    between atoms: C_8  and  C_10
REMARK                            x       y       z     vdW  Elec       q    Type
REMARK                         _______ _______ _______ _____ _____    ______ ____
ROOT
ATOM      1  C   UNL     1     103.229 126.844  81.595  0.00  0.00    +0.000 C 
ATOM      2  O   UNL     1     103.245 127.461  80.528  0.00  0.00    +0.000 OA
ENDROOT
BRANCH   1   3
ATOM      3  C   UNL     1     103.752 125.443  81.594  0.00  0.00    +0.000 A 
ATOM      4  C   UNL     1     104.194 124.800  80.429  0.00  0.00    +0.000 A 
ATOM      5  C   UNL     1     104.666 123.485  80.492  0.00  0.00    +0.000 A 
ATOM      6  C   UNL     1     104.702 122.820  81.713  0.00  0.00    +0.000 A 
ATOM      7  C   UNL     1     104.279 123.446  82.878  0.00  0.00    +0.000 A 
ATOM      8  C   UNL     1     103.807 124.759  82.820  0.00  0.00    +0.000 A 
ATOM      9  F   UNL     1     105.156 121.562  81.765  0.00  0.00    +0.000 F 
ENDBRANCH   1   3
BRANCH   1  10
ATOM     10  C   UNL     1     102.701 127.428  82.904  0.00  0.00    +0.000 C 
ATOM     11 CL   UNL     1     103.498 129.001  83.218  0.00  0.00    +0.000 Cl
BRANCH  10  15
ATOM     12  C   UNL     1      98.413 127.995  82.982  0.00  0.00    +0.000 A 
ATOM     13  C   UNL     1      99.261 128.977  83.489  0.00  0.00    +0.000 A 
ATOM     14  C   UNL     1     100.644 128.790  83.460  0.00  0.00    +0.000 A 
ATOM     15  C   UNL     1     101.198 127.611  82.932  0.00  0.00    +0.000 A 
ATOM     16  C   UNL     1     100.328 126.639  82.410  0.00  0.00    +0.000 A 
ATOM     17  C   UNL     1      98.946 126.830  82.439  0.00  0.00    +0.000 A 
ENDBRANCH  10  15
ENDBRANCH   1  10
TORSDOF 3
ENDMDL
