MODEL 1
REMARK VINA RESULT:      -5.0      0.000      0.000
REMARK  Name = *****
REMARK  1 active torsions:
REMARK  status: ('A' for Active; 'I' for Inactive)
REMARK    1  A    between atoms: C_3  and  C_8
REMARK                            x       y       z     vdW  Elec       q    Type
REMARK                         _______ _______ _______ _____ _____    ______ ____
ROOT
ATOM      1  C   UNL     1     102.115 126.023  82.510  0.00  0.00    +0.000 A 
ATOM      2  N   UNL     1     102.642 125.125  83.325  0.00  0.00    +0.000 NA
ATOM      3  C   UNL     1     103.565 124.476  82.546  0.00  0.00    +0.000 A 
ATOM      4  C   UNL     1     103.565 125.017  81.270  0.00  0.00    +0.000 A 
ATOM      5  O   UNL     1     102.634 126.011  81.239  0.00  0.00    +0.000 OA
ATOM      6  C   UNL     1     104.382 124.595  80.229  0.00  0.00    +0.000 A 
ATOM      7  C   UNL     1     105.253 123.542  80.535  0.00  0.00    +0.000 A 
ATOM      8  C   UNL     1     105.279 122.970  81.815  0.00  0.00    +0.000 A 
ATOM      9  C   UNL     1     104.440 123.424  82.841  0.00  0.00    +0.000 A 
ATOM     10 CL   UNL     1     106.370 121.675  82.135  0.00  0.00    +0.000 Cl
ENDROOT
BRANCH   1  13
ATOM     11  C   UNL     1      98.726 127.659  82.648  0.00  0.00    +0.000 A 
ATOM     12  C   UNL     1      99.747 126.738  82.402  0.00  0.00    +0.000 A 
ATOM     13  C   UNL     1     101.072 127.008  82.784  0.00  0.00    +0.000 A 
ATOM     14  C   UNL     1     101.350 128.226  83.421  0.00  0.00    +0.000 A 
ATOM     15  C   UNL     1     100.328 129.144  83.664  0.00  0.00    +0.000 A 
ATOM     16  C   UNL     1      99.017 128.866  83.280  0.00  0.00    +0.000 A 
ATOM     17 CL   UNL     1     100.688 130.636  84.443  0.00  0.00    +0.000 Cl
ENDBRANCH   1  13
TORSDOF 1
ENDMDL
