MODEL 1
REMARK VINA RESULT:      -4.5      0.000      0.000
REMARK  Name = *****
REMARK  5 active torsions:
REMARK  status: ('A' for Active; 'I' for Inactive)
REMARK    1  A    between atoms: C_4  and  C_7
REMARK    2  A    between atoms: C_7  and  C_8
REMARK    3  A    between atoms: C_7  and  O_16
REMARK    4  A    between atoms: C_8  and  C_9
REMARK    5  A    between atoms: O_16  and  O_17
REMARK                            x       y       z     vdW  Elec       q    Type
REMARK                         _______ _______ _______ _____ _____    ______ ____
ROOT
ATOM      1  C   UNL     1      88.943  70.031  86.340  0.00  0.00    +0.000 C 
ENDROOT
BRANCH   1   5
ATOM      2  C   UNL     1      88.946  65.739  87.078  0.00  0.00    +0.000 A 
ATOM      3  C   UNL     1      87.895  66.512  87.563  0.00  0.00    +0.000 A 
ATOM      4  C   UNL     1      87.865  67.891  87.333  0.00  0.00    +0.000 A 
ATOM      5  C   UNL     1      88.881  68.526  86.603  0.00  0.00    +0.000 A 
ATOM      6  C   UNL     1      89.941  67.723  86.134  0.00  0.00    +0.000 A 
ATOM      7  C   UNL     1      89.972  66.346  86.363  0.00  0.00    +0.000 A 
ENDBRANCH   1   5
BRANCH   1   8
ATOM      8  C   UNL     1      87.779  70.790  85.646  0.00  0.00    +0.000 C 
ATOM      9 BR   UNL     1      87.115  69.777  84.076  0.00  0.00    +0.000 Br
BRANCH   8  10
ATOM     10  C   UNL     1      86.607  71.299  86.474  0.00  0.00    +0.000 A 
ATOM     11  C   UNL     1      86.593  71.278  87.878  0.00  0.00    +0.000 A 
ATOM     12  C   UNL     1      85.507  71.785  88.599  0.00  0.00    +0.000 A 
ATOM     13  C   UNL     1      84.418  72.339  87.933  0.00  0.00    +0.000 A 
ATOM     14  C   UNL     1      84.419  72.396  86.544  0.00  0.00    +0.000 A 
ATOM     15  C   UNL     1      85.504  71.889  85.824  0.00  0.00    +0.000 A 
ENDBRANCH   8  10
ENDBRANCH   1   8
BRANCH   1  16
ATOM     16  O   UNL     1      90.150  70.282  85.577  0.00  0.00    +0.000 OA
BRANCH  16  17
ATOM     17  O   UNL     1      90.112  71.688  85.185  0.00  0.00    +0.000 OA
ATOM     18  H   UNL     1      89.190  71.993  85.168  0.00  0.00    +0.000 HD
ENDBRANCH  16  17
ENDBRANCH   1  16
TORSDOF 5
ENDMDL
