MODEL 1
REMARK VINA RESULT:      -4.7      0.000      0.000
REMARK  Name = *****
REMARK  4 active torsions:
REMARK  status: ('A' for Active; 'I' for Inactive)
REMARK    1  A    between atoms: C_4  and  C_7
REMARK    2  A    between atoms: C_7  and  O_9
REMARK    3  A    between atoms: O_9  and  C_10
REMARK    4  A    between atoms: C_10  and  C_11
REMARK                            x       y       z     vdW  Elec       q    Type
REMARK                         _______ _______ _______ _____ _____    ______ ____
ROOT
ATOM      1  O   UNL     1     100.243 126.422  82.591  0.00  0.00    +0.000 OA
ENDROOT
BRANCH   1   2
ATOM      2  C   UNL     1      99.193 127.281  82.705  0.00  0.00    +0.000 C 
ATOM      3  O   UNL     1      98.167 127.225  82.041  0.00  0.00    +0.000 OA
BRANCH   2   7
ATOM      4  C   UNL     1      98.683 130.650  85.435  0.00  0.00    +0.000 C 
ATOM      5  C   UNL     1      98.936 129.270  86.032  0.00  0.00    +0.000 C 
ATOM      6  C   UNL     1      98.687 128.158  85.017  0.00  0.00    +0.000 C 
ATOM      7  C   UNL     1      99.504 128.361  83.734  0.00  0.00    +0.000 C 
ATOM      8  C   UNL     1      99.247 129.756  83.144  0.00  0.00    +0.000 C 
ATOM      9  C   UNL     1      99.497 130.863  84.163  0.00  0.00    +0.000 C 
ENDBRANCH   2   7
ENDBRANCH   1   2
BRANCH   1  10
ATOM     10  C   UNL     1     101.523 126.933  82.978  0.00  0.00    +0.000 C 
BRANCH  10  11
ATOM     11  C   UNL     1     102.546 126.530  81.947  0.00  0.00    +0.000 A 
ATOM     12  C   UNL     1     102.987 125.200  81.860  0.00  0.00    +0.000 A 
ATOM     13  C   UNL     1     103.945 124.835  80.913  0.00  0.00    +0.000 A 
ATOM     14  C   UNL     1     104.470 125.800  80.062  0.00  0.00    +0.000 A 
ATOM     15  C   UNL     1     104.058 127.125  80.141  0.00  0.00    +0.000 A 
ATOM     16  C   UNL     1     103.098 127.492  81.086  0.00  0.00    +0.000 A 
ATOM     17  F   UNL     1     105.390 125.448  79.154  0.00  0.00    +0.000 F 
ENDBRANCH  10  11
ENDBRANCH   1  10
TORSDOF 4
ENDMDL
