MODEL 1
REMARK VINA RESULT:      -4.7      0.000      0.000
REMARK  Name = *****
REMARK  4 active torsions:
REMARK  status: ('A' for Active; 'I' for Inactive)
REMARK    1  A    between atoms: C_1  and  C_2
REMARK    2  A    between atoms: C_7  and  C_8
REMARK    3  A    between atoms: C_8  and  O_10
REMARK    4  A    between atoms: O_10  and  C_11
REMARK                            x       y       z     vdW  Elec       q    Type
REMARK                         _______ _______ _______ _____ _____    ______ ____
ROOT
ATOM      1  C   UNL     1     101.535 126.568  84.474  0.00  0.00    +0.000 C 
ATOM      2  O   UNL     1     101.055 125.546  84.937  0.00  0.00    +0.000 OA
ENDROOT
BRANCH   1   9
ATOM      3  C   UNL     1      99.378 126.796  82.426  0.00  0.00    +0.000 C 
ATOM      4  C   UNL     1      99.774 127.948  83.307  0.00  0.00    +0.000 A 
ATOM      5  C   UNL     1      99.127 129.184  83.141  0.00  0.00    +0.000 A 
ATOM      6  C   UNL     1      99.464 130.283  83.932  0.00  0.00    +0.000 A 
ATOM      7  C   UNL     1     100.459 130.170  84.898  0.00  0.00    +0.000 A 
ATOM      8  C   UNL     1     101.121 128.955  85.072  0.00  0.00    +0.000 A 
ATOM      9  C   UNL     1     100.786 127.841  84.284  0.00  0.00    +0.000 A 
ENDBRANCH   1   9
BRANCH   1  10
ATOM     10  O   UNL     1     102.845 126.770  84.071  0.00  0.00    +0.000 OA
BRANCH  10  11
ATOM     11  C   UNL     1     103.114 126.342  82.767  0.00  0.00    +0.000 A 
ATOM     12  C   UNL     1     103.493 125.025  82.514  0.00  0.00    +0.000 A 
ATOM     13  C   UNL     1     103.797 124.657  81.208  0.00  0.00    +0.000 A 
ATOM     14  C   UNL     1     103.746 125.580  80.169  0.00  0.00    +0.000 A 
ATOM     15  C   UNL     1     103.387 126.893  80.453  0.00  0.00    +0.000 A 
ATOM     16  C   UNL     1     103.075 127.290  81.749  0.00  0.00    +0.000 A 
ATOM     17  F   UNL     1     103.347 127.793  79.462  0.00  0.00    +0.000 F 
ATOM     18  F   UNL     1     104.156 123.394  80.946  0.00  0.00    +0.000 F 
ENDBRANCH  10  11
ENDBRANCH   1  10
TORSDOF 3
ENDMDL
