MODEL 1
REMARK VINA RESULT:      -4.4      0.000      0.000
REMARK  Name = *****
REMARK  4 active torsions:
REMARK  status: ('A' for Active; 'I' for Inactive)
REMARK    1  A    between atoms: C_1  and  C_2
REMARK    2  A    between atoms: C_7  and  O_8
REMARK    3  A    between atoms: O_8  and  C_9
REMARK    4  A    between atoms: C_9  and  C_10
REMARK                            x       y       z     vdW  Elec       q    Type
REMARK                         _______ _______ _______ _____ _____    ______ ____
ROOT
ATOM      1  O   UNL     1     103.397 127.026  82.962  0.00  0.00    +0.000 OA
ENDROOT
BRANCH   1   8
ATOM      2  C   UNL     1     103.648 127.468  80.146  0.00  0.00    +0.000 C 
ATOM      3  C   UNL     1     103.916 126.142  80.794  0.00  0.00    +0.000 A 
ATOM      4  C   UNL     1     104.317 125.045  80.020  0.00  0.00    +0.000 A 
ATOM      5  C   UNL     1     104.563 123.805  80.616  0.00  0.00    +0.000 A 
ATOM      6  C   UNL     1     104.407 123.645  81.991  0.00  0.00    +0.000 A 
ATOM      7  C   UNL     1     104.019 124.731  82.775  0.00  0.00    +0.000 A 
ATOM      8  C   UNL     1     103.802 125.975  82.181  0.00  0.00    +0.000 A 
ENDBRANCH   1   8
BRANCH   1   9
ATOM      9  C   UNL     1     102.389 126.601  83.888  0.00  0.00    +0.000 C 
BRANCH   9  10
ATOM     10  C   UNL     1     101.078 127.258  83.525  0.00  0.00    +0.000 A 
ATOM     11  C   UNL     1     100.836 128.598  83.866  0.00  0.00    +0.000 A 
ATOM     12  C   UNL     1      99.640 129.213  83.498  0.00  0.00    +0.000 A 
ATOM     13  C   UNL     1      98.675 128.510  82.781  0.00  0.00    +0.000 A 
ATOM     14  C   UNL     1      98.909 127.180  82.430  0.00  0.00    +0.000 A 
ATOM     15  C   UNL     1     100.105 126.558  82.797  0.00  0.00    +0.000 A 
ATOM     16 CL   UNL     1      99.357 130.857  83.924  0.00  0.00    +0.000 Cl
ENDBRANCH   9  10
ENDBRANCH   1   9
TORSDOF 3
ENDMDL
