REMARK  Name = *****
REMARK  3 active torsions:
REMARK  status: ('A' for Active; 'I' for Inactive)
REMARK    1  A    between atoms: C_4  and  C_7
REMARK    2  A    between atoms: C_7  and  S_8
REMARK    3  A    between atoms: S_8  and  C_10
REMARK                            x       y       z     vdW  Elec       q    Type
REMARK                         _______ _______ _______ _____ _____    ______ ____
ROOT
ATOM      1  C   UNL     1      -5.428  -0.928  -0.090  0.00  0.00    +0.000 A 
ATOM      2  C   UNL     1      -6.091  -1.239  -1.278  0.00  0.00    +0.000 A 
ATOM      3  C   UNL     1      -7.419  -0.871  -1.469  0.00  0.00    +0.000 A 
ATOM      4  C   UNL     1      -8.101  -0.186  -0.475  0.00  0.00    +0.000 A 
ATOM      5  C   UNL     1      -7.453   0.137   0.709  0.00  0.00    +0.000 A 
ATOM      6  C   UNL     1      -6.124  -0.231   0.901  0.00  0.00    +0.000 A 
ATOM      7  F   UNL     1      -5.514   0.125   2.041  0.00  0.00    +0.000 F 
ATOM      8  F   UNL     1      -8.102   0.819   1.662  0.00  0.00    +0.000 F 
ATOM      9  F   UNL     1      -9.377   0.177  -0.663  0.00  0.00    +0.000 F 
ATOM     10  F   UNL     1      -8.036  -1.172  -2.620  0.00  0.00    +0.000 F 
ATOM     11  F   UNL     1      -5.446  -1.889  -2.258  0.00  0.00    +0.000 F 
ENDROOT
BRANCH   1  12
ATOM     12  S   UNL     1      -3.727  -1.467   0.128  0.00  0.00    +0.000 S 
ATOM     13  O   UNL     1      -3.681  -2.033   1.517  0.00  0.00    +0.000 OA
BRANCH  12  14
ATOM     14  C   UNL     1      -2.943   0.181   0.166  0.00  0.00    +0.000 C 
BRANCH  14  18
ATOM     15  C   UNL     1       1.351  -0.118  -0.082  0.00  0.00    +0.000 A 
ATOM     16  C   UNL     1       0.611   0.222  -1.213  0.00  0.00    +0.000 A 
ATOM     17  C   UNL     1      -0.780   0.322  -1.136  0.00  0.00    +0.000 A 
ATOM     18  C   UNL     1      -1.443   0.085   0.077  0.00  0.00    +0.000 A 
ATOM     19  C   UNL     1      -0.688  -0.263   1.206  0.00  0.00    +0.000 A 
ATOM     20  C   UNL     1       0.702  -0.363   1.126  0.00  0.00    +0.000 A 
ENDBRANCH  14  18
ENDBRANCH  12  14
ENDBRANCH   1  12
TORSDOF 3
