MODEL 1
REMARK VINA RESULT:      -3.9      0.000      0.000
REMARK  Name = *****
REMARK  5 active torsions:
REMARK  status: ('A' for Active; 'I' for Inactive)
REMARK    1  A    between atoms: C_1  and  C_2
REMARK    2  A    between atoms: C_5  and  C_8
REMARK    3  A    between atoms: C_8  and  C_9
REMARK    4  A    between atoms: C_9  and  S_10
REMARK    5  A    between atoms: S_10  and  C_12
REMARK                            x       y       z     vdW  Elec       q    Type
REMARK                         _______ _______ _______ _____ _____    ______ ____
ROOT
ATOM      1  C   UNL     1      87.809  69.817  83.254  0.00  0.00    +0.000 C 
ENDROOT
BRANCH   1   2
ATOM      2  S   UNL     1      89.016  68.493  82.914  0.00  0.00    +0.000 S 
ATOM      3  O   UNL     1      90.377  69.125  82.884  0.00  0.00    +0.000 OA
BRANCH   2   4
ATOM      4  C   UNL     1      88.888  67.653  84.511  0.00  0.00    +0.000 A 
ATOM      5  C   UNL     1      90.048  67.214  85.161  0.00  0.00    +0.000 A 
ATOM      6  C   UNL     1      89.960  66.572  86.398  0.00  0.00    +0.000 A 
ATOM      7  C   UNL     1      88.716  66.372  86.995  0.00  0.00    +0.000 A 
ATOM      8  C   UNL     1      87.559  66.816  86.357  0.00  0.00    +0.000 A 
ATOM      9  C   UNL     1      87.644  67.458  85.120  0.00  0.00    +0.000 A 
ENDBRANCH   2   4
ENDBRANCH   1   2
BRANCH   1  10
ATOM     10  C   UNL     1      88.499  70.988  83.946  0.00  0.00    +0.000 C 
BRANCH  10  15
ATOM     11  C   UNL     1      87.949  70.570  89.730  0.00  0.00    +0.000 C 
ATOM     12  C   UNL     1      88.101  70.679  88.242  0.00  0.00    +0.000 A 
ATOM     13  C   UNL     1      89.349  70.521  87.632  0.00  0.00    +0.000 A 
ATOM     14  C   UNL     1      89.479  70.626  86.245  0.00  0.00    +0.000 A 
ATOM     15  C   UNL     1      88.362  70.896  85.446  0.00  0.00    +0.000 A 
ATOM     16  C   UNL     1      87.110  71.048  86.057  0.00  0.00    +0.000 A 
ATOM     17  C   UNL     1      86.983  70.943  87.443  0.00  0.00    +0.000 A 
ENDBRANCH  10  15
ENDBRANCH   1  10
TORSDOF 4
ENDMDL
