REMARK  Name = *****
REMARK  6 active torsions:
REMARK  status: ('A' for Active; 'I' for Inactive)
REMARK    1  A    between atoms: C_1  and  C_2
REMARK    2  A    between atoms: C_2  and  C_9
REMARK    3  A    between atoms: C_9  and  O_11
REMARK    4  A    between atoms: O_11  and  C_12
REMARK    5  A    between atoms: C_12  and  C_13
REMARK    6  A    between atoms: C_16  and  C_19
REMARK                            x       y       z     vdW  Elec       q    Type
REMARK                         _______ _______ _______ _____ _____    ______ ____
ROOT
ATOM      1  C   UNL     1       3.256   0.347   1.562  0.00  0.00    +0.000 C 
ATOM      2  O   UNL     1       2.599   0.471   2.586  0.00  0.00    +0.000 OA
ENDROOT
BRANCH   1   4
ATOM      3  C   UNL     1       2.741   1.016  -0.787  0.00  0.00    +0.000 C 
ATOM      4  C   UNL     1       2.691  -0.127   0.235  0.00  0.00    +0.000 C 
ATOM      5  C   UNL     1       3.456  -1.347  -0.236  0.00  0.00    +0.000 C 
ATOM      6  O   UNL     1       2.826  -2.015  -1.339  0.00  0.00    +0.000 OA
ATOM      7  C   UNL     1       1.490  -1.984  -1.581  0.00  0.00    +0.000 C 
ATOM      8  O   UNL     1       0.996  -2.580  -2.528  0.00  0.00    +0.000 OA
ATOM      9  O   UNL     1       0.736  -1.226  -0.744  0.00  0.00    +0.000 OA
ATOM     10  C   UNL     1       1.271  -0.617   0.438  0.00  0.00    +0.000 C 
ENDBRANCH   1   4
BRANCH   1  11
ATOM     11  O   UNL     1       4.586   0.611   1.451  0.00  0.00    +0.000 OA
BRANCH  11  12
ATOM     12  C   UNL     1       5.258   0.975   2.664  0.00  0.00    +0.000 C 
BRANCH  12  13
ATOM     13  C   UNL     1       5.868  -0.261   3.271  0.00  0.00    +0.000 A 
ATOM     14  C   UNL     1       7.061  -0.787   2.760  0.00  0.00    +0.000 A 
ATOM     15  C   UNL     1       7.616  -1.947   3.307  0.00  0.00    +0.000 A 
ATOM     16  C   UNL     1       6.980  -2.611   4.365  0.00  0.00    +0.000 A 
ATOM     17  C   UNL     1       5.785  -2.084   4.873  0.00  0.00    +0.000 A 
ATOM     18  C   UNL     1       5.230  -0.924   4.326  0.00  0.00    +0.000 A 
BRANCH  16  19
ATOM     19  C   UNL     1       7.585  -3.849   4.965  0.00  0.00    +0.000 C 
ATOM     20 CL   UNL     1       8.710  -3.421   6.269  0.00  0.00    +0.000 Cl
ENDBRANCH  16  19
ENDBRANCH  12  13
ENDBRANCH  11  12
ENDBRANCH   1  11
TORSDOF 5
