MODEL 1
REMARK VINA RESULT:      -3.8      0.000      0.000
REMARK  Name = *****
REMARK  5 active torsions:
REMARK  status: ('A' for Active; 'I' for Inactive)
REMARK    1  A    between atoms: C_1  and  C_2
REMARK    2  A    between atoms: C_2  and  C_3
REMARK    3  A    between atoms: C_2  and  S_9
REMARK    4  A    between atoms: S_9  and  C_10
REMARK    5  A    between atoms: C_10  and  C_11
REMARK                            x       y       z     vdW  Elec       q    Type
REMARK                         _______ _______ _______ _____ _____    ______ ____
ROOT
ATOM      1  C   UNL     1      88.711  64.286  86.624  0.00  0.00    +0.000 C 
ATOM      2  C   UNL     1      87.710  65.170  87.372  0.00  0.00    +0.000 C 
ENDROOT
BRANCH   2   3
ATOM      3  C   UNL     1      87.700  64.865  88.858  0.00  0.00    +0.000 A 
ATOM      4  C   UNL     1      88.735  64.142  89.473  0.00  0.00    +0.000 A 
ATOM      5  C   UNL     1      88.702  63.872  90.842  0.00  0.00    +0.000 A 
ATOM      6  C   UNL     1      87.638  64.325  91.617  0.00  0.00    +0.000 A 
ATOM      7  C   UNL     1      86.605  65.048  91.025  0.00  0.00    +0.000 A 
ATOM      8  C   UNL     1      86.635  65.318  89.656  0.00  0.00    +0.000 A 
ENDBRANCH   2   3
BRANCH   2   9
ATOM      9  S   UNL     1      86.058  64.986  86.598  0.00  0.00    +0.000 S 
BRANCH   9  10
ATOM     10  C   UNL     1      85.967  63.169  86.528  0.00  0.00    +0.000 C 
BRANCH  10  11
ATOM     11  C   UNL     1      85.408  62.597  87.807  0.00  0.00    +0.000 A 
ATOM     12  C   UNL     1      84.112  62.930  88.228  0.00  0.00    +0.000 A 
ATOM     13  C   UNL     1      83.596  62.407  89.415  0.00  0.00    +0.000 A 
ATOM     14  C   UNL     1      84.371  61.553  90.196  0.00  0.00    +0.000 A 
ATOM     15  C   UNL     1      85.664  61.223  89.794  0.00  0.00    +0.000 A 
ATOM     16  C   UNL     1      86.182  61.744  88.608  0.00  0.00    +0.000 A 
ENDBRANCH  10  11
ENDBRANCH   9  10
ENDBRANCH   2   9
TORSDOF 4
ENDMDL
