MODEL 1
REMARK VINA RESULT:      -4.3      0.000      0.000
REMARK  Name = *****
REMARK  2 active torsions:
REMARK  status: ('A' for Active; 'I' for Inactive)
REMARK    1  A    between atoms: C_3  and  C_7
REMARK    2  A    between atoms: C_8  and  C_9
REMARK                            x       y       z     vdW  Elec       q    Type
REMARK                         _______ _______ _______ _____ _____    ______ ____
ROOT
ATOM      1  C   UNL     1      96.860 118.032  80.137  0.00  0.00    +0.000 C 
ATOM      2  C   UNL     1      97.691 118.075  81.192  0.00  0.00    +0.000 C 
ENDROOT
BRANCH   1   5
ATOM      3  C   UNL     1      97.731 115.523  78.480  0.00  0.00    +0.000 C 
ATOM      4  C   UNL     1      96.804 115.550  79.699  0.00  0.00    +0.000 C 
ATOM      5  C   UNL     1      95.981 116.844  79.804  0.00  0.00    +0.000 C 
ATOM      6  C   UNL     1      95.180 117.082  78.504  0.00  0.00    +0.000 C 
ATOM      7  C   UNL     1      95.936 116.753  77.245  0.00  0.00    +0.000 C 
ATOM      8  C   UNL     1      97.088 116.065  77.236  0.00  0.00    +0.000 C 
ENDBRANCH   1   5
BRANCH   2   9
ATOM      9  C   UNL     1      98.564 119.266  81.531  0.00  0.00    +0.000 C 
ATOM     10  C   UNL     1      99.039 119.215  82.993  0.00  0.00    +0.000 C 
ATOM     11  C   UNL     1      97.907 119.441  84.000  0.00  0.00    +0.000 C 
ATOM     12  C   UNL     1      96.961 120.533  83.591  0.00  0.00    +0.000 C 
ATOM     13  C   UNL     1      96.939 121.062  82.359  0.00  0.00    +0.000 C 
ATOM     14  C   UNL     1      97.836 120.597  81.245  0.00  0.00    +0.000 C 
ENDBRANCH   2   9
TORSDOF 2
ENDMDL
