REMARK  Name = *****
REMARK  3 active torsions:
REMARK  status: ('A' for Active; 'I' for Inactive)
REMARK    1  A    between atoms: C_4  and  S_7
REMARK    2  A    between atoms: S_7  and  N_8
REMARK    3  A    between atoms: N_8  and  C_9
REMARK                            x       y       z     vdW  Elec       q    Type
REMARK                         _______ _______ _______ _____ _____    ______ ____
ROOT
ATOM      1  S   UNL     1      -3.135   0.460  -0.224  0.00  0.00    +0.000 S 
ATOM      2  O   UNL     1      -3.476   0.872  -1.571  0.00  0.00    +0.000 OA
ATOM      3  F   UNL     1      -3.762  -0.993  -0.082  0.00  0.00    +0.000 F 
ENDROOT
BRANCH   1   7
ATOM      4  C   UNL     1       1.379  -0.111  -0.150  0.00  0.00    +0.000 A 
ATOM      5  C   UNL     1       0.545  -1.201  -0.414  0.00  0.00    +0.000 A 
ATOM      6  C   UNL     1      -0.838  -1.029  -0.448  0.00  0.00    +0.000 A 
ATOM      7  C   UNL     1      -1.372   0.241  -0.218  0.00  0.00    +0.000 A 
ATOM      8  C   UNL     1      -0.546   1.337   0.044  0.00  0.00    +0.000 A 
ATOM      9  C   UNL     1       0.835   1.155   0.078  0.00  0.00    +0.000 A 
ENDBRANCH   1   7
BRANCH   1  10
ATOM     10  N   UNL     1      -3.520   1.188   1.072  0.00  0.00    +0.000 NA
BRANCH  10  11
ATOM     11  C   UNL     1      -3.386   0.707   2.405  0.00  0.00    +0.000 A 
ATOM     12  C   UNL     1      -2.929  -0.563   2.765  0.00  0.00    +0.000 A 
ATOM     13  C   UNL     1      -2.828  -0.925   4.115  0.00  0.00    +0.000 A 
ATOM     14  C   UNL     1      -3.187  -0.016   5.107  0.00  0.00    +0.000 A 
ATOM     15  C   UNL     1      -3.649   1.251   4.764  0.00  0.00    +0.000 A 
ATOM     16  C   UNL     1      -3.747   1.605   3.415  0.00  0.00    +0.000 A 
ATOM     17 BR   UNL     1      -3.048  -0.507   6.926  0.00  0.00    +0.000 Br
ENDBRANCH  10  11
ENDBRANCH   1  10
TORSDOF 3
