MODEL 1
REMARK VINA RESULT:      -4.6      0.000      0.000
REMARK  Name = *****
REMARK  5 active torsions:
REMARK  status: ('A' for Active; 'I' for Inactive)
REMARK    1  A    between atoms: C_1  and  C_2
REMARK    2  A    between atoms: C_4  and  C_8
REMARK    3  A    between atoms: C_8  and  O_10
REMARK    4  A    between atoms: O_10  and  C_11
REMARK    5  A    between atoms: C_11  and  C_12
REMARK                            x       y       z     vdW  Elec       q    Type
REMARK                         _______ _______ _______ _____ _____    ______ ____
ROOT
ATOM      1  C   UNL     1     104.601 124.462  80.067  0.00  0.00    +0.000 C 
ATOM      2  O   UNL     1     105.544 124.684  79.325  0.00  0.00    +0.000 OA
ENDROOT
BRANCH   1   6
ATOM      3  C   UNL     1     104.347 122.820  84.841  0.00  0.00    +0.000 C 
ATOM      4  C   UNL     1     104.493 122.555  83.371  0.00  0.00    +0.000 A 
ATOM      5  C   UNL     1     104.492 123.616  82.453  0.00  0.00    +0.000 A 
ATOM      6  C   UNL     1     104.594 123.368  81.076  0.00  0.00    +0.000 A 
ATOM      7  C   UNL     1     104.681 122.047  80.619  0.00  0.00    +0.000 A 
ATOM      8  C   UNL     1     104.668 120.988  81.526  0.00  0.00    +0.000 A 
ATOM      9  C   UNL     1     104.571 121.240  82.895  0.00  0.00    +0.000 A 
ENDBRANCH   1   6
BRANCH   1  10
ATOM     10  O   UNL     1     103.440 125.157  80.117  0.00  0.00    +0.000 OA
BRANCH  10  11
ATOM     11  C   UNL     1     103.565 126.568  80.328  0.00  0.00    +0.000 C 
BRANCH  11  12
ATOM     12  C   UNL     1     102.811 126.948  81.576  0.00  0.00    +0.000 A 
ATOM     13  C   UNL     1     103.131 128.121  82.274  0.00  0.00    +0.000 A 
ATOM     14  C   UNL     1     102.444 128.458  83.442  0.00  0.00    +0.000 A 
ATOM     15  C   UNL     1     101.441 127.622  83.927  0.00  0.00    +0.000 A 
ATOM     16  C   UNL     1     101.124 126.447  83.248  0.00  0.00    +0.000 A 
ATOM     17  C   UNL     1     101.809 126.109  82.080  0.00  0.00    +0.000 A 
ENDBRANCH  11  12
ENDBRANCH  10  11
ENDBRANCH   1  10
TORSDOF 4
ENDMDL
