MODEL 1
REMARK VINA RESULT:      -4.8      0.000      0.000
REMARK  Name = *****
REMARK  3 active torsions:
REMARK  status: ('A' for Active; 'I' for Inactive)
REMARK    1  A    between atoms: C_1  and  C_2
REMARK    2  A    between atoms: C_2  and  C_11
REMARK    3  A    between atoms: N_3  and  C_4
REMARK                            x       y       z     vdW  Elec       q    Type
REMARK                         _______ _______ _______ _____ _____    ______ ____
ROOT
ATOM      1  C   UNL     1     103.264 127.092  80.783  0.00  0.00    +0.000 C 
ATOM      2  C   UNL     1     103.071 125.875  81.670  0.00  0.00    +0.000 C 
ATOM      3  N   UNL     1     102.193 125.806  82.630  0.00  0.00    +0.000 NA
ENDROOT
BRANCH   3   4
ATOM      4  C   UNL     1     101.342 126.885  82.890  0.00  0.00    +0.000 A 
ATOM      5  C   UNL     1     100.002 126.845  82.490  0.00  0.00    +0.000 A 
ATOM      6  C   UNL     1      99.149 127.912  82.775  0.00  0.00    +0.000 A 
ATOM      7  C   UNL     1      99.639 129.010  83.472  0.00  0.00    +0.000 A 
ATOM      8  C   UNL     1     100.962 129.058  83.896  0.00  0.00    +0.000 A 
ATOM      9  C   UNL     1     101.812 127.988  83.610  0.00  0.00    +0.000 A 
ATOM     10  F   UNL     1      98.822 130.036  83.747  0.00  0.00    +0.000 F 
ENDBRANCH   3   4
BRANCH   2  11
ATOM     11  C   UNL     1     103.932 124.678  81.417  0.00  0.00    +0.000 A 
ATOM     12  C   UNL     1     104.132 123.699  82.400  0.00  0.00    +0.000 A 
ATOM     13  C   UNL     1     104.949 122.597  82.132  0.00  0.00    +0.000 A 
ATOM     14  C   UNL     1     105.568 122.482  80.893  0.00  0.00    +0.000 A 
ATOM     15  C   UNL     1     105.390 123.452  79.912  0.00  0.00    +0.000 A 
ATOM     16  C   UNL     1     104.575 124.554  80.177  0.00  0.00    +0.000 A 
ATOM     17  F   UNL     1     106.350 121.426  80.642  0.00  0.00    +0.000 F 
ENDBRANCH   2  11
TORSDOF 2
ENDMDL
