REMARK  Name = *****
REMARK  6 active torsions:
REMARK  status: ('A' for Active; 'I' for Inactive)
REMARK    1  A    between atoms: C_1  and  C_2
REMARK    2  A    between atoms: C_4  and  C_8
REMARK    3  A    between atoms: C_8  and  O_9
REMARK    4  A    between atoms: O_9  and  C_10
REMARK    5  A    between atoms: C_10  and  C_11
REMARK    6  A    between atoms: C_15  and  C_17
REMARK                            x       y       z     vdW  Elec       q    Type
REMARK                         _______ _______ _______ _____ _____    ______ ____
ROOT
ATOM      1  O   UNL     1      -0.911   3.611   0.039  0.00  0.00    +0.000 OA
ENDROOT
BRANCH   1   2
ATOM      2  C   UNL     1      -1.824   2.517   0.007  0.00  0.00    +0.000 C 
BRANCH   2   6
ATOM      3  C   UNL     1       2.198  -0.293  -1.243  0.00  0.00    +0.000 C 
ATOM      4  C   UNL     1       0.850  -0.159  -0.598  0.00  0.00    +0.000 A 
ATOM      5  C   UNL     1       0.177   1.070  -0.588  0.00  0.00    +0.000 A 
ATOM      6  C   UNL     1      -1.077   1.205   0.028  0.00  0.00    +0.000 A 
ATOM      7  C   UNL     1      -1.665   0.075   0.613  0.00  0.00    +0.000 A 
ATOM      8  C   UNL     1      -1.003  -1.153   0.606  0.00  0.00    +0.000 A 
ATOM      9  C   UNL     1       0.250  -1.269   0.005  0.00  0.00    +0.000 A 
ENDBRANCH   2   6
ENDBRANCH   1   2
BRANCH   1  10
ATOM     10  C   UNL     1      -1.589   4.864   0.048  0.00  0.00    +0.000 C 
BRANCH  10  11
ATOM     11  C   UNL     1      -0.595   6.000   0.041  0.00  0.00    +0.000 A 
ATOM     12  C   UNL     1       0.640   5.891   0.693  0.00  0.00    +0.000 A 
ATOM     13  C   UNL     1       1.532   6.964   0.711  0.00  0.00    +0.000 A 
ATOM     14  C   UNL     1       1.196   8.164   0.086  0.00  0.00    +0.000 A 
ATOM     15  C   UNL     1      -0.036   8.302  -0.562  0.00  0.00    +0.000 A 
ATOM     16  C   UNL     1      -0.927   7.219  -0.573  0.00  0.00    +0.000 A 
ATOM     17  C   UNL     1      -0.417   9.591  -1.226  0.00  0.00    +0.000 C 
ENDBRANCH  10  11
ENDBRANCH   1  10
TORSDOF 4
