REMARK  Name = *****
REMARK  4 active torsions:
REMARK  status: ('A' for Active; 'I' for Inactive)
REMARK    1  A    between atoms: C_1  and  C_2
REMARK    2  A    between atoms: C_3  and  C_4
REMARK    3  A    between atoms: C_3  and  C_10
REMARK    4  A    between atoms: C_10  and  C_12
REMARK                            x       y       z     vdW  Elec       q    Type
REMARK                         _______ _______ _______ _____ _____    ______ ____
ROOT
ATOM      1  C   UNL     1      -0.152   1.055   0.261  0.00  0.00    +0.000 C 
ATOM      2  C   UNL     1       1.222   1.000  -0.328  0.00  0.00    +0.000 C 
ATOM      3  C   UNL     1       2.362   0.569   0.253  0.00  0.00    +0.000 C 
ENDROOT
BRANCH   3   4
ATOM      4  C   UNL     1       2.407   0.051   1.634  0.00  0.00    +0.000 A 
ATOM      5  C   UNL     1       1.728  -1.124   1.990  0.00  0.00    +0.000 A 
ATOM      6  C   UNL     1       1.794  -1.611   3.297  0.00  0.00    +0.000 A 
ATOM      7  C   UNL     1       2.539  -0.929   4.258  0.00  0.00    +0.000 A 
ATOM      8  C   UNL     1       3.217   0.239   3.915  0.00  0.00    +0.000 A 
ATOM      9  C   UNL     1       3.152   0.728   2.609  0.00  0.00    +0.000 A 
ENDBRANCH   3   4
BRANCH   3  10
ATOM     10  C   UNL     1       3.619   0.751  -0.560  0.00  0.00    +0.000 C 
ATOM     11  O   UNL     1       3.734   1.658  -1.382  0.00  0.00    +0.000 OA
BRANCH  10  12
ATOM     12  C   UNL     1       4.765  -0.166  -0.340  0.00  0.00    +0.000 A 
ATOM     13  C   UNL     1       6.058   0.370  -0.360  0.00  0.00    +0.000 A 
ATOM     14  C   UNL     1       7.163  -0.461  -0.175  0.00  0.00    +0.000 A 
ATOM     15  C   UNL     1       6.981  -1.830   0.017  0.00  0.00    +0.000 A 
ATOM     16  C   UNL     1       5.695  -2.372   0.013  0.00  0.00    +0.000 A 
ATOM     17  C   UNL     1       4.586  -1.544  -0.173  0.00  0.00    +0.000 A 
ENDBRANCH  10  12
ENDBRANCH   3  10
TORSDOF 3
