MODEL 1
REMARK VINA RESULT:      -4.5      0.000      0.000
REMARK  Name = *****
REMARK  3 active torsions:
REMARK  status: ('A' for Active; 'I' for Inactive)
REMARK    1  A    between atoms: C_3  and  C_15
REMARK    2  A    between atoms: C_6  and  C_7
REMARK    3  A    between atoms: C_8  and  C_9
REMARK                            x       y       z     vdW  Elec       q    Type
REMARK                         _______ _______ _______ _____ _____    ______ ____
ROOT
ATOM      1  C   UNL     1     104.316 124.344  80.505  0.00  0.00    +0.000 A 
ATOM      2  C   UNL     1     105.369 123.472  80.215  0.00  0.00    +0.000 A 
ATOM      3  C   UNL     1     106.007 122.759  81.241  0.00  0.00    +0.000 A 
ATOM      4  C   UNL     1     105.570 122.936  82.563  0.00  0.00    +0.000 A 
ATOM      5  C   UNL     1     104.516 123.809  82.852  0.00  0.00    +0.000 A 
ATOM      6  C   UNL     1     103.889 124.514  81.824  0.00  0.00    +0.000 A 
ENDROOT
BRANCH   3   7
ATOM      7  C   UNL     1     107.149 121.816  80.946  0.00  0.00    +0.000 C 
ATOM      8  F   UNL     1     108.139 121.849  81.881  0.00  0.00    +0.000 F 
ATOM      9  F   UNL     1     106.746 120.517  80.877  0.00  0.00    +0.000 F 
ATOM     10  F   UNL     1     107.752 122.084  79.754  0.00  0.00    +0.000 F 
ENDBRANCH   3   7
BRANCH   6  11
ATOM     11  C   UNL     1     102.813 125.407  82.120  0.00  0.00    +0.000 C 
ATOM     12  C   UNL     1     101.908 126.156  82.373  0.00  0.00    +0.000 C 
BRANCH  12  13
ATOM     13  C   UNL     1     100.832 127.046  82.677  0.00  0.00    +0.000 A 
ATOM     14  C   UNL     1      99.527 126.710  82.331  0.00  0.00    +0.000 A 
ATOM     15  C   UNL     1      98.520 127.604  82.647  0.00  0.00    +0.000 A 
ATOM     16  N   UNL     1      98.730 128.783  83.272  0.00  0.00    +0.000 NA
ATOM     17  C   UNL     1     100.007 129.080  83.595  0.00  0.00    +0.000 A 
ATOM     18  C   UNL     1     101.083 128.254  83.322  0.00  0.00    +0.000 A 
ENDBRANCH  12  13
ENDBRANCH   6  11
TORSDOF 3
ENDMDL
