MODEL 1
REMARK VINA RESULT:      -4.1      0.000      0.000
REMARK  Name = *****
REMARK  2 active torsions:
REMARK  status: ('A' for Active; 'I' for Inactive)
REMARK    1  A    between atoms: C_6  and  C_7
REMARK    2  A    between atoms: C_7  and  C_8
REMARK                            x       y       z     vdW  Elec       q    Type
REMARK                         _______ _______ _______ _____ _____    ______ ____
ROOT
ATOM      1  C   UNL     1      87.798  70.941  86.697  0.00  0.00    +0.000 A 
ATOM      2  C   UNL     1      86.946  71.362  85.657  0.00  0.00    +0.000 A 
ATOM      3  C   UNL     1      85.663  71.843  85.933  0.00  0.00    +0.000 A 
ATOM      4  C   UNL     1      85.222  71.914  87.251  0.00  0.00    +0.000 A 
ATOM      5  C   UNL     1      86.051  71.516  88.296  0.00  0.00    +0.000 A 
ATOM      6  C   UNL     1      87.335  71.036  88.020  0.00  0.00    +0.000 A 
ATOM      7 CL   UNL     1      83.644  72.507  87.594  0.00  0.00    +0.000 Cl
ATOM      8 CL   UNL     1      87.429  71.291  83.995  0.00  0.00    +0.000 Cl
ENDROOT
BRANCH   1   9
ATOM      9  C   UNL     1      89.166  70.460  86.439  0.00  0.00    +0.000 C 
BRANCH   9  15
ATOM     10  C   UNL     1      90.634  66.025  85.443  0.00  0.00    +0.000 C 
ATOM     11  C   UNL     1      89.777  66.359  84.235  0.00  0.00    +0.000 C 
ATOM     12  S   UNL     1      89.689  68.155  84.308  0.00  0.00    +0.000 S 
ATOM     13  C   UNL     1      89.926  68.093  86.035  0.00  0.00    +0.000 C 
ATOM     14  N   UNL     1      90.360  66.983  86.535  0.00  0.00    +0.000 NA
ATOM     15  C   UNL     1      89.612  69.271  86.874  0.00  0.00    +0.000 C 
ENDBRANCH   9  15
ENDBRANCH   1   9
TORSDOF 2
ENDMDL
