MODEL 1
REMARK VINA RESULT:      -4.0      0.000      0.000
REMARK  Name = *****
REMARK  5 active torsions:
REMARK  status: ('A' for Active; 'I' for Inactive)
REMARK    1  A    between atoms: C_1  and  C_2
REMARK    2  A    between atoms: C_2  and  C_3
REMARK    3  A    between atoms: C_4  and  C_5
REMARK    4  A    between atoms: C_5  and  C_6
REMARK    5  A    between atoms: C_6  and  C_7
REMARK                            x       y       z     vdW  Elec       q    Type
REMARK                         _______ _______ _______ _____ _____    ______ ____
ROOT
ATOM      1  C   UNL     1      88.228  70.359  88.269  0.00  0.00    +0.000 C 
ENDROOT
BRANCH   1   2
ATOM      2  C   UNL     1      86.969  71.029  87.776  0.00  0.00    +0.000 A 
ATOM      3  C   UNL     1      86.753  71.215  86.404  0.00  0.00    +0.000 A 
ATOM      4  C   UNL     1      85.596  71.852  85.952  0.00  0.00    +0.000 A 
ATOM      5  C   UNL     1      84.649  72.312  86.865  0.00  0.00    +0.000 A 
ATOM      6  C   UNL     1      84.857  72.137  88.231  0.00  0.00    +0.000 A 
ATOM      7  C   UNL     1      86.013  71.500  88.686  0.00  0.00    +0.000 A 
ENDBRANCH   1   2
BRANCH   1   8
ATOM      8  C   UNL     1      89.326  70.359  87.199  0.00  0.00    +0.000 C 
BRANCH   8  10
ATOM      9  C   UNL     1      88.744  67.939  86.852  0.00  0.00    +0.000 C 
ATOM     10  C   UNL     1      89.588  68.971  86.682  0.00  0.00    +0.000 C 
BRANCH   9  12
ATOM     11  C   UNL     1      88.650  65.501  87.403  0.00  0.00    +0.000 C 
ATOM     12  C   UNL     1      88.997  66.545  86.350  0.00  0.00    +0.000 C 
ATOM     13 CL   UNL     1      90.723  66.404  85.911  0.00  0.00    +0.000 Cl
ENDBRANCH   9  12
ENDBRANCH   8  10
ENDBRANCH   1   8
TORSDOF 4
ENDMDL
