MODEL 1
REMARK VINA RESULT:      -4.7      0.000      0.000
REMARK  Name = *****
REMARK  2 active torsions:
REMARK  status: ('A' for Active; 'I' for Inactive)
REMARK    1  A    between atoms: C_2  and  C_3
REMARK    2  A    between atoms: C_2  and  P_9
REMARK                            x       y       z     vdW  Elec       q    Type
REMARK                         _______ _______ _______ _____ _____    ______ ____
ROOT
ATOM      1  P   UNL     1     102.844 126.163  83.109  0.00  0.00    +0.000 P 
ATOM      2  O   UNL     1     102.499 127.672  83.660  0.00  0.00    +0.000 OA
ATOM      3  C   UNL     1     101.183 127.958  83.416  0.00  0.00    +0.000 A 
ATOM      4  C   UNL     1     100.540 129.133  83.742  0.00  0.00    +0.000 A 
ATOM      5  C   UNL     1      99.188 129.245  83.404  0.00  0.00    +0.000 A 
ATOM      6  C   UNL     1      98.518 128.192  82.753  0.00  0.00    +0.000 A 
ATOM      7  C   UNL     1      99.191 127.009  82.430  0.00  0.00    +0.000 A 
ATOM      8  C   UNL     1     100.522 126.918  82.774  0.00  0.00    +0.000 A 
ATOM      9  O   UNL     1     101.339 125.846  82.535  0.00  0.00    +0.000 OA
ENDROOT
BRANCH   1  11
ATOM     10  C   UNL     1     103.685 127.834  81.072  0.00  0.00    +0.000 C 
ATOM     11  C   UNL     1     103.697 126.584  81.557  0.00  0.00    +0.000 C 
BRANCH  11  12
ATOM     12  C   UNL     1     104.462 125.543  80.854  0.00  0.00    +0.000 A 
ATOM     13  C   UNL     1     105.380 125.886  79.853  0.00  0.00    +0.000 A 
ATOM     14  C   UNL     1     106.091 124.892  79.177  0.00  0.00    +0.000 A 
ATOM     15  C   UNL     1     105.886 123.549  79.494  0.00  0.00    +0.000 A 
ATOM     16  C   UNL     1     104.970 123.198  80.484  0.00  0.00    +0.000 A 
ATOM     17  C   UNL     1     104.257 124.190  81.161  0.00  0.00    +0.000 A 
ENDBRANCH  11  12
ENDBRANCH   1  11
TORSDOF 2
ENDMDL
