REMARK  Name = *****
REMARK  5 active torsions:
REMARK  status: ('A' for Active; 'I' for Inactive)
REMARK    1  A    between atoms: C_4  and  O_7
REMARK    2  A    between atoms: O_7  and  C_8
REMARK    3  A    between atoms: C_8  and  C_9
REMARK    4  A    between atoms: C_9  and  S_10
REMARK    5  A    between atoms: S_10  and  C_11
REMARK                            x       y       z     vdW  Elec       q    Type
REMARK                         _______ _______ _______ _____ _____    ______ ____
ROOT
ATOM      1  C   UNL     1      -3.704  -0.835  -0.163  0.00  0.00    +0.000 C 
ENDROOT
BRANCH   1   2
ATOM      2  O   UNL     1      -2.848   0.312  -0.153  0.00  0.00    +0.000 OA
BRANCH   2   6
ATOM      3  C   UNL     1       1.272  -0.091   0.307  0.00  0.00    +0.000 A 
ATOM      4  C   UNL     1       0.495  -1.248   0.273  0.00  0.00    +0.000 A 
ATOM      5  C   UNL     1      -0.892  -1.161   0.121  0.00  0.00    +0.000 A 
ATOM      6  C   UNL     1      -1.507   0.086   0.001  0.00  0.00    +0.000 A 
ATOM      7  C   UNL     1      -0.721   1.241   0.034  0.00  0.00    +0.000 A 
ATOM      8  C   UNL     1       0.664   1.156   0.187  0.00  0.00    +0.000 A 
ENDBRANCH   2   6
ENDBRANCH   1   2
BRANCH   1   9
ATOM      9  C   UNL     1      -5.139  -0.342  -0.327  0.00  0.00    +0.000 C 
BRANCH   9  10
ATOM     10  S   UNL     1      -6.300  -1.750  -0.320  0.00  0.00    +0.000 S 
BRANCH  10  11
ATOM     11  C   UNL     1      -7.810  -0.921  -0.787  0.00  0.00    +0.000 A 
ATOM     12  C   UNL     1      -8.565  -1.442  -1.843  0.00  0.00    +0.000 A 
ATOM     13  C   UNL     1      -9.759  -0.829  -2.230  0.00  0.00    +0.000 A 
ATOM     14  C   UNL     1     -10.210   0.305  -1.558  0.00  0.00    +0.000 A 
ATOM     15  C   UNL     1      -9.471   0.822  -0.495  0.00  0.00    +0.000 A 
ATOM     16  C   UNL     1      -8.278   0.208  -0.107  0.00  0.00    +0.000 A 
ENDBRANCH  10  11
ENDBRANCH   9  10
ENDBRANCH   1   9
TORSDOF 5
