REMARK  Name = *****
REMARK  5 active torsions:
REMARK  status: ('A' for Active; 'I' for Inactive)
REMARK    1  A    between atoms: C_1  and  O_2
REMARK    2  A    between atoms: O_2  and  C_3
REMARK    3  A    between atoms: C_6  and  C_9
REMARK    4  A    between atoms: C_9  and  S_10
REMARK    5  A    between atoms: S_10  and  C_11
REMARK                            x       y       z     vdW  Elec       q    Type
REMARK                         _______ _______ _______ _____ _____    ______ ____
ROOT
ATOM      1  C   UNL     1       3.058   1.188  -0.004  0.00  0.00    +0.000 A 
ATOM      2  C   UNL     1       2.560   2.267  -0.734  0.00  0.00    +0.000 A 
ATOM      3  C   UNL     1       3.226   3.498  -0.713  0.00  0.00    +0.000 A 
ATOM      4  C   UNL     1       4.401   3.667   0.033  0.00  0.00    +0.000 A 
ATOM      5  C   UNL     1       4.890   2.581   0.770  0.00  0.00    +0.000 A 
ATOM      6  C   UNL     1       4.224   1.353   0.746  0.00  0.00    +0.000 A 
ENDROOT
BRANCH   1   8
ATOM      7  C   UNL     1       1.290  -0.266  -0.644  0.00  0.00    +0.000 C 
ATOM      8  O   UNL     1       2.508  -0.063   0.061  0.00  0.00    +0.000 OA
ENDBRANCH   1   8
BRANCH   4   9
ATOM      9  C   UNL     1       5.111   4.997   0.061  0.00  0.00    +0.000 C 
BRANCH   9  10
ATOM     10  S   UNL     1       4.405   6.100   1.325  0.00  0.00    +0.000 S 
BRANCH  10  11
ATOM     11  C   UNL     1       5.419   7.596   1.026  0.00  0.00    +0.000 C 
ATOM     12  C   UNL     1       6.827   7.431   1.609  0.00  0.00    +0.000 C 
ATOM     13  C   UNL     1       7.649   8.711   1.449  0.00  0.00    +0.000 C 
ATOM     14  C   UNL     1       6.937   9.918   2.050  0.00  0.00    +0.000 C 
ATOM     15  C   UNL     1       5.531  10.081   1.480  0.00  0.00    +0.000 C 
ATOM     16  C   UNL     1       4.706   8.805   1.646  0.00  0.00    +0.000 C 
ENDBRANCH  10  11
ENDBRANCH   9  10
ENDBRANCH   4   9
TORSDOF 4
