MODEL 1
REMARK VINA RESULT:      -3.9      0.000      0.000
REMARK  Name = *****
REMARK  4 active torsions:
REMARK  status: ('A' for Active; 'I' for Inactive)
REMARK    1  A    between atoms: C_1  and  C_2
REMARK    2  A    between atoms: C_7  and  C_8
REMARK    3  A    between atoms: C_8  and  C_9
REMARK    4  A    between atoms: C_9  and  C_15
REMARK                            x       y       z     vdW  Elec       q    Type
REMARK                         _______ _______ _______ _____ _____    ______ ____
ROOT
ATOM      1  C   UNL     1      87.694  70.593  87.831  0.00  0.00    +0.000 C 
ENDROOT
BRANCH   1   8
ATOM      2  C   UNL     1      85.433  71.856  89.430  0.00  0.00    +0.000 C 
ATOM      3  C   UNL     1      85.446  71.847  87.926  0.00  0.00    +0.000 A 
ATOM      4  C   UNL     1      84.385  72.471  87.247  0.00  0.00    +0.000 A 
ATOM      5  C   UNL     1      84.346  72.509  85.854  0.00  0.00    +0.000 A 
ATOM      6  C   UNL     1      85.370  71.926  85.117  0.00  0.00    +0.000 A 
ATOM      7  C   UNL     1      86.432  71.308  85.775  0.00  0.00    +0.000 A 
ATOM      8  C   UNL     1      86.490  71.260  87.181  0.00  0.00    +0.000 A 
ENDBRANCH   1   8
BRANCH   1   9
ATOM      9  C   UNL     1      87.648  69.073  87.809  0.00  0.00    +0.000 C 
ATOM     10  C   UNL     1      88.431  68.286  87.035  0.00  0.00    +0.000 C 
ATOM     11  S   UNL     1      88.341  66.531  87.057  0.00  0.00    +0.000 S 
ATOM     12  C   UNL     1      89.846  66.238  86.085  0.00  0.00    +0.000 C 
ATOM     13  C   UNL     1      89.949  67.354  85.064  0.00  0.00    +0.000 C 
ATOM     14  S   UNL     1      89.640  68.917  85.935  0.00  0.00    +0.000 S 
BRANCH   9  15
ATOM     15  C   UNL     1      86.733  68.481  88.743  0.00  0.00    +0.000 C 
ATOM     16  N   UNL     1      85.970  68.044  89.500  0.00  0.00    +0.000 NA
ENDBRANCH   9  15
ENDBRANCH   1   9
TORSDOF 3
ENDMDL
