MODEL 1
REMARK VINA RESULT:      -4.4      0.000      0.000
REMARK  Name = *****
REMARK  4 active torsions:
REMARK  status: ('A' for Active; 'I' for Inactive)
REMARK    1  A    between atoms: C_4  and  O_7
REMARK    2  A    between atoms: O_7  and  C_8
REMARK    3  A    between atoms: C_8  and  P_10
REMARK    4  A    between atoms: P_10  and  C_11
REMARK                            x       y       z     vdW  Elec       q    Type
REMARK                         _______ _______ _______ _____ _____    ______ ____
ROOT
ATOM      1  C   UNL     1     103.209 126.458  80.967  0.00  0.00    +0.000 C 
ATOM      2  O   UNL     1     103.401 127.593  80.557  0.00  0.00    +0.000 OA
ENDROOT
BRANCH   1   3
ATOM      3  P   UNL     1     102.953 126.304  82.745  0.00  0.00    +0.000 P 
ATOM      4  H   UNL     1     103.960 126.913  83.465  0.00  0.00    +0.000 HD
BRANCH   3   5
ATOM      5  C   UNL     1     101.379 127.196  82.892  0.00  0.00    +0.000 A 
ATOM      6  C   UNL     1     100.193 126.626  82.408  0.00  0.00    +0.000 A 
ATOM      7  C   UNL     1      98.980 127.311  82.516  0.00  0.00    +0.000 A 
ATOM      8  C   UNL     1      98.939 128.569  83.111  0.00  0.00    +0.000 A 
ATOM      9  C   UNL     1     100.109 129.143  83.602  0.00  0.00    +0.000 A 
ATOM     10  C   UNL     1     101.323 128.460  83.495  0.00  0.00    +0.000 A 
ENDBRANCH   3   5
ENDBRANCH   1   3
BRANCH   1  11
ATOM     11  O   UNL     1     103.178 125.285  80.230  0.00  0.00    +0.000 OA
BRANCH  11  15
ATOM     12  C   UNL     1     106.784 123.209  79.988  0.00  0.00    +0.000 A 
ATOM     13  C   UNL     1     105.735 122.675  80.739  0.00  0.00    +0.000 A 
ATOM     14  C   UNL     1     104.527 123.363  80.839  0.00  0.00    +0.000 A 
ATOM     15  C   UNL     1     104.391 124.593  80.198  0.00  0.00    +0.000 A 
ATOM     16  C   UNL     1     105.424 125.127  79.429  0.00  0.00    +0.000 A 
ATOM     17  C   UNL     1     106.628 124.432  79.331  0.00  0.00    +0.000 A 
ENDBRANCH  11  15
ENDBRANCH   1  11
TORSDOF 4
ENDMDL
