MODEL 1
REMARK VINA RESULT:      -4.5      0.000      0.000
REMARK  Name = *****
REMARK  6 active torsions:
REMARK  status: ('A' for Active; 'I' for Inactive)
REMARK    1  A    between atoms: C_1  and  C_2
REMARK    2  A    between atoms: C_5  and  S_8
REMARK    3  A    between atoms: S_8  and  C_9
REMARK    4  A    between atoms: C_9  and  C_10
REMARK    5  A    between atoms: C_12  and  O_16
REMARK    6  A    between atoms: O_16  and  C_17
REMARK                            x       y       z     vdW  Elec       q    Type
REMARK                         _______ _______ _______ _____ _____    ______ ____
ROOT
ATOM      1  C   UNL     1     102.848 127.546  82.806  0.00  0.00    +0.000 C 
ENDROOT
BRANCH   1   2
ATOM      2  C   UNL     1     101.374 127.807  83.003  0.00  0.00    +0.000 A 
ATOM      3  C   UNL     1     100.413 126.866  82.589  0.00  0.00    +0.000 A 
ATOM      4  C   UNL     1      99.050 127.115  82.762  0.00  0.00    +0.000 A 
ATOM      5  C   UNL     1      98.644 128.300  83.379  0.00  0.00    +0.000 A 
ATOM      6  C   UNL     1      99.584 129.239  83.801  0.00  0.00    +0.000 A 
ATOM      7  C   UNL     1     100.944 128.995  83.611  0.00  0.00    +0.000 A 
BRANCH   4   8
ATOM      8  O   UNL     1      98.028 126.287  82.386  0.00  0.00    +0.000 OA
ATOM      9  C   UNL     1      97.070 125.960  83.384  0.00  0.00    +0.000 C 
ENDBRANCH   4   8
ENDBRANCH   1   2
BRANCH   1  10
ATOM     10  S   UNL     1     103.290 127.052  81.106  0.00  0.00    +0.000 S 
BRANCH  10  15
ATOM     11  C   UNL     1     105.160 121.317  81.985  0.00  0.00    +0.000 C 
ATOM     12  C   UNL     1     104.720 122.738  81.781  0.00  0.00    +0.000 A 
ATOM     13  C   UNL     1     104.229 123.488  82.855  0.00  0.00    +0.000 A 
ATOM     14  C   UNL     1     103.791 124.801  82.660  0.00  0.00    +0.000 A 
ATOM     15  C   UNL     1     103.838 125.378  81.389  0.00  0.00    +0.000 A 
ATOM     16  C   UNL     1     104.301 124.621  80.311  0.00  0.00    +0.000 A 
ATOM     17  C   UNL     1     104.738 123.309  80.504  0.00  0.00    +0.000 A 
ENDBRANCH  10  15
ENDBRANCH   1  10
TORSDOF 4
ENDMDL
