MODEL 1
REMARK VINA RESULT:      -4.6      0.000      0.000
REMARK  Name = *****
REMARK  5 active torsions:
REMARK  status: ('A' for Active; 'I' for Inactive)
REMARK    1  A    between atoms: C_1  and  C_2
REMARK    2  A    between atoms: C_5  and  S_8
REMARK    3  A    between atoms: S_8  and  C_10
REMARK    4  A    between atoms: C_10  and  C_11
REMARK    5  A    between atoms: C_10  and  C_13
REMARK                            x       y       z     vdW  Elec       q    Type
REMARK                         _______ _______ _______ _____ _____    ______ ____
ROOT
ATOM      1  S   UNL     1      88.200  64.276  86.789  0.00  0.00    +0.000 S 
ATOM      2  O   UNL     1      87.563  64.014  85.455  0.00  0.00    +0.000 OA
ENDROOT
BRANCH   1   7
ATOM      3  C   UNL     1      89.294  70.288  86.998  0.00  0.00    +0.000 C 
ATOM      4  C   UNL     1      89.034  68.811  86.973  0.00  0.00    +0.000 A 
ATOM      5  C   UNL     1      87.836  68.295  87.477  0.00  0.00    +0.000 A 
ATOM      6  C   UNL     1      87.577  66.924  87.422  0.00  0.00    +0.000 A 
ATOM      7  C   UNL     1      88.516  66.049  86.869  0.00  0.00    +0.000 A 
ATOM      8  C   UNL     1      89.698  66.565  86.330  0.00  0.00    +0.000 A 
ATOM      9  C   UNL     1      89.956  67.938  86.383  0.00  0.00    +0.000 A 
ENDBRANCH   1   7
BRANCH   1  10
ATOM     10  C   UNL     1      86.894  64.111  88.099  0.00  0.00    +0.000 C 
BRANCH  10  11
ATOM     11  C   UNL     1      87.443  64.188  89.518  0.00  0.00    +0.000 A 
ATOM     12  C   UNL     1      86.662  64.562  90.623  0.00  0.00    +0.000 A 
ATOM     13  C   UNL     1      87.215  64.607  91.907  0.00  0.00    +0.000 A 
ATOM     14  C   UNL     1      88.552  64.277  92.107  0.00  0.00    +0.000 A 
ATOM     15  C   UNL     1      89.340  63.897  91.025  0.00  0.00    +0.000 A 
ATOM     16  C   UNL     1      88.790  63.852  89.743  0.00  0.00    +0.000 A 
ENDBRANCH  10  11
BRANCH  10  17
ATOM     17  C   UNL     1      86.002  62.912  87.750  0.00  0.00    +0.000 C 
ATOM     18 CL   UNL     1      86.296  61.518  88.829  0.00  0.00    +0.000 Cl
ENDBRANCH  10  17
ENDBRANCH   1  10
TORSDOF 4
ENDMDL
