MODEL 1
REMARK VINA RESULT:      -4.3      0.000      0.000
REMARK  Name = *****
REMARK  4 active torsions:
REMARK  status: ('A' for Active; 'I' for Inactive)
REMARK    1  A    between atoms: C_1  and  C_2
REMARK    2  A    between atoms: C_4  and  O_7
REMARK    3  A    between atoms: O_7  and  C_8
REMARK    4  A    between atoms: C_8  and  C_10
REMARK                            x       y       z     vdW  Elec       q    Type
REMARK                         _______ _______ _______ _____ _____    ______ ____
ROOT
ATOM      1  C   UNL     1      87.315  70.858  88.066  0.00  0.00    +0.000 C 
ATOM      2  O   UNL     1      87.730  71.269  89.139  0.00  0.00    +0.000 OA
ENDROOT
BRANCH   1   3
ATOM      3  C   UNL     1      86.169  71.475  87.341  0.00  0.00    +0.000 A 
ATOM      4  C   UNL     1      85.097  71.969  88.098  0.00  0.00    +0.000 A 
ATOM      5  C   UNL     1      83.999  72.557  87.465  0.00  0.00    +0.000 A 
ATOM      6  C   UNL     1      83.968  72.655  86.075  0.00  0.00    +0.000 A 
ATOM      7  C   UNL     1      85.031  72.168  85.315  0.00  0.00    +0.000 A 
ATOM      8  C   UNL     1      86.130  71.579  85.945  0.00  0.00    +0.000 A 
ENDBRANCH   1   3
BRANCH   1   9
ATOM      9  O   UNL     1      87.801  69.803  87.371  0.00  0.00    +0.000 OA
BRANCH   9  13
ATOM     10  C   UNL     1      90.530  71.029  83.948  0.00  0.00    +0.000 C 
ATOM     11  C   UNL     1      90.043  70.283  85.137  0.00  0.00    +0.000 C 
ATOM     12  C   UNL     1      89.720  70.785  86.334  0.00  0.00    +0.000 C 
ATOM     13  C   UNL     1      89.227  69.733  87.278  0.00  0.00    +0.000 C 
ATOM     14  C   UNL     1      89.623  68.437  86.560  0.00  0.00    +0.000 C 
ATOM     15  C   UNL     1      89.807  68.806  85.086  0.00  0.00    +0.000 C 
ENDBRANCH   9  13
ENDBRANCH   1   9
TORSDOF 3
ENDMDL
