REMARK  Name = *****
REMARK  2 active torsions:
REMARK  status: ('A' for Active; 'I' for Inactive)
REMARK    1  A    between atoms: C_5  and  C_7
REMARK    2  A    between atoms: C_8  and  C_9
REMARK                            x       y       z     vdW  Elec       q    Type
REMARK                         _______ _______ _______ _____ _____    ______ ____
ROOT
ATOM      1  C   UNL     1      -1.870  -1.818  -0.928  0.00  0.00    +0.000 C 
ATOM      2  C   UNL     1      -2.683  -2.809  -0.526  0.00  0.00    +0.000 C 
ENDROOT
BRANCH   1   7
ATOM      3  C   UNL     1      -0.358   1.363   0.608  0.00  0.00    +0.000 C 
ATOM      4  C   UNL     1       1.004   1.211  -0.073  0.00  0.00    +0.000 C 
ATOM      5  C   UNL     1       1.353  -0.217  -0.368  0.00  0.00    +0.000 C 
ATOM      6  C   UNL     1       0.460  -1.217  -0.318  0.00  0.00    +0.000 C 
ATOM      7  C   UNL     1      -1.000  -1.014   0.008  0.00  0.00    +0.000 C 
ATOM      8  C   UNL     1      -1.408   0.471  -0.052  0.00  0.00    +0.000 C 
ENDBRANCH   1   7
BRANCH   2   9
ATOM      9  C   UNL     1      -3.523  -3.602  -1.434  0.00  0.00    +0.000 A 
ATOM     10  C   UNL     1      -3.695  -4.968  -1.179  0.00  0.00    +0.000 A 
ATOM     11  C   UNL     1      -4.511  -5.749  -2.003  0.00  0.00    +0.000 A 
ATOM     12  C   UNL     1      -5.172  -5.168  -3.083  0.00  0.00    +0.000 A 
ATOM     13  C   UNL     1      -5.022  -3.806  -3.337  0.00  0.00    +0.000 A 
ATOM     14  C   UNL     1      -4.205  -3.026  -2.513  0.00  0.00    +0.000 A 
ENDBRANCH   2   9
TORSDOF 2
