REMARK  Name = *****
REMARK  2 active torsions:
REMARK  status: ('A' for Active; 'I' for Inactive)
REMARK    1  A    between atoms: C_1  and  C_2
REMARK    2  A    between atoms: C_4  and  N_8
REMARK                            x       y       z     vdW  Elec       q    Type
REMARK                         _______ _______ _______ _____ _____    ______ ____
ROOT
ATOM      1  N   UNL     1      -1.955   2.288  -0.121  0.00  0.00    +0.000 N 
ATOM      2  C   UNL     1      -1.721   3.478  -0.804  0.00  0.00    +0.000 C 
ATOM      3  C   UNL     1      -2.599   4.548  -0.448  0.00  0.00    +0.000 C 
ATOM      4  C   UNL     1      -3.479   4.090   0.526  0.00  0.00    +0.000 C 
ATOM      5  S   UNL     1      -3.216   2.432   0.932  0.00  0.00    +0.000 S 
ATOM      6  C   UNL     1      -4.575   4.903   1.144  0.00  0.00    +0.000 C 
ATOM      7  C   UNL     1      -4.352   6.398   0.859  0.00  0.00    +0.000 C 
ATOM      8  C   UNL     1      -3.944   6.655  -0.602  0.00  0.00    +0.000 C 
ATOM      9  C   UNL     1      -2.624   5.951  -0.962  0.00  0.00    +0.000 C 
ENDROOT
BRANCH   1  13
ATOM     10  C   UNL     1      -1.363  -2.620   0.753  0.00  0.00    +0.000 C 
ATOM     11  C   UNL     1      -0.882  -1.331   0.148  0.00  0.00    +0.000 A 
ATOM     12  C   UNL     1      -1.620  -0.148   0.306  0.00  0.00    +0.000 A 
ATOM     13  C   UNL     1      -1.184   1.043  -0.292  0.00  0.00    +0.000 A 
ATOM     14  C   UNL     1      -0.012   1.051  -1.055  0.00  0.00    +0.000 A 
ATOM     15  C   UNL     1       0.715  -0.130  -1.224  0.00  0.00    +0.000 A 
ATOM     16  C   UNL     1       0.279  -1.314  -0.631  0.00  0.00    +0.000 A 
ENDBRANCH   1  13
TORSDOF 1
