REMARK  Name = *****
REMARK  5 active torsions:
REMARK  status: ('A' for Active; 'I' for Inactive)
REMARK    1  A    between atoms: C_1  and  C_2
REMARK    2  A    between atoms: C_1  and  O_9
REMARK    3  A    between atoms: C_5  and  C_8
REMARK    4  A    between atoms: O_9  and  C_10
REMARK    5  A    between atoms: C_10  and  C_12
REMARK                            x       y       z     vdW  Elec       q    Type
REMARK                         _______ _______ _______ _____ _____    ______ ____
ROOT
ATOM      1  O   UNL     1       2.559   0.461  -1.220  0.00  0.00    +0.000 OA
ENDROOT
BRANCH   1   2
ATOM      2  C   UNL     1       2.348   1.738  -1.620  0.00  0.00    +0.000 C 
ATOM      3  O   UNL     1       1.740   2.590  -0.990  0.00  0.00    +0.000 OA
BRANCH   2   4
ATOM      4  C   UNL     1       2.957   1.983  -2.955  0.00  0.00    +0.000 A 
ATOM      5  C   UNL     1       2.802   3.254  -3.528  0.00  0.00    +0.000 A 
ATOM      6  C   UNL     1       3.355   3.536  -4.778  0.00  0.00    +0.000 A 
ATOM      7  C   UNL     1       4.066   2.552  -5.463  0.00  0.00    +0.000 A 
ATOM      8  C   UNL     1       4.226   1.286  -4.900  0.00  0.00    +0.000 A 
ATOM      9  C   UNL     1       3.674   0.999  -3.649  0.00  0.00    +0.000 A 
ENDBRANCH   2   4
ENDBRANCH   1   2
BRANCH   1  10
ATOM     10  C   UNL     1       1.997   0.167   0.063  0.00  0.00    +0.000 C 
BRANCH  10  11
ATOM     11  C   UNL     1       2.266  -1.278   0.400  0.00  0.00    +0.000 A 
ATOM     12  C   UNL     1       2.966  -1.622   1.563  0.00  0.00    +0.000 A 
ATOM     13  C   UNL     1       3.181  -2.963   1.894  0.00  0.00    +0.000 A 
ATOM     14  C   UNL     1       2.702  -3.984   1.066  0.00  0.00    +0.000 A 
ATOM     15  C   UNL     1       2.004  -3.643  -0.098  0.00  0.00    +0.000 A 
ATOM     16  C   UNL     1       1.788  -2.303  -0.428  0.00  0.00    +0.000 A 
ATOM     17  C   UNL     1       2.909  -5.426   1.421  0.00  0.00    +0.000 C 
ENDBRANCH  10  11
ENDBRANCH   1  10
TORSDOF 4
