MODEL 1
REMARK VINA RESULT:      -4.5      0.000      0.000
REMARK  Name = *****
REMARK  4 active torsions:
REMARK  status: ('A' for Active; 'I' for Inactive)
REMARK    1  A    between atoms: C_1  and  C_2
REMARK    2  A    between atoms: C_5  and  C_8
REMARK    3  A    between atoms: C_9  and  C_10
REMARK    4  A    between atoms: C_13  and  C_15
REMARK                            x       y       z     vdW  Elec       q    Type
REMARK                         _______ _______ _______ _____ _____    ______ ____
ROOT
ATOM      1  C   UNL     1     102.178 126.128  82.035  0.00  0.00    +0.000 C 
ATOM      2  C   UNL     1     103.303 126.369  81.340  0.00  0.00    +0.000 C 
ENDROOT
BRANCH   1   7
ATOM      3  C   UNL     1      98.955 130.248  84.514  0.00  0.00    +0.000 C 
ATOM      4  C   UNL     1      99.781 129.194  83.838  0.00  0.00    +0.000 A 
ATOM      5  C   UNL     1      99.166 128.121  83.184  0.00  0.00    +0.000 A 
ATOM      6  C   UNL     1      99.935 127.120  82.584  0.00  0.00    +0.000 A 
ATOM      7  C   UNL     1     101.334 127.174  82.625  0.00  0.00    +0.000 A 
ATOM      8  C   UNL     1     101.946 128.231  83.309  0.00  0.00    +0.000 A 
ATOM      9  C   UNL     1     101.177 129.233  83.909  0.00  0.00    +0.000 A 
ENDBRANCH   1   7
BRANCH   2  10
ATOM     10  C   UNL     1     104.137 125.360  80.771  0.00  0.00    +0.000 A 
ATOM     11  C   UNL     1     105.091 125.595  79.804  0.00  0.00    +0.000 A 
ATOM     12  S   UNL     1     105.868 124.122  79.391  0.00  0.00    +0.000 S 
ATOM     13  C   UNL     1     104.876 123.296  80.530  0.00  0.00    +0.000 A 
ATOM     14  N   UNL     1     104.017 124.049  81.184  0.00  0.00    +0.000 NA
ATOM     15  C   UNL     1     105.024 121.828  80.718  0.00  0.00    +0.000 C 
ENDBRANCH   2  10
TORSDOF 2
ENDMDL
