MODEL 1
REMARK VINA RESULT:      -4.6      0.000      0.000
REMARK  Name = *****
REMARK  1 active torsions:
REMARK  status: ('A' for Active; 'I' for Inactive)
REMARK    1  A    between atoms: N_9  and  C_11
REMARK                            x       y       z     vdW  Elec       q    Type
REMARK                         _______ _______ _______ _____ _____    ______ ____
ROOT
ATOM      1  C   UNL     1     103.422 124.737  83.954  0.00  0.00    +0.000 C 
ATOM      2  C   UNL     1     104.079 124.008  82.807  0.00  0.00    +0.000 A 
ATOM      3  C   UNL     1     104.762 122.804  83.042  0.00  0.00    +0.000 A 
ATOM      4  C   UNL     1     105.347 122.106  81.986  0.00  0.00    +0.000 A 
ATOM      5  C   UNL     1     105.249 122.596  80.687  0.00  0.00    +0.000 A 
ATOM      6  C   UNL     1     104.560 123.785  80.440  0.00  0.00    +0.000 A 
ATOM      7  C   UNL     1     103.967 124.492  81.493  0.00  0.00    +0.000 A 
ATOM      8  S   UNL     1     103.085 126.006  81.125  0.00  0.00    +0.000 S 
ATOM      9  N   UNL     1     102.427 126.301  82.635  0.00  0.00    +0.000 N 
ATOM     10  O   UNL     1     103.319 126.145  83.708  0.00  0.00    +0.000 OA
ENDROOT
BRANCH   9  11
ATOM     11  C   UNL     1     101.273 127.119  82.812  0.00  0.00    +0.000 A 
ATOM     12  C   UNL     1      99.985 126.725  82.408  0.00  0.00    +0.000 A 
ATOM     13  C   UNL     1      98.871 127.546  82.617  0.00  0.00    +0.000 A 
ATOM     14  C   UNL     1      99.019 128.780  83.243  0.00  0.00    +0.000 A 
ATOM     15  C   UNL     1     100.278 129.192  83.662  0.00  0.00    +0.000 A 
ATOM     16  C   UNL     1     101.389 128.368  83.452  0.00  0.00    +0.000 A 
ENDBRANCH   9  11
TORSDOF 1
ENDMDL
