MODEL 1
REMARK VINA RESULT:      -4.6      0.000      0.000
REMARK  Name = *****
REMARK  4 active torsions:
REMARK  status: ('A' for Active; 'I' for Inactive)
REMARK    1  A    between atoms: C_1  and  C_2
REMARK    2  A    between atoms: C_5  and  O_8
REMARK    3  A    between atoms: O_8  and  C_9
REMARK    4  A    between atoms: C_9  and  C_10
REMARK                            x       y       z     vdW  Elec       q    Type
REMARK                         _______ _______ _______ _____ _____    ______ ____
ROOT
ATOM      1  O   UNL     1     101.576 125.747  82.293  0.00  0.00    +0.000 OA
ENDROOT
BRANCH   1   6
ATOM      2  C   UNL     1      99.197 130.578  84.090  0.00  0.00    +0.000 C 
ATOM      3  C   UNL     1      99.798 129.303  83.579  0.00  0.00    +0.000 A 
ATOM      4  C   UNL     1      98.991 128.319  82.997  0.00  0.00    +0.000 A 
ATOM      5  C   UNL     1      99.543 127.113  82.548  0.00  0.00    +0.000 A 
ATOM      6  C   UNL     1     100.910 126.875  82.685  0.00  0.00    +0.000 A 
ATOM      7  C   UNL     1     101.715 127.849  83.280  0.00  0.00    +0.000 A 
ATOM      8  C   UNL     1     101.166 129.052  83.729  0.00  0.00    +0.000 A 
ENDBRANCH   1   6
BRANCH   1   9
ATOM      9  C   UNL     1     102.923 125.595  82.748  0.00  0.00    +0.000 C 
BRANCH   9  10
ATOM     10  C   UNL     1     103.798 124.932  81.701  0.00  0.00    +0.000 A 
ATOM     11  C   UNL     1     104.238 123.604  81.847  0.00  0.00    +0.000 A 
ATOM     12  C   UNL     1     105.038 123.000  80.875  0.00  0.00    +0.000 A 
ATOM     13  C   UNL     1     105.414 123.710  79.739  0.00  0.00    +0.000 A 
ATOM     14  C   UNL     1     104.986 125.026  79.572  0.00  0.00    +0.000 A 
ATOM     15  C   UNL     1     104.184 125.631  80.545  0.00  0.00    +0.000 A 
ATOM     16 CL   UNL     1     103.687 127.265  80.266  0.00  0.00    +0.000 Cl
ENDBRANCH   9  10
ENDBRANCH   1   9
TORSDOF 3
ENDMDL
