MODEL 1
REMARK VINA RESULT:      -4.3      0.000      0.000
REMARK  Name = *****
REMARK  5 active torsions:
REMARK  status: ('A' for Active; 'I' for Inactive)
REMARK    1  A    between atoms: C_1  and  O_2
REMARK    2  A    between atoms: O_2  and  C_3
REMARK    3  A    between atoms: C_6  and  S_9
REMARK    4  A    between atoms: S_9  and  S_11
REMARK    5  A    between atoms: S_11  and  C_12
REMARK                            x       y       z     vdW  Elec       q    Type
REMARK                         _______ _______ _______ _____ _____    ______ ____
ROOT
ATOM      1  S   UNL     1      89.052  70.485  86.613  0.00  0.00    +0.000 S 
ATOM      2  O   UNL     1      90.143  70.761  85.619  0.00  0.00    +0.000 OA
ENDROOT
BRANCH   1   6
ATOM      3  C   UNL     1      88.888  65.880  86.974  0.00  0.00    +0.000 A 
ATOM      4  C   UNL     1      89.983  66.506  86.378  0.00  0.00    +0.000 A 
ATOM      5  C   UNL     1      90.027  67.902  86.277  0.00  0.00    +0.000 A 
ATOM      6  C   UNL     1      88.976  68.684  86.772  0.00  0.00    +0.000 A 
ATOM      7  C   UNL     1      87.878  68.055  87.363  0.00  0.00    +0.000 A 
ATOM      8  C   UNL     1      87.839  66.661  87.465  0.00  0.00    +0.000 A 
BRANCH   3  10
ATOM      9  C   UNL     1      88.538  64.060  88.465  0.00  0.00    +0.000 C 
ATOM     10  O   UNL     1      88.721  64.533  87.137  0.00  0.00    +0.000 OA
ENDBRANCH   3  10
ENDBRANCH   1   6
BRANCH   1  11
ATOM     11  S   UNL     1      87.433  70.805  85.431  0.00  0.00    +0.000 S 
BRANCH  11  12
ATOM     12  C   UNL     1      86.238  71.412  86.606  0.00  0.00    +0.000 A 
ATOM     13  C   UNL     1      86.472  71.338  87.983  0.00  0.00    +0.000 A 
ATOM     14  C   UNL     1      85.529  71.831  88.887  0.00  0.00    +0.000 A 
ATOM     15  C   UNL     1      84.350  72.409  88.421  0.00  0.00    +0.000 A 
ATOM     16  C   UNL     1      84.114  72.498  87.049  0.00  0.00    +0.000 A 
ATOM     17  C   UNL     1      85.057  72.004  86.144  0.00  0.00    +0.000 A 
ENDBRANCH  11  12
ENDBRANCH   1  11
TORSDOF 4
ENDMDL
