MODEL 1
REMARK VINA RESULT:      -5.2      0.000      0.000
REMARK  Name = *****
REMARK  6 active torsions:
REMARK  status: ('A' for Active; 'I' for Inactive)
REMARK    1  A    between atoms: C_1  and  C_2
REMARK    2  A    between atoms: C_3  and  C_22
REMARK    3  A    between atoms: C_5  and  O_8
REMARK    4  A    between atoms: O_8  and  C_9
REMARK    5  A    between atoms: C_9  and  C_11
REMARK    6  A    between atoms: C_13  and  C_17
REMARK                            x       y       z     vdW  Elec       q    Type
REMARK                         _______ _______ _______ _____ _____    ______ ____
ROOT
ATOM      1  C   UNL     1      86.984  65.938  88.113  0.00  0.00    +0.000 C 
ATOM      2  O   UNL     1      85.791  66.047  87.870  0.00  0.00    +0.000 OA
ENDROOT
BRANCH   1   3
ATOM      3  C   UNL     1      88.006  66.785  87.455  0.00  0.00    +0.000 A 
ATOM      4  C   UNL     1      88.025  68.178  87.567  0.00  0.00    +0.000 A 
ATOM      5  C   UNL     1      89.009  68.938  86.930  0.00  0.00    +0.000 A 
ATOM      6  C   UNL     1      89.996  68.284  86.175  0.00  0.00    +0.000 A 
ATOM      7  C   UNL     1      89.996  66.893  86.069  0.00  0.00    +0.000 A 
ATOM      8  C   UNL     1      89.006  66.145  86.708  0.00  0.00    +0.000 A 
ATOM      9  F   UNL     1      87.113  68.819  88.312  0.00  0.00    +0.000 F 
BRANCH   5  10
ATOM     10  C   UNL     1      88.985  70.431  87.078  0.00  0.00    +0.000 C 
ATOM     11  F   UNL     1      89.068  70.836  88.374  0.00  0.00    +0.000 F 
ATOM     12  F   UNL     1      90.006  71.043  86.418  0.00  0.00    +0.000 F 
ATOM     13  F   UNL     1      87.843  70.996  86.591  0.00  0.00    +0.000 F 
ENDBRANCH   5  10
ENDBRANCH   1   3
BRANCH   1  14
ATOM     14  O   UNL     1      87.580  65.118  89.051  0.00  0.00    +0.000 OA
BRANCH  14  19
ATOM     15  C   UNL     1      85.081  60.203  90.497  0.00  0.00    +0.000 C 
ATOM     16  C   UNL     1      85.721  61.512  90.119  0.00  0.00    +0.000 A 
ATOM     17  C   UNL     1      85.700  62.620  90.994  0.00  0.00    +0.000 A 
ATOM     18  C   UNL     1      86.312  63.819  90.596  0.00  0.00    +0.000 A 
ATOM     19  C   UNL     1      86.933  63.910  89.352  0.00  0.00    +0.000 A 
ATOM     20  C   UNL     1      86.990  62.813  88.499  0.00  0.00    +0.000 A 
ATOM     21  C   UNL     1      86.377  61.621  88.882  0.00  0.00    +0.000 A 
ATOM     22  C   UNL     1      85.023  62.549  92.335  0.00  0.00    +0.000 C 
ENDBRANCH  14  19
ENDBRANCH   1  14
TORSDOF 4
ENDMDL
