REMARK  Name = *****
REMARK  4 active torsions:
REMARK  status: ('A' for Active; 'I' for Inactive)
REMARK    1  A    between atoms: C_1  and  C_2
REMARK    2  A    between atoms: C_3  and  C_16
REMARK    3  A    between atoms: C_5  and  C_7
REMARK    4  A    between atoms: C_8  and  C_9
REMARK                            x       y       z     vdW  Elec       q    Type
REMARK                         _______ _______ _______ _____ _____    ______ ____
ROOT
ATOM      1  C   UNL     1       2.177   0.075  -0.138  0.00  0.00    +0.000 C 
ATOM      2  C   UNL     1       0.706   0.158  -0.075  0.00  0.00    +0.000 A 
ATOM      3  C   UNL     1      -0.227   1.169   0.007  0.00  0.00    +0.000 A 
ATOM      4  N   UNL     1      -1.491   0.600   0.037  0.00  0.00    +0.000 NA
ATOM      5  C   UNL     1      -1.307  -0.712  -0.024  0.00  0.00    +0.000 A 
ATOM      6  O   UNL     1       0.036  -1.031  -0.089  0.00  0.00    +0.000 OA
ENDROOT
BRANCH   3   7
ATOM      7  C   UNL     1       0.028   2.611   0.061  0.00  0.00    +0.000 C 
ATOM      8  O   UNL     1       1.179   3.045   0.059  0.00  0.00    +0.000 OA
ATOM      9 CL   UNL     1      -1.383   3.655   0.134  0.00  0.00    +0.000 Cl
ENDBRANCH   3   7
BRANCH   5  10
ATOM     10  C   UNL     1      -2.308  -1.720  -0.017  0.00  0.00    +0.000 C 
ATOM     11  C   UNL     1      -3.612  -1.406   0.004  0.00  0.00    +0.000 C 
BRANCH  11  12
ATOM     12  C   UNL     1      -4.649  -2.444   0.010  0.00  0.00    +0.000 A 
ATOM     13  C   UNL     1      -5.092  -2.929   1.249  0.00  0.00    +0.000 A 
ATOM     14  C   UNL     1      -6.072  -3.923   1.313  0.00  0.00    +0.000 A 
ATOM     15  C   UNL     1      -6.617  -4.442   0.140  0.00  0.00    +0.000 A 
ATOM     16  C   UNL     1      -6.184  -3.969  -1.099  0.00  0.00    +0.000 A 
ATOM     17  C   UNL     1      -5.204  -2.974  -1.166  0.00  0.00    +0.000 A 
ATOM     18 CL   UNL     1      -4.711  -2.430  -2.733  0.00  0.00    +0.000 Cl
ENDBRANCH  11  12
ENDBRANCH   5  10
TORSDOF 3
