MODEL 1
REMARK VINA RESULT:      -4.7      0.000      0.000
REMARK  Name = *****
REMARK  3 active torsions:
REMARK  status: ('A' for Active; 'I' for Inactive)
REMARK    1  A    between atoms: C_2  and  C_3
REMARK    2  A    between atoms: C_8  and  C_9
REMARK    3  A    between atoms: C_10  and  C_11
REMARK                            x       y       z     vdW  Elec       q    Type
REMARK                         _______ _______ _______ _____ _____    ______ ____
ROOT
ATOM      1  C   UNL     1     101.319 128.235  83.373  0.00  0.00    +0.000 A 
ATOM      2  C   UNL     1     100.247 128.992  83.874  0.00  0.00    +0.000 A 
ATOM      3  C   UNL     1      98.924 128.622  83.622  0.00  0.00    +0.000 A 
ATOM      4  C   UNL     1      98.651 127.492  82.856  0.00  0.00    +0.000 A 
ATOM      5  C   UNL     1      99.701 126.735  82.338  0.00  0.00    +0.000 A 
ATOM      6  C   UNL     1     101.033 127.101  82.587  0.00  0.00    +0.000 A 
ENDROOT
BRANCH   1   8
ATOM      7  C   UNL     1     103.034 129.866  84.130  0.00  0.00    +0.000 C 
ATOM      8  C   UNL     1     102.705 128.669  83.627  0.00  0.00    +0.000 C 
ENDBRANCH   1   8
BRANCH   6   9
ATOM      9  C   UNL     1     102.070 126.279  82.031  0.00  0.00    +0.000 C 
ATOM     10  C   UNL     1     102.939 125.593  81.565  0.00  0.00    +0.000 C 
BRANCH  10  11
ATOM     11  C   UNL     1     103.970 124.773  81.007  0.00  0.00    +0.000 A 
ATOM     12  C   UNL     1     104.241 123.517  81.554  0.00  0.00    +0.000 A 
ATOM     13  C   UNL     1     105.247 122.719  81.007  0.00  0.00    +0.000 A 
ATOM     14  C   UNL     1     105.982 123.174  79.914  0.00  0.00    +0.000 A 
ATOM     15  C   UNL     1     105.713 124.429  79.365  0.00  0.00    +0.000 A 
ATOM     16  C   UNL     1     104.708 125.229  79.911  0.00  0.00    +0.000 A 
ENDBRANCH  10  11
ENDBRANCH   6   9
TORSDOF 3
ENDMDL
