REMARK  Name = *****
REMARK  5 active torsions:
REMARK  status: ('A' for Active; 'I' for Inactive)
REMARK    1  A    between atoms: C_1  and  N_2
REMARK    2  A    between atoms: N_2  and  C_3
REMARK    3  A    between atoms: N_2  and  C_4
REMARK    4  A    between atoms: C_8  and  C_10
REMARK    5  A    between atoms: C_11  and  C_12
REMARK                            x       y       z     vdW  Elec       q    Type
REMARK                         _______ _______ _______ _____ _____    ______ ____
ROOT
ATOM      1  C   UNL     1       3.049  -0.258  -1.194  0.00  0.00    +0.000 A 
ATOM      2  C   UNL     1       2.684   0.543  -2.293  0.00  0.00    +0.000 A 
ATOM      3  C   UNL     1       3.392   0.526  -3.502  0.00  0.00    +0.000 A 
ATOM      4  C   UNL     1       4.492  -0.308  -3.655  0.00  0.00    +0.000 A 
ATOM      5  C   UNL     1       4.875  -1.128  -2.599  0.00  0.00    +0.000 A 
ATOM      6  C   UNL     1       4.159  -1.102  -1.392  0.00  0.00    +0.000 A 
ENDROOT
BRANCH   1   8
ATOM      7  C   UNL     1       1.324   0.787   0.232  0.00  0.00    +0.000 C 
ATOM      8  N   UNL     1       2.328  -0.250   0.007  0.00  0.00    +0.000 N 
ATOM      9  C   UNL     1       2.960  -0.789   1.210  0.00  0.00    +0.000 C 
ENDBRANCH   1   8
BRANCH   5  10
ATOM     10  C   UNL     1       5.998  -2.002  -2.746  0.00  0.00    +0.000 C 
ATOM     11  C   UNL     1       6.940  -2.737  -2.872  0.00  0.00    +0.000 C 
BRANCH  11  12
ATOM     12  C   UNL     1       8.061  -3.613  -3.025  0.00  0.00    +0.000 A 
ATOM     13  C   UNL     1       8.785  -3.619  -4.219  0.00  0.00    +0.000 A 
ATOM     14  C   UNL     1       9.879  -4.475  -4.369  0.00  0.00    +0.000 A 
ATOM     15  C   UNL     1      10.249  -5.323  -3.326  0.00  0.00    +0.000 A 
ATOM     16  C   UNL     1       9.526  -5.318  -2.132  0.00  0.00    +0.000 A 
ATOM     17  C   UNL     1       8.433  -4.463  -1.981  0.00  0.00    +0.000 A 
ENDBRANCH  11  12
ENDBRANCH   5  10
TORSDOF 3
