MODEL 1
REMARK VINA RESULT:      -4.7      0.000      0.000
REMARK  Name = *****
REMARK  3 active torsions:
REMARK  status: ('A' for Active; 'I' for Inactive)
REMARK    1  A    between atoms: C_1  and  C_2
REMARK    2  A    between atoms: C_2  and  C_10
REMARK    3  A    between atoms: N_3  and  C_4
REMARK                            x       y       z     vdW  Elec       q    Type
REMARK                         _______ _______ _______ _____ _____    ______ ____
ROOT
ATOM      1  C   UNL     1     103.436 127.298  80.150  0.00  0.00    +0.000 C 
ATOM      2  C   UNL     1     103.338 125.949  80.832  0.00  0.00    +0.000 C 
ATOM      3  N   UNL     1     102.616 125.696  81.884  0.00  0.00    +0.000 NA
ENDROOT
BRANCH   3   4
ATOM      4  C   UNL     1     101.850 126.709  82.471  0.00  0.00    +0.000 A 
ATOM      5  C   UNL     1     100.456 126.690  82.381  0.00  0.00    +0.000 A 
ATOM      6  C   UNL     1      99.695 127.692  82.988  0.00  0.00    +0.000 A 
ATOM      7  C   UNL     1     100.327 128.712  83.699  0.00  0.00    +0.000 A 
ATOM      8  C   UNL     1     101.717 128.724  83.811  0.00  0.00    +0.000 A 
ATOM      9  C   UNL     1     102.475 127.721  83.204  0.00  0.00    +0.000 A 
ENDBRANCH   3   4
BRANCH   2  10
ATOM     10  C   UNL     1     104.127 124.800  80.202  0.00  0.00    +0.000 C 
ATOM     11  C   UNL     1     104.386 123.682  81.218  0.00  0.00    +0.000 C 
ATOM     12  C   UNL     1     105.217 122.556  80.607  0.00  0.00    +0.000 C 
ATOM     13  C   UNL     1     106.521 123.081  80.012  0.00  0.00    +0.000 C 
ATOM     14  C   UNL     1     106.271 124.199  79.003  0.00  0.00    +0.000 C 
ATOM     15  C   UNL     1     105.437 125.327  79.606  0.00  0.00    +0.000 C 
ENDBRANCH   2  10
TORSDOF 2
ENDMDL
