MODEL 1
REMARK VINA RESULT:      -4.7      0.000      0.000
REMARK  Name = *****
REMARK  6 active torsions:
REMARK  status: ('A' for Active; 'I' for Inactive)
REMARK    1  A    between atoms: C_1  and  C_2
REMARK    2  A    between atoms: C_4  and  C_17
REMARK    3  A    between atoms: C_6  and  C_7
REMARK    4  A    between atoms: C_6  and  C_8
REMARK    5  A    between atoms: C_8  and  C_9
REMARK    6  A    between atoms: C_10  and  C_11
REMARK                            x       y       z     vdW  Elec       q    Type
REMARK                         _______ _______ _______ _____ _____    ______ ____
ROOT
ATOM      1  C   UNL     1     101.598 126.130  82.091  0.00  0.00    +0.000 C 
ENDROOT
BRANCH   1   7
ATOM      2  C   UNL     1     103.597 127.544  79.989  0.00  0.00    +0.000 C 
ATOM      3  C   UNL     1     103.709 126.230  80.680  0.00  0.00    +0.000 C 
ATOM      4  C   UNL     1     104.309 125.142  80.192  0.00  0.00    +0.000 C 
ATOM      5  C   UNL     1     104.137 124.168  81.269  0.00  0.00    +0.000 C 
ATOM      6  N   UNL     1     103.504 124.561  82.334  0.00  0.00    +0.000 NA
ATOM      7  C   UNL     1     103.143 125.984  82.061  0.00  0.00    +0.000 C 
ATOM      8  C   UNL     1     103.832 126.856  83.118  0.00  0.00    +0.000 C 
ATOM      9  C   UNL     1     104.673 122.779  81.136  0.00  0.00    +0.000 C 
ENDBRANCH   1   7
BRANCH   1  10
ATOM     10  C   UNL     1     101.103 127.280  82.934  0.00  0.00    +0.000 C 
ATOM     11  C   UNL     1      99.807 127.542  83.165  0.00  0.00    +0.000 C 
BRANCH  11  12
ATOM     12  C   UNL     1      99.330 128.678  83.968  0.00  0.00    +0.000 A 
ATOM     13  C   UNL     1      98.560 128.504  85.126  0.00  0.00    +0.000 A 
ATOM     14  C   UNL     1      98.154 129.604  85.885  0.00  0.00    +0.000 A 
ATOM     15  C   UNL     1      98.524 130.891  85.500  0.00  0.00    +0.000 A 
ATOM     16  C   UNL     1      99.304 131.077  84.361  0.00  0.00    +0.000 A 
ATOM     17  C   UNL     1      99.710 129.976  83.602  0.00  0.00    +0.000 A 
ENDBRANCH  11  12
ENDBRANCH   1  10
TORSDOF 3
ENDMDL
