MODEL 1
REMARK VINA RESULT:      -4.7      0.000      0.000
REMARK  Name = *****
REMARK  4 active torsions:
REMARK  status: ('A' for Active; 'I' for Inactive)
REMARK    1  A    between atoms: C_1  and  O_2
REMARK    2  A    between atoms: O_2  and  C_3
REMARK    3  A    between atoms: C_8  and  C_9
REMARK    4  A    between atoms: C_11  and  C_12
REMARK                            x       y       z     vdW  Elec       q    Type
REMARK                         _______ _______ _______ _____ _____    ______ ____
ROOT
ATOM      1  C   UNL     1     103.711 125.513  82.071  0.00  0.00    +0.000 C 
ATOM      2  C   UNL     1     103.575 126.423  80.876  0.00  0.00    +0.000 C 
ATOM      3  C   UNL     1     102.333 125.924  81.567  0.00  0.00    +0.000 C 
ENDROOT
BRANCH   1   9
ATOM      4  C   UNL     1     104.205 123.158  82.969  0.00  0.00    +0.000 A 
ATOM      5  C   UNL     1     104.652 121.844  82.769  0.00  0.00    +0.000 A 
ATOM      6  C   UNL     1     105.094 121.431  81.513  0.00  0.00    +0.000 A 
ATOM      7  C   UNL     1     105.100 122.327  80.450  0.00  0.00    +0.000 A 
ATOM      8  C   UNL     1     104.655 123.634  80.645  0.00  0.00    +0.000 A 
ATOM      9  C   UNL     1     104.183 124.078  81.896  0.00  0.00    +0.000 A 
BRANCH   4  11
ATOM     10  C   UNL     1     104.331 123.090  85.355  0.00  0.00    +0.000 C 
ATOM     11  O   UNL     1     103.773 123.651  84.176  0.00  0.00    +0.000 OA
ENDBRANCH   4  11
ENDBRANCH   1   9
BRANCH   3  12
ATOM     12  C   UNL     1     101.483 126.886  82.364  0.00  0.00    +0.000 A 
ATOM     13  C   UNL     1     102.049 127.997  83.011  0.00  0.00    +0.000 A 
ATOM     14  C   UNL     1     101.264 128.899  83.735  0.00  0.00    +0.000 A 
ATOM     15  C   UNL     1      99.888 128.710  83.820  0.00  0.00    +0.000 A 
ATOM     16  C   UNL     1      99.300 127.623  83.181  0.00  0.00    +0.000 A 
ATOM     17  C   UNL     1     100.091 126.724  82.460  0.00  0.00    +0.000 A 
ENDBRANCH   3  12
TORSDOF 3
ENDMDL
