REMARK  Name = *****
REMARK  4 active torsions:
REMARK  status: ('A' for Active; 'I' for Inactive)
REMARK    1  A    between atoms: C_4  and  C_7
REMARK    2  A    between atoms: C_7  and  C_8
REMARK    3  A    between atoms: C_8  and  S_9
REMARK    4  A    between atoms: S_9  and  C_10
REMARK                            x       y       z     vdW  Elec       q    Type
REMARK                         _______ _______ _______ _____ _____    ______ ____
ROOT
ATOM      1  C   UNL     1      -3.714  -0.813  -0.141  0.00  0.00    +0.000 C 
ENDROOT
BRANCH   1   2
ATOM      2  C   UNL     1      -2.915   0.490  -0.118  0.00  0.00    +0.000 C 
BRANCH   2   6
ATOM      3  C   UNL     1       1.280  -0.325   0.467  0.00  0.00    +0.000 A 
ATOM      4  C   UNL     1       0.754  -0.272  -0.823  0.00  0.00    +0.000 A 
ATOM      5  C   UNL     1      -0.602  -0.001  -1.014  0.00  0.00    +0.000 A 
ATOM      6  C   UNL     1      -1.442   0.222   0.085  0.00  0.00    +0.000 A 
ATOM      7  C   UNL     1      -0.904   0.161   1.377  0.00  0.00    +0.000 A 
ATOM      8  C   UNL     1       0.452  -0.109   1.566  0.00  0.00    +0.000 A 
ENDBRANCH   2   6
ENDBRANCH   1   2
BRANCH   1   9
ATOM      9  S   UNL     1      -5.494  -0.447  -0.335  0.00  0.00    +0.000 S 
BRANCH   9  10
ATOM     10  C   UNL     1      -6.154  -2.073  -0.665  0.00  0.00    +0.000 A 
ATOM     11  C   UNL     1      -5.750  -3.213   0.041  0.00  0.00    +0.000 A 
ATOM     12  C   UNL     1      -6.314  -4.459  -0.248  0.00  0.00    +0.000 A 
ATOM     13  C   UNL     1      -7.290  -4.560  -1.232  0.00  0.00    +0.000 A 
ATOM     14  C   UNL     1      -7.716  -3.439  -1.931  0.00  0.00    +0.000 A 
ATOM     15  C   UNL     1      -7.151  -2.194  -1.644  0.00  0.00    +0.000 A 
ATOM     16  F   UNL     1      -7.831  -5.754  -1.504  0.00  0.00    +0.000 F 
ENDBRANCH   9  10
ENDBRANCH   1   9
TORSDOF 4
