MODEL 1
REMARK VINA RESULT:      -4.9      0.000      0.000
REMARK  Name = *****
REMARK  3 active torsions:
REMARK  status: ('A' for Active; 'I' for Inactive)
REMARK    1  A    between atoms: C_6  and  C_7
REMARK    2  A    between atoms: C_7  and  O_9
REMARK    3  A    between atoms: O_9  and  C_10
REMARK                            x       y       z     vdW  Elec       q    Type
REMARK                         _______ _______ _______ _____ _____    ______ ____
ROOT
ATOM      1  C   UNL     1     103.404 127.383  82.127  0.00  0.00    +0.000 C 
ATOM      2  O   UNL     1     103.646 128.390  81.480  0.00  0.00    +0.000 OA
ENDROOT
BRANCH   1   8
ATOM      3  C   UNL     1     104.248 125.852  80.364  0.00  0.00    +0.000 A 
ATOM      4  C   UNL     1     104.656 124.597  79.903  0.00  0.00    +0.000 A 
ATOM      5  C   UNL     1     104.645 123.513  80.772  0.00  0.00    +0.000 A 
ATOM      6  C   UNL     1     104.229 123.674  82.089  0.00  0.00    +0.000 A 
ATOM      7  C   UNL     1     103.821 124.919  82.561  0.00  0.00    +0.000 A 
ATOM      8  C   UNL     1     103.828 126.021  81.696  0.00  0.00    +0.000 A 
ATOM      9  F   UNL     1     104.218 122.625  82.923  0.00  0.00    +0.000 F 
ATOM     10  F   UNL     1     105.035 122.311  80.330  0.00  0.00    +0.000 F 
ENDBRANCH   1   8
BRANCH   1  11
ATOM     11  O   UNL     1     102.726 127.305  83.328  0.00  0.00    +0.000 OA
BRANCH  11  12
ATOM     12  C   UNL     1     101.361 127.583  83.214  0.00  0.00    +0.000 A 
ATOM     13  C   UNL     1     100.910 128.848  83.584  0.00  0.00    +0.000 A 
ATOM     14  C   UNL     1      99.561 129.147  83.429  0.00  0.00    +0.000 A 
ATOM     15  C   UNL     1      98.672 128.217  82.901  0.00  0.00    +0.000 A 
ATOM     16  C   UNL     1      99.152 126.969  82.522  0.00  0.00    +0.000 A 
ATOM     17  C   UNL     1     100.496 126.639  82.664  0.00  0.00    +0.000 A 
ATOM     18  F   UNL     1      98.307 126.070  82.001  0.00  0.00    +0.000 F 
ATOM     19  F   UNL     1      99.111 130.356  83.786  0.00  0.00    +0.000 F 
ENDBRANCH  11  12
ENDBRANCH   1  11
TORSDOF 3
ENDMDL
