MODEL 1
REMARK VINA RESULT:      -4.9      0.000      0.000
REMARK  Name = *****
REMARK  4 active torsions:
REMARK  status: ('A' for Active; 'I' for Inactive)
REMARK    1  A    between atoms: C_1  and  C_2
REMARK    2  A    between atoms: C_4  and  C_10
REMARK    3  A    between atoms: C_5  and  C_8
REMARK    4  A    between atoms: C_11  and  C_12
REMARK                            x       y       z     vdW  Elec       q    Type
REMARK                         _______ _______ _______ _____ _____    ______ ____
ROOT
ATOM      1  C   UNL     1     106.251 124.490  78.090  0.00  0.00    +0.000 C 
ATOM      2  C   UNL     1     105.689 124.184  79.447  0.00  0.00    +0.000 A 
ATOM      3  C   UNL     1     104.640 124.954  79.969  0.00  0.00    +0.000 A 
ATOM      4  C   UNL     1     104.131 124.697  81.250  0.00  0.00    +0.000 A 
ATOM      5  C   UNL     1     104.683 123.667  82.024  0.00  0.00    +0.000 A 
ATOM      6  C   UNL     1     105.741 122.905  81.508  0.00  0.00    +0.000 A 
ATOM      7  C   UNL     1     106.243 123.166  80.231  0.00  0.00    +0.000 A 
ENDROOT
BRANCH   5   8
ATOM      8  C   UNL     1     104.194 123.372  83.340  0.00  0.00    +0.000 C 
ATOM      9  N   UNL     1     103.819 123.123  84.411  0.00  0.00    +0.000 NA
ENDBRANCH   5   8
BRANCH   4  10
ATOM     10  C   UNL     1     103.053 125.508  81.735  0.00  0.00    +0.000 C 
ATOM     11  C   UNL     1     102.152 126.200  82.125  0.00  0.00    +0.000 C 
BRANCH  11  12
ATOM     12  C   UNL     1     101.083 127.039  82.566  0.00  0.00    +0.000 A 
ATOM     13  C   UNL     1      99.756 126.678  82.318  0.00  0.00    +0.000 A 
ATOM     14  C   UNL     1      98.715 127.501  82.751  0.00  0.00    +0.000 A 
ATOM     15  C   UNL     1      98.999 128.685  83.432  0.00  0.00    +0.000 A 
ATOM     16  C   UNL     1     100.322 129.047  83.682  0.00  0.00    +0.000 A 
ATOM     17  C   UNL     1     101.365 128.225  83.250  0.00  0.00    +0.000 A 
ENDBRANCH  11  12
ENDBRANCH   4  10
TORSDOF 3
ENDMDL
