MODEL 1
REMARK VINA RESULT:      -4.5      0.000      0.000
REMARK  Name = *****
REMARK  2 active torsions:
REMARK  status: ('A' for Active; 'I' for Inactive)
REMARK    1  A    between atoms: C_3  and  C_6
REMARK    2  A    between atoms: C_7  and  C_8
REMARK                            x       y       z     vdW  Elec       q    Type
REMARK                         _______ _______ _______ _____ _____    ______ ____
ROOT
ATOM      1  C   UNL     1      97.987 118.439  80.520  0.00  0.00    +0.000 C 
ATOM      2  C   UNL     1      97.531 117.557  79.843  0.00  0.00    +0.000 C 
ENDROOT
BRANCH   2   3
ATOM      3  C   UNL     1      96.986 116.509  79.038  0.00  0.00    +0.000 A 
ATOM      4  C   UNL     1      97.089 116.571  77.645  0.00  0.00    +0.000 A 
ATOM      5  C   UNL     1      96.555 115.549  76.857  0.00  0.00    +0.000 A 
ATOM      6  C   UNL     1      95.919 114.468  77.466  0.00  0.00    +0.000 A 
ATOM      7  C   UNL     1      95.813 114.399  78.854  0.00  0.00    +0.000 A 
ATOM      8  C   UNL     1      96.348 115.421  79.641  0.00  0.00    +0.000 A 
ATOM      9 BR   UNL     1      95.194 113.085  76.400  0.00  0.00    +0.000 Br
ENDBRANCH   2   3
BRANCH   1  12
ATOM     10  C   UNL     1      98.121 119.709  83.635  0.00  0.00    +0.000 C 
ATOM     11  C   UNL     1      98.851 119.032  82.734  0.00  0.00    +0.000 C 
ATOM     12  C   UNL     1      98.534 119.520  81.346  0.00  0.00    +0.000 C 
ATOM     13  C   UNL     1      97.491 120.565  81.629  0.00  0.00    +0.000 C 
ATOM     14  C   UNL     1      97.279 120.658  82.950  0.00  0.00    +0.000 C 
ENDBRANCH   1  12
TORSDOF 2
ENDMDL
