MODEL 1
REMARK VINA RESULT:      -4.3      0.000      0.000
REMARK  Name = *****
REMARK  4 active torsions:
REMARK  status: ('A' for Active; 'I' for Inactive)
REMARK    1  A    between atoms: C_4  and  C_7
REMARK    2  A    between atoms: C_7  and  O_9
REMARK    3  A    between atoms: O_9  and  O_10
REMARK    4  A    between atoms: O_10  and  C_11
REMARK                            x       y       z     vdW  Elec       q    Type
REMARK                         _______ _______ _______ _____ _____    ______ ____
ROOT
ATOM      1  C   UNL     1     104.581 124.705  80.260  0.00  0.00    +0.000 C 
ATOM      2  O   UNL     1     105.601 125.186  79.791  0.00  0.00    +0.000 OA
ENDROOT
BRANCH   1   6
ATOM      3  C   UNL     1     104.554 121.254  82.811  0.00  0.00    +0.000 A 
ATOM      4  C   UNL     1     104.684 121.080  81.433  0.00  0.00    +0.000 A 
ATOM      5  C   UNL     1     104.695 122.189  80.583  0.00  0.00    +0.000 A 
ATOM      6  C   UNL     1     104.576 123.483  81.112  0.00  0.00    +0.000 A 
ATOM      7  C   UNL     1     104.445 123.648  82.498  0.00  0.00    +0.000 A 
ATOM      8  C   UNL     1     104.435 122.537  83.343  0.00  0.00    +0.000 A 
ENDBRANCH   1   6
BRANCH   1   9
ATOM      9  O   UNL     1     103.309 125.161  80.099  0.00  0.00    +0.000 OA
BRANCH   9  10
ATOM     10  O   UNL     1     103.355 126.611  80.241  0.00  0.00    +0.000 OA
BRANCH  10  11
ATOM     11  C   UNL     1     102.830 126.953  81.467  0.00  0.00    +0.000 A 
ATOM     12  C   UNL     1     101.787 126.274  82.098  0.00  0.00    +0.000 A 
ATOM     13  C   UNL     1     101.320 126.714  83.341  0.00  0.00    +0.000 A 
ATOM     14  C   UNL     1     101.890 127.834  83.947  0.00  0.00    +0.000 A 
ATOM     15  C   UNL     1     102.923 128.520  83.310  0.00  0.00    +0.000 A 
ATOM     16  C   UNL     1     103.388 128.082  82.069  0.00  0.00    +0.000 A 
ENDBRANCH  10  11
ENDBRANCH   9  10
ENDBRANCH   1   9
TORSDOF 4
ENDMDL
