REMARK  Name = *****
REMARK  3 active torsions:
REMARK  status: ('A' for Active; 'I' for Inactive)
REMARK    1  A    between atoms: C_4  and  C_8
REMARK    2  A    between atoms: C_8  and  O_10
REMARK    3  A    between atoms: O_10  and  C_11
REMARK                            x       y       z     vdW  Elec       q    Type
REMARK                         _______ _______ _______ _____ _____    ______ ____
ROOT
ATOM      1  C   UNL     1       0.059   2.130   0.858  0.00  0.00    +0.000 C 
ATOM      2  O   UNL     1      -0.954   2.798   0.979  0.00  0.00    +0.000 OA
ENDROOT
BRANCH   1   6
ATOM      3  C   UNL     1       0.070  -1.804  -0.784  0.00  0.00    +0.000 A 
ATOM      4  C   UNL     1      -0.601  -0.768  -1.437  0.00  0.00    +0.000 A 
ATOM      5  C   UNL     1      -0.594   0.517  -0.893  0.00  0.00    +0.000 A 
ATOM      6  C   UNL     1       0.081   0.778   0.294  0.00  0.00    +0.000 A 
ATOM      7  C   UNL     1       0.741  -0.260   0.946  0.00  0.00    +0.000 A 
ATOM      8  C   UNL     1       0.742  -1.548   0.412  0.00  0.00    +0.000 A 
ATOM      9  F   UNL     1       1.372  -0.049   2.110  0.00  0.00    +0.000 F 
ATOM     10  F   UNL     1      -1.227   1.494  -1.556  0.00  0.00    +0.000 F 
ENDBRANCH   1   6
BRANCH   1  11
ATOM     11  O   UNL     1       1.359   2.491   1.156  0.00  0.00    +0.000 OA
BRANCH  11  12
ATOM     12  C   UNL     1       1.462   3.770   1.708  0.00  0.00    +0.000 A 
ATOM     13  C   UNL     1       1.995   4.789   0.922  0.00  0.00    +0.000 A 
ATOM     14  C   UNL     1       2.151   6.064   1.471  0.00  0.00    +0.000 A 
ATOM     15  C   UNL     1       1.785   6.302   2.804  0.00  0.00    +0.000 A 
ATOM     16  C   UNL     1       1.270   5.261   3.585  0.00  0.00    +0.000 A 
ATOM     17  C   UNL     1       1.115   3.986   3.040  0.00  0.00    +0.000 A 
ATOM     18 CL   UNL     1       1.954   7.854   3.546  0.00  0.00    +0.000 Cl
ATOM     19 CL   UNL     1       2.810   7.299   0.457  0.00  0.00    +0.000 Cl
ENDBRANCH  11  12
ENDBRANCH   1  11
TORSDOF 3
