MODEL 1
REMARK VINA RESULT:      -4.6      0.000      0.000
REMARK  Name = *****
REMARK  4 active torsions:
REMARK  status: ('A' for Active; 'I' for Inactive)
REMARK    1  A    between atoms: C_1  and  C_2
REMARK    2  A    between atoms: C_9  and  C_10
REMARK    3  A    between atoms: C_10  and  S_11
REMARK    4  A    between atoms: S_11  and  C_12
REMARK                            x       y       z     vdW  Elec       q    Type
REMARK                         _______ _______ _______ _____ _____    ______ ____
ROOT
ATOM      1  C   UNL     1      87.328  67.192  85.943  0.00  0.00    +0.000 C 
ATOM      2  C   UNL     1      88.560  67.001  86.838  0.00  0.00    +0.000 C 
ATOM      3  C   UNL     1      88.775  65.515  87.217  0.00  0.00    +0.000 C 
ATOM      4  C   UNL     1      88.964  64.540  86.051  0.00  0.00    +0.000 C 
ATOM      5  C   UNL     1      90.387  64.412  85.500  0.00  0.00    +0.000 C 
ATOM      6  C   UNL     1      91.213  65.686  85.414  0.00  0.00    +0.000 C 
ATOM      7  C   UNL     1      90.371  66.896  85.089  0.00  0.00    +0.000 C 
ATOM      8  O   UNL     1      90.062  67.165  83.928  0.00  0.00    +0.000 OA
ATOM      9  C   UNL     1      89.838  67.675  86.286  0.00  0.00    +0.000 C 
ENDROOT
BRANCH   9  10
ATOM     10  C   UNL     1      89.632  69.155  85.933  0.00  0.00    +0.000 C 
BRANCH  10  11
ATOM     11  S   UNL     1      89.279  70.137  87.441  0.00  0.00    +0.000 S 
BRANCH  11  12
ATOM     12  C   UNL     1      87.698  70.829  86.991  0.00  0.00    +0.000 A 
ATOM     13  C   UNL     1      86.783  71.150  87.997  0.00  0.00    +0.000 A 
ATOM     14  C   UNL     1      85.541  71.701  87.673  0.00  0.00    +0.000 A 
ATOM     15  C   UNL     1      85.212  71.941  86.340  0.00  0.00    +0.000 A 
ATOM     16  C   UNL     1      86.125  71.637  85.332  0.00  0.00    +0.000 A 
ATOM     17  C   UNL     1      87.368  71.086  85.657  0.00  0.00    +0.000 A 
ENDBRANCH  11  12
ENDBRANCH  10  11
ENDBRANCH   9  10
TORSDOF 3
ENDMDL
