MODEL 1
REMARK VINA RESULT:      -4.2      0.000      0.000
REMARK  Name = *****
REMARK  3 active torsions:
REMARK  status: ('A' for Active; 'I' for Inactive)
REMARK    1  A    between atoms: C_1  and  C_2
REMARK    2  A    between atoms: C_3  and  N_9
REMARK    3  A    between atoms: C_10  and  C_11
REMARK                            x       y       z     vdW  Elec       q    Type
REMARK                         _______ _______ _______ _____ _____    ______ ____
ROOT
ATOM      1  C   UNL     1     102.447 128.894  83.868  0.00  0.00    +0.000 C 
ATOM      2  C   UNL     1     101.112 128.375  83.402  0.00  0.00    +0.000 A 
ATOM      3  C   UNL     1     100.979 127.062  82.909  0.00  0.00    +0.000 A 
ATOM      4  C   UNL     1      99.733 126.608  82.452  0.00  0.00    +0.000 A 
ATOM      5  C   UNL     1      98.608 127.425  82.513  0.00  0.00    +0.000 A 
ATOM      6  C   UNL     1      98.721 128.712  83.030  0.00  0.00    +0.000 A 
ATOM      7  C   UNL     1      99.962 129.184  83.470  0.00  0.00    +0.000 A 
ATOM      8 CL   UNL     1     100.019 130.791  84.107  0.00  0.00    +0.000 Cl
ENDROOT
BRANCH   3   9
ATOM      9  N   UNL     1     102.077 126.192  82.825  0.00  0.00    +0.000 NA
ATOM     10  C   UNL     1     102.443 125.858  81.625  0.00  0.00    +0.000 C 
BRANCH  10  11
ATOM     11  C   UNL     1     103.558 124.969  81.418  0.00  0.00    +0.000 A 
ATOM     12  C   UNL     1     104.254 124.706  80.255  0.00  0.00    +0.000 A 
ATOM     13  C   UNL     1     105.302 123.761  80.455  0.00  0.00    +0.000 A 
ATOM     14  C   UNL     1     105.369 123.337  81.764  0.00  0.00    +0.000 A 
ATOM     15  S   UNL     1     104.174 124.077  82.739  0.00  0.00    +0.000 S 
ENDBRANCH  10  11
ENDBRANCH   3   9
TORSDOF 2
ENDMDL
