REMARK  Name = *****
REMARK  4 active torsions:
REMARK  status: ('A' for Active; 'I' for Inactive)
REMARK    1  A    between atoms: C_1  and  C_2
REMARK    2  A    between atoms: C_5  and  C_8
REMARK    3  A    between atoms: C_8  and  C_9
REMARK    4  A    between atoms: C_9  and  C_10
REMARK                            x       y       z     vdW  Elec       q    Type
REMARK                         _______ _______ _______ _____ _____    ______ ____
ROOT
ATOM      1  C   UNL     1      -3.567  -0.415  -0.171  0.00  0.00    +0.000 C 
ATOM      2 CL   UNL     1      -4.462   1.123  -0.347  0.00  0.00    +0.000 Cl
ENDROOT
BRANCH   1   7
ATOM      3  C   UNL     1       2.239   0.105   0.250  0.00  0.00    +0.000 C 
ATOM      4  C   UNL     1       0.749  -0.001   0.114  0.00  0.00    +0.000 A 
ATOM      5  C   UNL     1       0.169  -1.088  -0.544  0.00  0.00    +0.000 A 
ATOM      6  C   UNL     1      -1.221  -1.199  -0.640  0.00  0.00    +0.000 A 
ATOM      7  C   UNL     1      -2.066  -0.229  -0.075  0.00  0.00    +0.000 A 
ATOM      8  C   UNL     1      -1.474   0.847   0.604  0.00  0.00    +0.000 A 
ATOM      9  C   UNL     1      -0.083   0.958   0.698  0.00  0.00    +0.000 A 
ENDBRANCH   1   7
BRANCH   1  10
ATOM     10  C   UNL     1      -4.168  -1.331   0.915  0.00  0.00    +0.000 C 
BRANCH  10  11
ATOM     11  C   UNL     1      -3.821  -1.026   2.383  0.00  0.00    +0.000 C 
ATOM     12  S   UNL     1      -4.439   0.540   3.077  0.00  0.00    +0.000 S 
ATOM     13  C   UNL     1      -6.226   0.238   3.034  0.00  0.00    +0.000 C 
ATOM     14  C   UNL     1      -6.643  -0.948   3.892  0.00  0.00    +0.000 C 
ATOM     15  C   UNL     1      -6.118  -2.288   3.396  0.00  0.00    +0.000 C 
ATOM     16  S   UNL     1      -4.309  -2.422   3.472  0.00  0.00    +0.000 S 
ENDBRANCH  10  11
ENDBRANCH   1  10
TORSDOF 3
