MODEL 1
REMARK VINA RESULT:      -4.7      0.000      0.000
REMARK  Name = *****
REMARK  1 active torsions:
REMARK  status: ('A' for Active; 'I' for Inactive)
REMARK    1  A    between atoms: C_10  and  C_11
REMARK                            x       y       z     vdW  Elec       q    Type
REMARK                         _______ _______ _______ _____ _____    ______ ____
ROOT
ATOM      1  C   UNL     1     103.170 125.303  83.306  0.00  0.00    +0.000 C 
ATOM      2  C   UNL     1     103.884 124.006  82.943  0.00  0.00    +0.000 C 
ATOM      3  C   UNL     1     104.671 124.056  81.660  0.00  0.00    +0.000 A 
ATOM      4  C   UNL     1     105.681 123.092  81.476  0.00  0.00    +0.000 A 
ATOM      5  C   UNL     1     106.440 123.058  80.305  0.00  0.00    +0.000 A 
ATOM      6  C   UNL     1     106.194 123.983  79.298  0.00  0.00    +0.000 A 
ATOM      7  C   UNL     1     105.187 124.934  79.461  0.00  0.00    +0.000 A 
ATOM      8  C   UNL     1     104.413 124.975  80.631  0.00  0.00    +0.000 A 
ATOM      9  S   UNL     1     103.160 126.244  80.708  0.00  0.00    +0.000 S 
ATOM     10  C   UNL     1     102.218 125.736  82.191  0.00  0.00    +0.000 C 
ENDROOT
BRANCH  10  11
ATOM     11  C   UNL     1     101.275 126.843  82.634  0.00  0.00    +0.000 A 
ATOM     12  C   UNL     1     101.786 127.975  83.288  0.00  0.00    +0.000 A 
ATOM     13  C   UNL     1     100.938 129.006  83.699  0.00  0.00    +0.000 A 
ATOM     14  C   UNL     1      99.568 128.921  83.463  0.00  0.00    +0.000 A 
ATOM     15  C   UNL     1      99.043 127.801  82.823  0.00  0.00    +0.000 A 
ATOM     16  C   UNL     1      99.889 126.769  82.411  0.00  0.00    +0.000 A 
ENDBRANCH  10  11
TORSDOF 1
ENDMDL
