REMARK  Name = *****
REMARK  4 active torsions:
REMARK  status: ('A' for Active; 'I' for Inactive)
REMARK    1  A    between atoms: C_1  and  C_2
REMARK    2  A    between atoms: C_5  and  C_8
REMARK    3  A    between atoms: N_10  and  C_11
REMARK    4  A    between atoms: C_14  and  C_17
REMARK                            x       y       z     vdW  Elec       q    Type
REMARK                         _______ _______ _______ _____ _____    ______ ____
ROOT
ATOM      1  C   UNL     1      -3.696   0.119   0.318  0.00  0.00    +0.000 C 
ATOM      2  C   UNL     1      -4.913   0.522  -0.467  0.00  0.00    +0.000 C 
ATOM      3  N   UNL     1      -4.800   0.870   0.948  0.00  0.00    +0.000 N 
ENDROOT
BRANCH   1   8
ATOM      4  C   UNL     1      -2.895  -5.451   1.908  0.00  0.00    +0.000 C 
ATOM      5  C   UNL     1      -3.131  -4.027   1.500  0.00  0.00    +0.000 A 
ATOM      6  C   UNL     1      -3.120  -3.663   0.151  0.00  0.00    +0.000 A 
ATOM      7  C   UNL     1      -3.310  -2.329  -0.225  0.00  0.00    +0.000 A 
ATOM      8  C   UNL     1      -3.510  -1.319   0.730  0.00  0.00    +0.000 A 
ATOM      9  C   UNL     1      -3.497  -1.701   2.081  0.00  0.00    +0.000 A 
ATOM     10  C   UNL     1      -3.308  -3.032   2.465  0.00  0.00    +0.000 A 
ENDBRANCH   1   8
BRANCH   3  11
ATOM     11  C   UNL     1      -4.595   2.222   1.328  0.00  0.00    +0.000 A 
ATOM     12  C   UNL     1      -3.840   3.163   0.615  0.00  0.00    +0.000 A 
ATOM     13  C   UNL     1      -3.699   4.476   1.080  0.00  0.00    +0.000 A 
ATOM     14  C   UNL     1      -4.320   4.883   2.264  0.00  0.00    +0.000 A 
ATOM     15  C   UNL     1      -5.063   3.949   2.990  0.00  0.00    +0.000 A 
ATOM     16  C   UNL     1      -5.201   2.639   2.522  0.00  0.00    +0.000 A 
ATOM     17  C   UNL     1      -4.140   6.280   2.780  0.00  0.00    +0.000 C 
ENDBRANCH   3  11
TORSDOF 2
