REMARK  Name = *****
REMARK  4 active torsions:
REMARK  status: ('A' for Active; 'I' for Inactive)
REMARK    1  A    between atoms: C_1  and  O_2
REMARK    2  A    between atoms: O_2  and  C_3
REMARK    3  A    between atoms: C_3  and  C_13
REMARK    4  A    between atoms: N_4  and  C_5
REMARK                            x       y       z     vdW  Elec       q    Type
REMARK                         _______ _______ _______ _____ _____    ______ ____
ROOT
ATOM      1  C   UNL     1       3.019   1.202   0.454  0.00  0.00    +0.000 C 
ATOM      2  N   UNL     1       2.389   2.094   1.152  0.00  0.00    +0.000 NA
ENDROOT
BRANCH   2   3
ATOM      3  C   UNL     1       0.984   2.111   1.188  0.00  0.00    +0.000 A 
ATOM      4  C   UNL     1       0.243   3.165   0.620  0.00  0.00    +0.000 A 
ATOM      5  C   UNL     1      -1.151   3.182   0.700  0.00  0.00    +0.000 A 
ATOM      6  C   UNL     1      -1.805   2.152   1.363  0.00  0.00    +0.000 A 
ATOM      7  C   UNL     1      -1.097   1.110   1.949  0.00  0.00    +0.000 A 
ATOM      8  C   UNL     1       0.296   1.096   1.868  0.00  0.00    +0.000 A 
ATOM      9  F   UNL     1      -3.142   2.165   1.442  0.00  0.00    +0.000 F 
ATOM     10 CL   UNL     1       1.025   4.465  -0.209  0.00  0.00    +0.000 Cl
ENDBRANCH   2   3
BRANCH   1  11
ATOM     11  C   UNL     1       4.500   1.075   0.458  0.00  0.00    +0.000 A 
ATOM     12  C   UNL     1       5.152  -0.025  -0.117  0.00  0.00    +0.000 A 
ATOM     13  C   UNL     1       6.546  -0.107  -0.094  0.00  0.00    +0.000 A 
ATOM     14  C   UNL     1       7.297   0.905   0.503  0.00  0.00    +0.000 A 
ATOM     15  C   UNL     1       6.657   2.001   1.079  0.00  0.00    +0.000 A 
ATOM     16  C   UNL     1       5.263   2.087   1.059  0.00  0.00    +0.000 A 
ENDBRANCH   1  11
BRANCH   1  18
ATOM     17  C   UNL     1       1.799   0.764  -1.511  0.00  0.00    +0.000 C 
ATOM     18  O   UNL     1       2.441   0.261  -0.333  0.00  0.00    +0.000 OA
ENDBRANCH   1  18
TORSDOF 3
