MODEL 1
REMARK VINA RESULT:      -4.5      0.000      0.000
REMARK  Name = *****
REMARK  6 active torsions:
REMARK  status: ('A' for Active; 'I' for Inactive)
REMARK    1  A    between atoms: C_1  and  C_2
REMARK    2  A    between atoms: C_2  and  C_3
REMARK    3  A    between atoms: C_2  and  C_4
REMARK    4  A    between atoms: C_4  and  C_5
REMARK    5  A    between atoms: C_8  and  C_10
REMARK    6  A    between atoms: C_11  and  C_12
REMARK                            x       y       z     vdW  Elec       q    Type
REMARK                         _______ _______ _______ _____ _____    ______ ____
ROOT
ATOM      1  C   UNL     1      99.511 128.615  83.598  0.00  0.00    +0.000 C 
ATOM      2  C   UNL     1      98.591 127.806  82.687  0.00  0.00    +0.000 C 
ATOM      3  O   UNL     1      99.352 126.661  82.339  0.00  0.00    +0.000 OA
ATOM      4  C   UNL     1     100.615 127.055  82.609  0.00  0.00    +0.000 C 
ATOM      5  N   UNL     1     100.868 128.149  83.245  0.00  0.00    +0.000 NA
ENDROOT
BRANCH   4   6
ATOM      6  C   UNL     1     101.710 126.255  82.177  0.00  0.00    +0.000 C 
ATOM      7  C   UNL     1     102.636 125.583  81.811  0.00  0.00    +0.000 C 
BRANCH   7   8
ATOM      8  C   UNL     1     103.738 124.782  81.373  0.00  0.00    +0.000 A 
ATOM      9  C   UNL     1     104.246 123.779  82.202  0.00  0.00    +0.000 A 
ATOM     10  C   UNL     1     105.323 122.999  81.774  0.00  0.00    +0.000 A 
ATOM     11  C   UNL     1     105.891 123.220  80.520  0.00  0.00    +0.000 A 
ATOM     12  C   UNL     1     105.383 124.221  79.691  0.00  0.00    +0.000 A 
ATOM     13  C   UNL     1     104.307 125.003  80.117  0.00  0.00    +0.000 A 
ENDBRANCH   7   8
ENDBRANCH   4   6
BRANCH   1  14
ATOM     14  C   UNL     1      99.365 130.122  83.382  0.00  0.00    +0.000 C 
BRANCH  14  16
ATOM     15  C   UNL     1      98.446 130.180  85.777  0.00  0.00    +0.000 C 
ATOM     16  C   UNL     1      99.184 130.941  84.677  0.00  0.00    +0.000 C 
ATOM     17  C   UNL     1     100.555 131.387  85.196  0.00  0.00    +0.000 C 
ENDBRANCH  14  16
ENDBRANCH   1  14
TORSDOF 4
ENDMDL
