MODEL 1
REMARK VINA RESULT:      -4.6      0.000      0.000
REMARK  Name = *****
REMARK  4 active torsions:
REMARK  status: ('A' for Active; 'I' for Inactive)
REMARK    1  A    between atoms: C_1  and  C_2
REMARK    2  A    between atoms: C_7  and  O_8
REMARK    3  A    between atoms: O_8  and  C_9
REMARK    4  A    between atoms: C_9  and  C_11
REMARK                            x       y       z     vdW  Elec       q    Type
REMARK                         _______ _______ _______ _____ _____    ______ ____
ROOT
ATOM      1  C   UNL     1     101.887 126.001  82.839  0.00  0.00    +0.000 C 
ATOM      2  O   UNL     1     102.285 125.306  83.762  0.00  0.00    +0.000 OA
ENDROOT
BRANCH   1   3
ATOM      3  C   UNL     1     100.925 127.104  83.035  0.00  0.00    +0.000 A 
ATOM      4  C   UNL     1     101.358 128.254  83.708  0.00  0.00    +0.000 A 
ATOM      5  C   UNL     1     100.477 129.320  83.911  0.00  0.00    +0.000 A 
ATOM      6  C   UNL     1      99.167 129.245  83.434  0.00  0.00    +0.000 A 
ATOM      7  C   UNL     1      98.741 128.108  82.747  0.00  0.00    +0.000 A 
ATOM      8  C   UNL     1      99.620 127.046  82.547  0.00  0.00    +0.000 A 
ATOM      9  F   UNL     1      99.183 125.986  81.852  0.00  0.00    +0.000 F 
ENDBRANCH   1   3
BRANCH   1  10
ATOM     10  O   UNL     1     102.142 125.853  81.491  0.00  0.00    +0.000 OA
BRANCH  10  17
ATOM     11  C   UNL     1     104.282 123.935  81.045  0.00  0.00    +0.000 C 
ATOM     12  C   UNL     1     104.445 125.411  80.845  0.00  0.00    +0.000 A 
ATOM     13  C   UNL     1     105.680 125.933  80.436  0.00  0.00    +0.000 A 
ATOM     14  C   UNL     1     105.851 127.310  80.261  0.00  0.00    +0.000 A 
ATOM     15  C   UNL     1     104.791 128.185  80.498  0.00  0.00    +0.000 A 
ATOM     16  C   UNL     1     103.561 127.687  80.920  0.00  0.00    +0.000 A 
ATOM     17  C   UNL     1     103.406 126.313  81.111  0.00  0.00    +0.000 A 
ENDBRANCH  10  17
ENDBRANCH   1  10
TORSDOF 3
ENDMDL
