MODEL 1
REMARK VINA RESULT:      -4.9      0.000      0.000
REMARK  Name = *****
REMARK  3 active torsions:
REMARK  status: ('A' for Active; 'I' for Inactive)
REMARK    1  A    between atoms: C_4  and  C_7
REMARK    2  A    between atoms: C_8  and  C_9
REMARK    3  A    between atoms: C_8  and  C_11
REMARK                            x       y       z     vdW  Elec       q    Type
REMARK                         _______ _______ _______ _____ _____    ______ ____
ROOT
ATOM      1  C   UNL     1     102.078 125.763  82.504  0.00  0.00    +0.000 C 
ATOM      2  C   UNL     1     103.060 125.756  81.579  0.00  0.00    +0.000 C 
ENDROOT
BRANCH   2   3
ATOM      3  C   UNL     1     103.915 124.556  81.471  0.00  0.00    +0.000 A 
ATOM      4  C   UNL     1     104.077 123.699  82.571  0.00  0.00    +0.000 A 
ATOM      5  C   UNL     1     104.886 122.567  82.462  0.00  0.00    +0.000 A 
ATOM      6  C   UNL     1     105.545 122.276  81.270  0.00  0.00    +0.000 A 
ATOM      7  C   UNL     1     105.393 123.124  80.173  0.00  0.00    +0.000 A 
ATOM      8  C   UNL     1     104.584 124.258  80.273  0.00  0.00    +0.000 A 
ATOM      9 BR   UNL     1     105.089 121.415  83.948  0.00  0.00    +0.000 Br
ENDBRANCH   2   3
BRANCH   1  13
ATOM     10  C   UNL     1      99.408 128.986  83.348  0.00  0.00    +0.000 A 
ATOM     11  C   UNL     1      98.929 127.847  82.704  0.00  0.00    +0.000 A 
ATOM     12  C   UNL     1      99.794 126.788  82.418  0.00  0.00    +0.000 A 
ATOM     13  C   UNL     1     101.148 126.867  82.768  0.00  0.00    +0.000 A 
ATOM     14  C   UNL     1     101.618 128.010  83.427  0.00  0.00    +0.000 A 
ATOM     15  C   UNL     1     100.751 129.067  83.712  0.00  0.00    +0.000 A 
ENDBRANCH   1  13
BRANCH   2  16
ATOM     16  C   UNL     1     103.337 126.876  80.733  0.00  0.00    +0.000 C 
ATOM     17  N   UNL     1     103.582 127.777  80.042  0.00  0.00    +0.000 NA
ENDBRANCH   2  16
TORSDOF 3
ENDMDL
