MODEL 1
REMARK VINA RESULT:      -4.3      0.000      0.000
REMARK  Name = *****
REMARK  3 active torsions:
REMARK  status: ('A' for Active; 'I' for Inactive)
REMARK    1  A    between atoms: C_4  and  S_7
REMARK    2  A    between atoms: S_7  and  N_8
REMARK    3  A    between atoms: N_8  and  C_9
REMARK                            x       y       z     vdW  Elec       q    Type
REMARK                         _______ _______ _______ _____ _____    ______ ____
ROOT
ATOM      1  N   UNL     1     101.593 125.988  81.889  0.00  0.00    +0.000 N 
ATOM      2  H   UNL     1     101.255 125.075  81.740  0.00  0.00    +0.000 HD
ENDROOT
BRANCH   1   3
ATOM      3  C   UNL     1     100.734 126.931  82.499  0.00  0.00    +0.000 A 
ATOM      4  C   UNL     1      99.337 126.907  82.375  0.00  0.00    +0.000 A 
ATOM      5  C   UNL     1      98.542 127.907  82.944  0.00  0.00    +0.000 A 
ATOM      6  C   UNL     1      99.133 128.965  83.629  0.00  0.00    +0.000 A 
ATOM      7  C   UNL     1     100.520 129.029  83.734  0.00  0.00    +0.000 A 
ATOM      8  C   UNL     1     101.310 128.026  83.163  0.00  0.00    +0.000 A 
ENDBRANCH   1   3
BRANCH   1   9
ATOM      9  S   UNL     1     103.145 126.344  81.411  0.00  0.00    +0.000 S 
BRANCH   9  13
ATOM     10  C   UNL     1     104.782 122.038  81.763  0.00  0.00    +0.000 C 
ATOM     11  C   UNL     1     104.904 122.944  82.983  0.00  0.00    +0.000 C 
ATOM     12  C   UNL     1     103.900 124.099  82.910  0.00  0.00    +0.000 C 
ATOM     13  C   UNL     1     103.848 124.754  81.548  0.00  0.00    +0.000 C 
ATOM     14  C   UNL     1     104.380 124.173  80.459  0.00  0.00    +0.000 C 
ATOM     15  C   UNL     1     105.027 122.818  80.471  0.00  0.00    +0.000 C 
ENDBRANCH   9  13
ENDBRANCH   1   9
TORSDOF 3
ENDMDL
