MODEL 1
REMARK VINA RESULT:      -4.2      0.000      0.000
REMARK  Name = *****
REMARK  4 active torsions:
REMARK  status: ('A' for Active; 'I' for Inactive)
REMARK    1  A    between atoms: C_1  and  C_2
REMARK    2  A    between atoms: C_7  and  O_8
REMARK    3  A    between atoms: O_8  and  C_9
REMARK    4  A    between atoms: C_9  and  C_10
REMARK                            x       y       z     vdW  Elec       q    Type
REMARK                         _______ _______ _______ _____ _____    ______ ____
ROOT
ATOM      1  O   UNL     1      87.364  64.251  86.737  0.00  0.00    +0.000 OA
ENDROOT
BRANCH   1   8
ATOM      2  C   UNL     1      87.841  66.928  87.477  0.00  0.00    +0.000 C 
ATOM      3  C   UNL     1      88.836  66.118  86.697  0.00  0.00    +0.000 A 
ATOM      4  C   UNL     1      90.062  66.680  86.314  0.00  0.00    +0.000 A 
ATOM      5  C   UNL     1      90.995  65.926  85.597  0.00  0.00    +0.000 A 
ATOM      6  C   UNL     1      90.714  64.602  85.264  0.00  0.00    +0.000 A 
ATOM      7  C   UNL     1      89.498  64.032  85.637  0.00  0.00    +0.000 A 
ATOM      8  C   UNL     1      88.555  64.794  86.331  0.00  0.00    +0.000 A 
ENDBRANCH   1   8
BRANCH   1   9
ATOM      9  C   UNL     1      87.553  63.061  87.506  0.00  0.00    +0.000 C 
BRANCH   9  10
ATOM     10  C   UNL     1      87.698  63.462  88.955  0.00  0.00    +0.000 A 
ATOM     11  C   UNL     1      88.972  63.554  89.537  0.00  0.00    +0.000 A 
ATOM     12  C   UNL     1      89.114  63.938  90.872  0.00  0.00    +0.000 A 
ATOM     13  C   UNL     1      87.984  64.239  91.630  0.00  0.00    +0.000 A 
ATOM     14  C   UNL     1      86.713  64.164  91.062  0.00  0.00    +0.000 A 
ATOM     15  C   UNL     1      86.571  63.780  89.726  0.00  0.00    +0.000 A 
ATOM     16 CL   UNL     1      88.159  64.710  93.275  0.00  0.00    +0.000 Cl
ENDBRANCH   9  10
ENDBRANCH   1   9
TORSDOF 3
ENDMDL
