MODEL 1
REMARK VINA RESULT:      -4.6      0.000      0.000
REMARK  Name = *****
REMARK  3 active torsions:
REMARK  status: ('A' for Active; 'I' for Inactive)
REMARK    1  A    between atoms: C_6  and  C_7
REMARK    2  A    between atoms: C_7  and  N_9
REMARK    3  A    between atoms: N_9  and  C_10
REMARK                            x       y       z     vdW  Elec       q    Type
REMARK                         _______ _______ _______ _____ _____    ______ ____
ROOT
ATOM      1  C   UNL     1      89.038  64.387  86.708  0.00  0.00    +0.000 C 
ATOM      2  S   UNL     1      89.005  63.618  85.219  0.00  0.00    +0.000 S 
ENDROOT
BRANCH   1   8
ATOM      3  C   UNL     1      90.033  66.633  86.267  0.00  0.00    +0.000 A 
ATOM      4  C   UNL     1      89.984  68.026  86.335  0.00  0.00    +0.000 A 
ATOM      5  C   UNL     1      88.874  68.648  86.897  0.00  0.00    +0.000 A 
ATOM      6  C   UNL     1      87.806  67.906  87.394  0.00  0.00    +0.000 A 
ATOM      7  C   UNL     1      87.845  66.513  87.330  0.00  0.00    +0.000 A 
ATOM      8  C   UNL     1      88.959  65.877  86.762  0.00  0.00    +0.000 A 
ATOM      9  F   UNL     1      88.832  69.985  86.963  0.00  0.00    +0.000 F 
ENDBRANCH   1   8
BRANCH   1  10
ATOM     10  N   UNL     1      89.092  63.837  87.984  0.00  0.00    +0.000 N 
ATOM     11  H   UNL     1      90.007  63.661  88.300  0.00  0.00    +0.000 HD
BRANCH  10  12
ATOM     12  C   UNL     1      88.092  63.483  88.919  0.00  0.00    +0.000 A 
ATOM     13  C   UNL     1      87.921  64.051  90.181  0.00  0.00    +0.000 A 
ATOM     14  C   UNL     1      86.879  63.633  91.021  0.00  0.00    +0.000 A 
ATOM     15  C   UNL     1      85.995  62.646  90.600  0.00  0.00    +0.000 A 
ATOM     16  C   UNL     1      86.137  62.079  89.339  0.00  0.00    +0.000 A 
ATOM     17  C   UNL     1      87.178  62.500  88.504  0.00  0.00    +0.000 A 
ATOM     18 CL   UNL     1      84.718  62.136  91.632  0.00  0.00    +0.000 Cl
ENDBRANCH  10  12
ENDBRANCH   1  10
TORSDOF 3
ENDMDL
