MODEL 1
REMARK VINA RESULT:      -4.6      0.000      0.000
REMARK  Name = *****
REMARK  4 active torsions:
REMARK  status: ('A' for Active; 'I' for Inactive)
REMARK    1  A    between atoms: C_1  and  C_2
REMARK    2  A    between atoms: C_5  and  S_8
REMARK    3  A    between atoms: S_8  and  O_10
REMARK    4  A    between atoms: O_10  and  C_11
REMARK                            x       y       z     vdW  Elec       q    Type
REMARK                         _______ _______ _______ _____ _____    ______ ____
ROOT
ATOM      1  S   UNL     1      88.381  70.240  87.964  0.00  0.00    +0.000 S 
ATOM      2  O   UNL     1      88.485  70.474  89.444  0.00  0.00    +0.000 OA
ENDROOT
BRANCH   1   7
ATOM      3  C   UNL     1      83.246  73.074  86.204  0.00  0.00    +0.000 C 
ATOM      4  C   UNL     1      84.520  72.409  86.633  0.00  0.00    +0.000 A 
ATOM      5  C   UNL     1      85.441  71.962  85.679  0.00  0.00    +0.000 A 
ATOM      6  C   UNL     1      86.613  71.313  86.074  0.00  0.00    +0.000 A 
ATOM      7  C   UNL     1      86.878  71.098  87.430  0.00  0.00    +0.000 A 
ATOM      8  C   UNL     1      85.948  71.526  88.385  0.00  0.00    +0.000 A 
ATOM      9  C   UNL     1      84.776  72.174  87.989  0.00  0.00    +0.000 A 
ENDBRANCH   1   7
BRANCH   1  10
ATOM     10  O   UNL     1      87.718  68.783  87.751  0.00  0.00    +0.000 OA
BRANCH  10  11
ATOM     11  C   UNL     1      88.516  67.873  87.108  0.00  0.00    +0.000 A 
ATOM     12  C   UNL     1      89.642  68.265  86.379  0.00  0.00    +0.000 A 
ATOM     13  C   UNL     1      90.448  67.298  85.775  0.00  0.00    +0.000 A 
ATOM     14  C   UNL     1      90.133  65.946  85.920  0.00  0.00    +0.000 A 
ATOM     15  C   UNL     1      89.025  65.552  86.670  0.00  0.00    +0.000 A 
ATOM     16  C   UNL     1      88.219  66.519  87.275  0.00  0.00    +0.000 A 
ATOM     17 BR   UNL     1      91.225  64.636  85.104  0.00  0.00    +0.000 Br
ENDBRANCH  10  11
ENDBRANCH   1  10
TORSDOF 3
ENDMDL
