MODEL 1
REMARK VINA RESULT:      -4.8      0.000      0.000
REMARK  Name = *****
REMARK  4 active torsions:
REMARK  status: ('A' for Active; 'I' for Inactive)
REMARK    1  A    between atoms: C_3  and  C_7
REMARK    2  A    between atoms: C_7  and  C_8
REMARK    3  A    between atoms: C_8  and  C_9
REMARK    4  A    between atoms: C_9  and  C_11
REMARK                            x       y       z     vdW  Elec       q    Type
REMARK                         _______ _______ _______ _____ _____    ______ ____
ROOT
ATOM      1  C   UNL     1     100.141 126.544  83.353  0.00  0.00    +0.000 C 
ENDROOT
BRANCH   1   2
ATOM      2  C   UNL     1      99.053 127.559  83.030  0.00  0.00    +0.000 C 
ATOM      3  O   UNL     1      98.270 127.409  82.094  0.00  0.00    +0.000 OA
BRANCH   2   4
ATOM      4  C   UNL     1      98.941 128.782  83.885  0.00  0.00    +0.000 A 
ATOM      5  C   UNL     1      98.321 128.766  85.141  0.00  0.00    +0.000 A 
ATOM      6  C   UNL     1      98.244 129.938  85.901  0.00  0.00    +0.000 A 
ATOM      7  C   UNL     1      98.784 131.126  85.414  0.00  0.00    +0.000 A 
ATOM      8  C   UNL     1      99.401 131.152  84.166  0.00  0.00    +0.000 A 
ATOM      9  C   UNL     1      99.480 129.984  83.404  0.00  0.00    +0.000 A 
ENDBRANCH   2   4
ENDBRANCH   1   2
BRANCH   1  10
ATOM     10  C   UNL     1     101.119 126.354  82.191  0.00  0.00    +0.000 C 
BRANCH  10  13
ATOM     11  C   UNL     1     103.512 127.114  80.288  0.00  0.00    +0.000 C 
ATOM     12  C   UNL     1     103.367 127.549  81.749  0.00  0.00    +0.000 C 
ATOM     13  C   UNL     1     102.601 126.520  82.600  0.00  0.00    +0.000 C 
ATOM     14  C   UNL     1     103.337 125.164  82.539  0.00  0.00    +0.000 C 
ATOM     15  C   UNL     1     103.799 124.789  81.159  0.00  0.00    +0.000 C 
ATOM     16  C   UNL     1     103.863 125.663  80.144  0.00  0.00    +0.000 C 
ENDBRANCH  10  13
ENDBRANCH   1  10
TORSDOF 4
ENDMDL
