MODEL 1
REMARK VINA RESULT:      -4.5      0.000      0.000
REMARK  Name = *****
REMARK  4 active torsions:
REMARK  status: ('A' for Active; 'I' for Inactive)
REMARK    1  A    between atoms: C_1  and  C_2
REMARK    2  A    between atoms: C_2  and  C_4
REMARK    3  A    between atoms: C_4  and  C_12
REMARK    4  A    between atoms: C_5  and  C_6
REMARK                            x       y       z     vdW  Elec       q    Type
REMARK                         _______ _______ _______ _____ _____    ______ ____
ROOT
ATOM      1  C   UNL     1     102.825 126.465  82.255  0.00  0.00    +0.000 C 
ATOM      2  C   UNL     1     102.838 125.620  81.205  0.00  0.00    +0.000 C 
ENDROOT
BRANCH   2   3
ATOM      3  C   UNL     1     104.003 124.885  80.698  0.00  0.00    +0.000 A 
ATOM      4  C   UNL     1     104.818 125.482  79.729  0.00  0.00    +0.000 A 
ATOM      5  C   UNL     1     105.938 124.807  79.237  0.00  0.00    +0.000 A 
ATOM      6  C   UNL     1     106.254 123.537  79.717  0.00  0.00    +0.000 A 
ATOM      7  C   UNL     1     105.454 122.942  80.691  0.00  0.00    +0.000 A 
ATOM      8  C   UNL     1     104.335 123.615  81.184  0.00  0.00    +0.000 A 
ENDBRANCH   2   3
BRANCH   1   9
ATOM      9  C   UNL     1     101.583 127.161  82.651  0.00  0.00    +0.000 A 
ATOM     10  C   UNL     1     101.628 128.385  83.336  0.00  0.00    +0.000 A 
ATOM     11  C   UNL     1     100.450 129.046  83.693  0.00  0.00    +0.000 A 
ATOM     12  C   UNL     1      99.214 128.494  83.365  0.00  0.00    +0.000 A 
ATOM     13  C   UNL     1      99.154 127.284  82.678  0.00  0.00    +0.000 A 
ATOM     14  C   UNL     1     100.331 126.622  82.322  0.00  0.00    +0.000 A 
ENDBRANCH   1   9
BRANCH   1  16
ATOM     15  C   UNL     1     104.308 125.928  84.278  0.00  0.00    +0.000 C 
ATOM     16  C   UNL     1     104.088 126.720  83.017  0.00  0.00    +0.000 C 
ATOM     17  O   UNL     1     104.895 127.565  82.630  0.00  0.00    +0.000 OA
ENDBRANCH   1  16
TORSDOF 3
ENDMDL
