REMARK  Name = *****
REMARK  3 active torsions:
REMARK  status: ('A' for Active; 'I' for Inactive)
REMARK    1  A    between atoms: C_4  and  C_8
REMARK    2  A    between atoms: C_8  and  S_10
REMARK    3  A    between atoms: S_10  and  C_11
REMARK                            x       y       z     vdW  Elec       q    Type
REMARK                         _______ _______ _______ _____ _____    ______ ____
ROOT
ATOM      1  C   UNL     1       0.714   1.585   2.127  0.00  0.00    +0.000 C 
ATOM      2  O   UNL     1       0.412   0.676   2.892  0.00  0.00    +0.000 OA
ENDROOT
BRANCH   1   6
ATOM      3  C   UNL     1       0.367  -1.434  -0.501  0.00  0.00    +0.000 C 
ATOM      4  C   UNL     1       1.544  -0.631   0.040  0.00  0.00    +0.000 C 
ATOM      5  C   UNL     1       1.430   0.872  -0.198  0.00  0.00    +0.000 C 
ATOM      6  C   UNL     1       0.379   1.624   0.630  0.00  0.00    +0.000 C 
ATOM      7  C   UNL     1      -1.062   1.245   0.394  0.00  0.00    +0.000 C 
ATOM      8  C   UNL     1      -1.601   0.026   0.250  0.00  0.00    +0.000 C 
ATOM      9  C   UNL     1      -0.910  -1.301   0.319  0.00  0.00    +0.000 C 
ENDBRANCH   1   6
BRANCH   1  10
ATOM     10  S   UNL     1       1.674   2.958   2.699  0.00  0.00    +0.000 S 
BRANCH  10  11
ATOM     11  C   UNL     1       0.408   3.896   3.530  0.00  0.00    +0.000 A 
ATOM     12  C   UNL     1      -0.305   3.360   4.608  0.00  0.00    +0.000 A 
ATOM     13  C   UNL     1      -1.283   4.119   5.254  0.00  0.00    +0.000 A 
ATOM     14  C   UNL     1      -1.550   5.420   4.831  0.00  0.00    +0.000 A 
ATOM     15  C   UNL     1      -0.837   5.964   3.764  0.00  0.00    +0.000 A 
ATOM     16  C   UNL     1       0.142   5.206   3.118  0.00  0.00    +0.000 A 
ENDBRANCH  10  11
ENDBRANCH   1  10
TORSDOF 3
