REMARK  Name = *****
REMARK  1 active torsions:
REMARK  status: ('A' for Active; 'I' for Inactive)
REMARK    1  A    between atoms: C_2  and  C_10
REMARK                            x       y       z     vdW  Elec       q    Type
REMARK                         _______ _______ _______ _____ _____    ______ ____
ROOT
ATOM      1  C   UNL     1      -1.284  -1.674  -0.324  0.00  0.00    +0.000 C 
ATOM      2  C   UNL     1      -2.587  -0.864  -0.129  0.00  0.00    +0.000 C 
ATOM      3  S   UNL     1      -2.157   0.902  -0.366  0.00  0.00    +0.000 S 
ATOM      4  C   UNL     1      -0.434   0.604  -0.106  0.00  0.00    +0.000 A 
ATOM      5  C   UNL     1       0.547   1.569   0.063  0.00  0.00    +0.000 A 
ATOM      6  C   UNL     1       1.866   1.158   0.267  0.00  0.00    +0.000 A 
ATOM      7  C   UNL     1       2.187  -0.205   0.295  0.00  0.00    +0.000 A 
ATOM      8  C   UNL     1       1.193  -1.170   0.119  0.00  0.00    +0.000 A 
ATOM      9  C   UNL     1      -0.121  -0.756  -0.072  0.00  0.00    +0.000 A 
ENDROOT
BRANCH   2  10
ATOM     10  C   UNL     1      -3.279  -1.094   1.205  0.00  0.00    +0.000 A 
ATOM     11  C   UNL     1      -2.591  -1.039   2.429  0.00  0.00    +0.000 A 
ATOM     12  C   UNL     1      -3.260  -1.256   3.635  0.00  0.00    +0.000 A 
ATOM     13  C   UNL     1      -4.626  -1.527   3.639  0.00  0.00    +0.000 A 
ATOM     14  C   UNL     1      -5.326  -1.576   2.437  0.00  0.00    +0.000 A 
ATOM     15  C   UNL     1      -4.659  -1.357   1.229  0.00  0.00    +0.000 A 
ENDBRANCH   2  10
TORSDOF 1
