MODEL 1
REMARK VINA RESULT:      -4.4      0.000      0.000
REMARK  Name = *****
REMARK  6 active torsions:
REMARK  status: ('A' for Active; 'I' for Inactive)
REMARK    1  A    between atoms: C_1  and  O_2
REMARK    2  A    between atoms: O_2  and  C_3
REMARK    3  A    between atoms: C_5  and  N_10
REMARK    4  A    between atoms: C_11  and  C_12
REMARK    5  A    between atoms: C_11  and  O_18
REMARK    6  A    between atoms: O_18  and  C_19
REMARK                            x       y       z     vdW  Elec       q    Type
REMARK                         _______ _______ _______ _____ _____    ______ ____
ROOT
ATOM      1  N   UNL     1      89.788  68.943  84.816  0.00  0.00    +0.000 NA
ATOM      2  C   UNL     1      89.745  68.583  86.060  0.00  0.00    +0.000 C 
ENDROOT
BRANCH   1   5
ATOM      3  C   UNL     1      88.953  72.439  83.941  0.00  0.00    +0.000 A 
ATOM      4  C   UNL     1      89.651  71.301  84.350  0.00  0.00    +0.000 A 
ATOM      5  C   UNL     1      89.026  70.045  84.379  0.00  0.00    +0.000 A 
ATOM      6  C   UNL     1      87.665  69.955  84.039  0.00  0.00    +0.000 A 
ATOM      7  C   UNL     1      86.964  71.089  83.626  0.00  0.00    +0.000 A 
ATOM      8  C   UNL     1      87.611  72.324  83.572  0.00  0.00    +0.000 A 
ATOM      9 CL   UNL     1      86.804  68.459  84.131  0.00  0.00    +0.000 Cl
BRANCH   3  11
ATOM     10  C   UNL     1      89.578  74.268  82.554  0.00  0.00    +0.000 C 
ATOM     11  O   UNL     1      89.461  73.707  83.856  0.00  0.00    +0.000 OA
ENDBRANCH   3  11
ENDBRANCH   1   5
BRANCH   2  12
ATOM     12  C   UNL     1      88.926  69.109  87.168  0.00  0.00    +0.000 A 
ATOM     13  C   UNL     1      89.311  70.278  87.831  0.00  0.00    +0.000 A 
ATOM     14  C   UNL     1      88.535  70.763  88.885  0.00  0.00    +0.000 A 
ATOM     15  C   UNL     1      87.377  70.083  89.268  0.00  0.00    +0.000 A 
ATOM     16  C   UNL     1      86.989  68.922  88.598  0.00  0.00    +0.000 A 
ATOM     17  C   UNL     1      87.761  68.434  87.544  0.00  0.00    +0.000 A 
ENDBRANCH   2  12
BRANCH   2  18
ATOM     18  O   UNL     1      90.490  67.560  86.556  0.00  0.00    +0.000 OA
ATOM     19  C   UNL     1      90.506  66.361  85.776  0.00  0.00    +0.000 C 
ENDBRANCH   2  18
TORSDOF 4
ENDMDL
