MODEL 1
REMARK VINA RESULT:      -4.0      0.000      0.000
REMARK  Name = *****
REMARK  6 active torsions:
REMARK  status: ('A' for Active; 'I' for Inactive)
REMARK    1  A    between atoms: C_1  and  O_2
REMARK    2  A    between atoms: O_2  and  C_3
REMARK    3  A    between atoms: C_3  and  C_13
REMARK    4  A    between atoms: C_4  and  C_5
REMARK    5  A    between atoms: C_4  and  O_11
REMARK    6  A    between atoms: O_11  and  C_12
REMARK                            x       y       z     vdW  Elec       q    Type
REMARK                         _______ _______ _______ _____ _____    ______ ____
ROOT
ATOM      1  C   UNL     1     103.090 125.958  83.508  0.00  0.00    +0.000 C 
ATOM      2  C   UNL     1     101.878 126.034  84.121  0.00  0.00    +0.000 C 
ENDROOT
BRANCH   2   3
ATOM      3  C   UNL     1     100.850 127.017  83.710  0.00  0.00    +0.000 A 
ATOM      4  C   UNL     1     100.922 128.337  84.179  0.00  0.00    +0.000 A 
ATOM      5  C   UNL     1      99.964 129.278  83.798  0.00  0.00    +0.000 A 
ATOM      6  C   UNL     1      98.929 128.910  82.939  0.00  0.00    +0.000 A 
ATOM      7  C   UNL     1      98.855 127.605  82.455  0.00  0.00    +0.000 A 
ATOM      8  C   UNL     1      99.814 126.663  82.833  0.00  0.00    +0.000 A 
ENDBRANCH   2   3
BRANCH   1   9
ATOM      9  C   UNL     1     103.511 126.867  82.412  0.00  0.00    +0.000 A 
ATOM     10  C   UNL     1     104.286 127.997  82.710  0.00  0.00    +0.000 A 
ATOM     11  C   UNL     1     104.706 128.856  81.693  0.00  0.00    +0.000 A 
ATOM     12  C   UNL     1     104.358 128.591  80.369  0.00  0.00    +0.000 A 
ATOM     13  C   UNL     1     103.595 127.466  80.060  0.00  0.00    +0.000 A 
ATOM     14  C   UNL     1     103.177 126.605  81.076  0.00  0.00    +0.000 A 
ENDBRANCH   1   9
BRANCH   1  16
ATOM     15  C   UNL     1     104.052 123.838  83.242  0.00  0.00    +0.000 C 
ATOM     16  O   UNL     1     104.080 125.085  83.937  0.00  0.00    +0.000 OA
ENDBRANCH   1  16
BRANCH   2  17
ATOM     17  O   UNL     1     101.401 125.263  85.161  0.00  0.00    +0.000 OA
ATOM     18  C   UNL     1     101.747 125.582  86.499  0.00  0.00    +0.000 C 
ENDBRANCH   2  17
TORSDOF 4
ENDMDL
