MODEL 1
REMARK VINA RESULT:      -4.4      0.000      0.000
REMARK  Name = *****
REMARK  2 active torsions:
REMARK  status: ('A' for Active; 'I' for Inactive)
REMARK    1  A    between atoms: C_5  and  C_7
REMARK    2  A    between atoms: N_8  and  C_9
REMARK                            x       y       z     vdW  Elec       q    Type
REMARK                         _______ _______ _______ _____ _____    ______ ____
ROOT
ATOM      1  C   UNL     1     102.290 126.445  81.899  0.00  0.00    +0.000 C 
ATOM      2  N   UNL     1     102.734 125.336  82.409  0.00  0.00    +0.000 NA
ENDROOT
BRANCH   1   7
ATOM      3  C   UNL     1      98.839 127.504  82.990  0.00  0.00    +0.000 A 
ATOM      4  C   UNL     1      99.112 128.645  83.742  0.00  0.00    +0.000 A 
ATOM      5  C   UNL     1     100.431 129.075  83.900  0.00  0.00    +0.000 A 
ATOM      6  C   UNL     1     101.483 128.368  83.305  0.00  0.00    +0.000 A 
ATOM      7  C   UNL     1     101.212 127.221  82.549  0.00  0.00    +0.000 A 
ATOM      8  C   UNL     1      99.884 126.794  82.395  0.00  0.00    +0.000 A 
ATOM      9 CL   UNL     1     103.082 128.973  83.562  0.00  0.00    +0.000 Cl
ENDBRANCH   1   7
BRANCH   2  10
ATOM     10  C   UNL     1     103.751 124.686  81.681  0.00  0.00    +0.000 A 
ATOM     11  C   UNL     1     104.047 125.152  80.394  0.00  0.00    +0.000 A 
ATOM     12  C   UNL     1     105.056 124.559  79.632  0.00  0.00    +0.000 A 
ATOM     13  C   UNL     1     105.791 123.497  80.154  0.00  0.00    +0.000 A 
ATOM     14  C   UNL     1     105.522 123.030  81.441  0.00  0.00    +0.000 A 
ATOM     15  C   UNL     1     104.511 123.624  82.204  0.00  0.00    +0.000 A 
ATOM     16 CL   UNL     1     104.225 123.009  83.795  0.00  0.00    +0.000 Cl
ENDBRANCH   2  10
TORSDOF 2
ENDMDL
