MODEL 1
REMARK VINA RESULT:      -4.4      0.000      0.000
REMARK  Name = *****
REMARK  3 active torsions:
REMARK  status: ('A' for Active; 'I' for Inactive)
REMARK    1  A    between atoms: C_2  and  C_3
REMARK    2  A    between atoms: C_2  and  S_9
REMARK    3  A    between atoms: S_9  and  C_11
REMARK                            x       y       z     vdW  Elec       q    Type
REMARK                         _______ _______ _______ _____ _____    ______ ____
ROOT
ATOM      1  C   UNL     1      88.594  70.639  88.952  0.00  0.00    +0.000 C 
ATOM      2  C   UNL     1      87.827  70.790  87.861  0.00  0.00    +0.000 C 
ENDROOT
BRANCH   2   3
ATOM      3  C   UNL     1      86.486  71.354  87.933  0.00  0.00    +0.000 C 
ATOM      4  C   UNL     1      85.933  71.712  89.107  0.00  0.00    +0.000 C 
ATOM      5  C   UNL     1      84.551  72.284  89.238  0.00  0.00    +0.000 C 
ATOM      6  C   UNL     1      83.720  72.152  87.962  0.00  0.00    +0.000 C 
ATOM      7  C   UNL     1      84.553  72.475  86.727  0.00  0.00    +0.000 C 
ATOM      8  C   UNL     1      85.762  71.540  86.619  0.00  0.00    +0.000 C 
ENDBRANCH   2   3
BRANCH   2   9
ATOM      9  S   UNL     1      88.478  70.306  86.249  0.00  0.00    +0.000 S 
ATOM     10  O   UNL     1      89.861  70.883  86.142  0.00  0.00    +0.000 OA
BRANCH   9  11
ATOM     11  C   UNL     1      88.703  68.531  86.528  0.00  0.00    +0.000 A 
ATOM     12  C   UNL     1      89.904  67.915  86.159  0.00  0.00    +0.000 A 
ATOM     13  C   UNL     1      90.084  66.547  86.368  0.00  0.00    +0.000 A 
ATOM     14  C   UNL     1      89.069  65.790  86.951  0.00  0.00    +0.000 A 
ATOM     15  C   UNL     1      87.873  66.400  87.328  0.00  0.00    +0.000 A 
ATOM     16  C   UNL     1      87.690  67.767  87.118  0.00  0.00    +0.000 A 
ENDBRANCH   9  11
ENDBRANCH   2   9
TORSDOF 3
ENDMDL
