MODEL 1
REMARK VINA RESULT:      -4.6      0.000      0.000
REMARK  Name = *****
REMARK  5 active torsions:
REMARK  status: ('A' for Active; 'I' for Inactive)
REMARK    1  A    between atoms: C_1  and  O_2
REMARK    2  A    between atoms: O_2  and  C_3
REMARK    3  A    between atoms: C_6  and  S_9
REMARK    4  A    between atoms: S_9  and  C_10
REMARK    5  A    between atoms: C_10  and  C_12
REMARK                            x       y       z     vdW  Elec       q    Type
REMARK                         _______ _______ _______ _____ _____    ______ ____
ROOT
ATOM      1  S   UNL     1     103.096 127.804  82.809  0.00  0.00    +0.000 S 
ENDROOT
BRANCH   1   5
ATOM      2  C   UNL     1      98.514 127.475  82.950  0.00  0.00    +0.000 A 
ATOM      3  C   UNL     1      99.151 128.556  83.558  0.00  0.00    +0.000 A 
ATOM      4  C   UNL     1     100.547 128.658  83.527  0.00  0.00    +0.000 A 
ATOM      5  C   UNL     1     101.322 127.676  82.905  0.00  0.00    +0.000 A 
ATOM      6  C   UNL     1     100.680 126.600  82.285  0.00  0.00    +0.000 A 
ATOM      7  C   UNL     1      99.285 126.502  82.312  0.00  0.00    +0.000 A 
BRANCH   2   9
ATOM      8  C   UNL     1      96.516 126.981  84.139  0.00  0.00    +0.000 C 
ATOM      9  O   UNL     1      97.165 127.257  82.904  0.00  0.00    +0.000 OA
ENDBRANCH   2   9
ENDBRANCH   1   5
BRANCH   1  10
ATOM     10  C   UNL     1     103.475 126.984  81.295  0.00  0.00    +0.000 C 
ATOM     11  O   UNL     1     103.344 127.527  80.203  0.00  0.00    +0.000 OA
BRANCH  10  12
ATOM     12  C   UNL     1     103.918 125.557  81.368  0.00  0.00    +0.000 A 
ATOM     13  C   UNL     1     104.375 124.826  80.261  0.00  0.00    +0.000 A 
ATOM     14  C   UNL     1     104.771 123.491  80.408  0.00  0.00    +0.000 A 
ATOM     15  C   UNL     1     104.709 122.878  81.659  0.00  0.00    +0.000 A 
ATOM     16  C   UNL     1     104.250 123.587  82.765  0.00  0.00    +0.000 A 
ATOM     17  C   UNL     1     103.853 124.919  82.619  0.00  0.00    +0.000 A 
ATOM     18 CL   UNL     1     105.200 121.240  81.834  0.00  0.00    +0.000 Cl
ENDBRANCH  10  12
ENDBRANCH   1  10
TORSDOF 4
ENDMDL
