MODEL 1
REMARK VINA RESULT:      -5.0      0.000      0.000
REMARK  Name = *****
REMARK  4 active torsions:
REMARK  status: ('A' for Active; 'I' for Inactive)
REMARK    1  A    between atoms: C_1  and  C_2
REMARK    2  A    between atoms: C_2  and  C_4
REMARK    3  A    between atoms: C_8  and  C_10
REMARK    4  A    between atoms: C_11  and  C_12
REMARK                            x       y       z     vdW  Elec       q    Type
REMARK                         _______ _______ _______ _____ _____    ______ ____
ROOT
ATOM      1  C   UNL     1     105.031 123.057  81.227  0.00  0.00    +0.000 A 
ATOM      2  C   UNL     1     105.859 123.270  80.120  0.00  0.00    +0.000 A 
ATOM      3  C   UNL     1     105.725 124.436  79.366  0.00  0.00    +0.000 A 
ATOM      4  C   UNL     1     104.763 125.389  79.707  0.00  0.00    +0.000 A 
ATOM      5  C   UNL     1     103.911 125.185  80.800  0.00  0.00    +0.000 A 
ATOM      6  C   UNL     1     104.066 124.019  81.563  0.00  0.00    +0.000 A 
ENDROOT
BRANCH   1   8
ATOM      7  C   UNL     1     104.495 120.558  81.606  0.00  0.00    +0.000 C 
ATOM      8  C   UNL     1     105.140 121.835  82.077  0.00  0.00    +0.000 C 
ATOM      9  O   UNL     1     105.753 121.880  83.143  0.00  0.00    +0.000 OA
ENDBRANCH   1   8
BRANCH   5  10
ATOM     10  C   UNL     1     102.901 126.173  81.213  0.00  0.00    +0.000 C 
ATOM     11  C   UNL     1     102.045 125.998  82.234  0.00  0.00    +0.000 C 
BRANCH  11  12
ATOM     12  C   UNL     1     101.049 126.994  82.663  0.00  0.00    +0.000 A 
ATOM     13  C   UNL     1     101.402 128.187  83.308  0.00  0.00    +0.000 A 
ATOM     14  C   UNL     1     100.423 129.118  83.669  0.00  0.00    +0.000 A 
ATOM     15  C   UNL     1      99.084 128.872  83.378  0.00  0.00    +0.000 A 
ATOM     16  C   UNL     1      98.721 127.699  82.722  0.00  0.00    +0.000 A 
ATOM     17  C   UNL     1      99.699 126.768  82.362  0.00  0.00    +0.000 A 
ENDBRANCH  11  12
ENDBRANCH   5  10
TORSDOF 3
ENDMDL
