MODEL 1
REMARK VINA RESULT:      -4.4      0.000      0.000
REMARK  Name = *****
REMARK  3 active torsions:
REMARK  status: ('A' for Active; 'I' for Inactive)
REMARK    1  A    between atoms: C_4  and  C_7
REMARK    2  A    between atoms: C_7  and  O_9
REMARK    3  A    between atoms: O_9  and  C_10
REMARK                            x       y       z     vdW  Elec       q    Type
REMARK                         _______ _______ _______ _____ _____    ______ ____
ROOT
ATOM      1  C   UNL     1     103.120 126.722  81.746  0.00  0.00    +0.000 C 
ATOM      2  O   UNL     1     103.119 127.493  80.798  0.00  0.00    +0.000 OA
ENDROOT
BRANCH   1   6
ATOM      3  C   UNL     1     104.780 122.766  81.675  0.00  0.00    +0.000 A 
ATOM      4  C   UNL     1     104.688 123.486  80.484  0.00  0.00    +0.000 A 
ATOM      5  C   UNL     1     104.152 124.777  80.484  0.00  0.00    +0.000 A 
ATOM      6  C   UNL     1     103.703 125.352  81.681  0.00  0.00    +0.000 A 
ATOM      7  C   UNL     1     103.805 124.623  82.875  0.00  0.00    +0.000 A 
ATOM      8  C   UNL     1     104.339 123.334  82.870  0.00  0.00    +0.000 A 
ENDBRANCH   1   6
BRANCH   1   9
ATOM      9  O   UNL     1     102.650 126.967  83.023  0.00  0.00    +0.000 OA
BRANCH   9  10
ATOM     10  C   UNL     1     101.324 127.397  83.021  0.00  0.00    +0.000 A 
ATOM     11  C   UNL     1     100.343 126.571  82.474  0.00  0.00    +0.000 A 
ATOM     12  C   UNL     1      99.021 127.021  82.436  0.00  0.00    +0.000 A 
ATOM     13  C   UNL     1      98.694 128.288  82.928  0.00  0.00    +0.000 A 
ATOM     14  C   UNL     1      99.688 129.115  83.457  0.00  0.00    +0.000 A 
ATOM     15  C   UNL     1     101.003 128.666  83.496  0.00  0.00    +0.000 A 
ATOM     16  F   UNL     1     101.960 129.468  83.984  0.00  0.00    +0.000 F 
ENDBRANCH   9  10
ENDBRANCH   1   9
TORSDOF 3
ENDMDL
