MODEL 1
REMARK VINA RESULT:      -4.1      0.000      0.000
REMARK  Name = *****
REMARK  2 active torsions:
REMARK  status: ('A' for Active; 'I' for Inactive)
REMARK    1  A    between atoms: C_4  and  C_6
REMARK    2  A    between atoms: C_6  and  C_7
REMARK                            x       y       z     vdW  Elec       q    Type
REMARK                         _______ _______ _______ _____ _____    ______ ____
ROOT
ATOM      1  C   UNL     1     102.489 125.588  82.156  0.00  0.00    +0.000 C 
ENDROOT
BRANCH   1   2
ATOM      2  C   UNL     1     102.154 126.931  82.741  0.00  0.00    +0.000 C 
ATOM      3  C   UNL     1     100.921 127.432  82.919  0.00  0.00    +0.000 C 
ATOM      4  C   UNL     1     100.655 128.791  83.513  0.00  0.00    +0.000 C 
ATOM      5  C   UNL     1      99.144 128.803  83.716  0.00  0.00    +0.000 C 
ATOM      6  C   UNL     1      98.620 127.916  82.598  0.00  0.00    +0.000 C 
ATOM      7  C   UNL     1      99.620 126.769  82.546  0.00  0.00    +0.000 C 
ENDBRANCH   1   2
BRANCH   1  11
ATOM      8  C   UNL     1     105.272 126.739  80.243  0.00  0.00    +0.000 C 
ATOM      9  C   UNL     1     105.230 125.351  79.632  0.00  0.00    +0.000 C 
ATOM     10  C   UNL     1     104.203 124.637  80.496  0.00  0.00    +0.000 C 
ATOM     11  C   UNL     1     103.119 125.695  80.761  0.00  0.00    +0.000 C 
ATOM     12  C   UNL     1     103.810 127.054  80.538  0.00  0.00    +0.000 C 
ENDBRANCH   1  11
TORSDOF 2
ENDMDL
