MODEL 1
REMARK VINA RESULT:      -4.4      0.000      0.000
REMARK  Name = *****
REMARK  3 active torsions:
REMARK  status: ('A' for Active; 'I' for Inactive)
REMARK    1  A    between atoms: C_2  and  C_3
REMARK    2  A    between atoms: C_7  and  C_8
REMARK    3  A    between atoms: C_9  and  C_10
REMARK                            x       y       z     vdW  Elec       q    Type
REMARK                         _______ _______ _______ _____ _____    ______ ____
ROOT
ATOM      1  C   UNL     1      86.448  62.007  88.833  0.00  0.00    +0.000 C 
ATOM      2  C   UNL     1      85.827  61.237  89.512  0.00  0.00    +0.000 C 
ENDROOT
BRANCH   2   3
ATOM      3  C   UNL     1      85.089  60.318  90.324  0.00  0.00    +0.000 A 
ATOM      4  C   UNL     1      83.731  60.536  90.569  0.00  0.00    +0.000 A 
ATOM      5  C   UNL     1      83.013  59.639  91.363  0.00  0.00    +0.000 A 
ATOM      6  C   UNL     1      83.651  58.526  91.911  0.00  0.00    +0.000 A 
ATOM      7  C   UNL     1      85.006  58.307  91.666  0.00  0.00    +0.000 A 
ATOM      8  C   UNL     1      85.726  59.203  90.872  0.00  0.00    +0.000 A 
ENDBRANCH   2   3
BRANCH   1  13
ATOM      9  C   UNL     1      88.255  63.766  88.477  0.00  0.00    +0.000 A 
ATOM     10  C   UNL     1      88.769  64.538  87.458  0.00  0.00    +0.000 A 
ATOM     11  S   UNL     1      87.977  64.253  85.967  0.00  0.00    +0.000 S 
ATOM     12  C   UNL     1      86.939  63.093  86.681  0.00  0.00    +0.000 A 
ATOM     13  C   UNL     1      87.192  62.926  88.025  0.00  0.00    +0.000 A 
BRANCH   9  15
ATOM     14  C   UNL     1      89.184  63.889  90.937  0.00  0.00    +0.000 C 
ATOM     15  C   UNL     1      88.761  63.833  89.815  0.00  0.00    +0.000 C 
ENDBRANCH   9  15
ENDBRANCH   1  13
TORSDOF 3
ENDMDL
