MODEL 1
REMARK VINA RESULT:      -4.5      0.000      0.000
REMARK  Name = *****
REMARK  2 active torsions:
REMARK  status: ('A' for Active; 'I' for Inactive)
REMARK    1  A    between atoms: C_4  and  C_7
REMARK    2  A    between atoms: C_7  and  N_8
REMARK                            x       y       z     vdW  Elec       q    Type
REMARK                         _______ _______ _______ _____ _____    ______ ____
ROOT
ATOM      1  N   UNL     1      87.126  69.415  88.267  0.00  0.00    +0.000 N 
ATOM      2  C   UNL     1      86.174  68.673  88.807  0.00  0.00    +0.000 C 
ATOM      3  S   UNL     1      86.402  67.016  88.471  0.00  0.00    +0.000 S 
ATOM      4  C   UNL     1      87.837  67.333  87.570  0.00  0.00    +0.000 A 
ATOM      5  C   UNL     1      88.090  68.707  87.561  0.00  0.00    +0.000 A 
ATOM      6  C   UNL     1      89.222  69.194  86.878  0.00  0.00    +0.000 A 
ATOM      7  C   UNL     1      90.066  68.285  86.222  0.00  0.00    +0.000 A 
ATOM      8  C   UNL     1      89.794  66.921  86.243  0.00  0.00    +0.000 A 
ATOM      9  C   UNL     1      88.679  66.418  86.915  0.00  0.00    +0.000 A 
ATOM     10 CL   UNL     1      90.848  65.834  85.430  0.00  0.00    +0.000 Cl
ENDROOT
BRANCH   1  11
ATOM     11  C   UNL     1      87.129  70.869  88.435  0.00  0.00    +0.000 C 
BRANCH  11  15
ATOM     12  C   UNL     1      84.125  72.592  85.861  0.00  0.00    +0.000 A 
ATOM     13  C   UNL     1      83.949  72.602  87.243  0.00  0.00    +0.000 A 
ATOM     14  C   UNL     1      84.924  72.053  88.076  0.00  0.00    +0.000 A 
ATOM     15  C   UNL     1      86.089  71.486  87.532  0.00  0.00    +0.000 A 
ATOM     16  C   UNL     1      86.257  71.488  86.139  0.00  0.00    +0.000 A 
ATOM     17  C   UNL     1      85.278  72.037  85.309  0.00  0.00    +0.000 A 
ENDBRANCH  11  15
ENDBRANCH   1  11
TORSDOF 2
ENDMDL
