MODEL 1
REMARK VINA RESULT:      -5.0      0.000      0.000
REMARK  Name = *****
REMARK  3 active torsions:
REMARK  status: ('A' for Active; 'I' for Inactive)
REMARK    1  A    between atoms: C_1  and  C_2
REMARK    2  A    between atoms: C_9  and  C_11
REMARK    3  A    between atoms: C_16  and  C_17
REMARK                            x       y       z     vdW  Elec       q    Type
REMARK                         _______ _______ _______ _____ _____    ______ ____
ROOT
ATOM      1  C   UNL     1     106.149 121.739  82.788  0.00  0.00    +0.000 C 
ATOM      2  C   UNL     1     105.263 122.841  82.281  0.00  0.00    +0.000 A 
ATOM      3  C   UNL     1     104.372 123.491  83.153  0.00  0.00    +0.000 A 
ATOM      4  C   UNL     1     103.592 124.495  82.592  0.00  0.00    +0.000 A 
ATOM      5  C   UNL     1     103.635 124.882  81.266  0.00  0.00    +0.000 A 
ATOM      6  C   UNL     1     104.522 124.233  80.400  0.00  0.00    +0.000 A 
ATOM      7  C   UNL     1     105.330 123.212  80.924  0.00  0.00    +0.000 A 
ATOM      8  N   UNL     1     102.738 125.895  81.048  0.00  0.00    +0.000 NA
ATOM      9  C   UNL     1     102.180 126.095  82.231  0.00  0.00    +0.000 A 
ATOM     10  O   UNL     1     102.662 125.267  83.221  0.00  0.00    +0.000 OA
ENDROOT
BRANCH   9  11
ATOM     11  C   UNL     1     101.139 127.053  82.635  0.00  0.00    +0.000 A 
ATOM     12  C   UNL     1      99.784 126.753  82.382  0.00  0.00    +0.000 A 
ATOM     13  C   UNL     1      98.760 127.628  82.749  0.00  0.00    +0.000 A 
ATOM     14  C   UNL     1      99.068 128.826  83.380  0.00  0.00    +0.000 A 
ATOM     15  C   UNL     1     100.398 129.149  83.642  0.00  0.00    +0.000 A 
ATOM     16  C   UNL     1     101.443 128.277  83.277  0.00  0.00    +0.000 A 
ATOM     17  C   UNL     1     102.855 128.697  83.593  0.00  0.00    +0.000 C 
ENDBRANCH   9  11
TORSDOF 1
ENDMDL
