MODEL 1
REMARK VINA RESULT:      -4.4      0.000      0.000
REMARK  Name = *****
REMARK  4 active torsions:
REMARK  status: ('A' for Active; 'I' for Inactive)
REMARK    1  A    between atoms: C_4  and  C_7
REMARK    2  A    between atoms: C_7  and  O_8
REMARK    3  A    between atoms: O_8  and  C_9
REMARK    4  A    between atoms: C_12  and  C_15
REMARK                            x       y       z     vdW  Elec       q    Type
REMARK                         _______ _______ _______ _____ _____    ______ ____
ROOT
ATOM      1  O   UNL     1     103.135 127.317  81.715  0.00  0.00    +0.000 OA
ENDROOT
BRANCH   1   2
ATOM      2  C   UNL     1     103.679 126.095  81.380  0.00  0.00    +0.000 A 
ATOM      3  N   UNL     1     104.192 125.897  80.148  0.00  0.00    +0.000 NA
ATOM      4  C   UNL     1     104.710 124.673  79.896  0.00  0.00    +0.000 A 
ATOM      5  C   UNL     1     104.723 123.624  80.809  0.00  0.00    +0.000 A 
ATOM      6  C   UNL     1     104.188 123.870  82.076  0.00  0.00    +0.000 A 
ATOM      7  C   UNL     1     103.655 125.123  82.367  0.00  0.00    +0.000 A 
BRANCH   5   8
ATOM      8  C   UNL     1     105.319 122.298  80.451  0.00  0.00    +0.000 C 
ATOM      9 CL   UNL     1     104.379 120.978  81.172  0.00  0.00    +0.000 Cl
ENDBRANCH   5   8
ENDBRANCH   1   2
BRANCH   1  10
ATOM     10  C   UNL     1     102.658 127.365  83.057  0.00  0.00    +0.000 C 
BRANCH  10  14
ATOM     11  C   UNL     1      98.408 128.106  82.952  0.00  0.00    +0.000 A 
ATOM     12  C   UNL     1      99.267 129.056  83.500  0.00  0.00    +0.000 A 
ATOM     13  C   UNL     1     100.642 128.820  83.534  0.00  0.00    +0.000 A 
ATOM     14  C   UNL     1     101.173 127.633  83.010  0.00  0.00    +0.000 A 
ATOM     15  C   UNL     1     100.297 126.678  82.472  0.00  0.00    +0.000 A 
ATOM     16  C   UNL     1      98.922 126.915  82.440  0.00  0.00    +0.000 A 
ENDBRANCH  10  14
ENDBRANCH   1  10
TORSDOF 4
ENDMDL
