MODEL 1
REMARK VINA RESULT:      -4.5      0.000      0.000
REMARK  Name = *****
REMARK  4 active torsions:
REMARK  status: ('A' for Active; 'I' for Inactive)
REMARK    1  A    between atoms: C_1  and  C_2
REMARK    2  A    between atoms: C_3  and  O_9
REMARK    3  A    between atoms: O_9  and  C_10
REMARK    4  A    between atoms: C_10  and  C_11
REMARK                            x       y       z     vdW  Elec       q    Type
REMARK                         _______ _______ _______ _____ _____    ______ ____
ROOT
ATOM      1  C   UNL     1     103.500 127.119  80.142  0.00  0.00    +0.000 C 
ATOM      2  C   UNL     1     103.821 125.928  81.003  0.00  0.00    +0.000 A 
ATOM      3  C   UNL     1     103.818 126.035  82.407  0.00  0.00    +0.000 A 
ATOM      4  C   UNL     1     104.117 124.911  83.186  0.00  0.00    +0.000 A 
ATOM      5  C   UNL     1     104.420 123.689  82.577  0.00  0.00    +0.000 A 
ATOM      6  C   UNL     1     104.426 123.588  81.189  0.00  0.00    +0.000 A 
ATOM      7  C   UNL     1     104.127 124.697  80.402  0.00  0.00    +0.000 A 
ATOM      8 CL   UNL     1     104.800 122.083  80.444  0.00  0.00    +0.000 Cl
ENDROOT
BRANCH   3   9
ATOM      9  O   UNL     1     103.505 127.272  82.904  0.00  0.00    +0.000 OA
BRANCH   9  10
ATOM     10  C   UNL     1     102.610 127.336  84.014  0.00  0.00    +0.000 C 
BRANCH  10  11
ATOM     11  C   UNL     1     101.208 127.616  83.521  0.00  0.00    +0.000 A 
ATOM     12  C   UNL     1     100.575 128.837  83.798  0.00  0.00    +0.000 A 
ATOM     13  C   UNL     1      99.266 129.072  83.373  0.00  0.00    +0.000 A 
ATOM     14  C   UNL     1      98.570 128.085  82.679  0.00  0.00    +0.000 A 
ATOM     15  C   UNL     1      99.182 126.862  82.410  0.00  0.00    +0.000 A 
ATOM     16  C   UNL     1     100.491 126.626  82.833  0.00  0.00    +0.000 A 
ENDBRANCH  10  11
ENDBRANCH   9  10
ENDBRANCH   3   9
TORSDOF 3
ENDMDL
