MODEL 1
REMARK VINA RESULT:      -4.7      0.000      0.000
REMARK  Name = *****
REMARK  5 active torsions:
REMARK  status: ('A' for Active; 'I' for Inactive)
REMARK    1  A    between atoms: C_1  and  C_2
REMARK    2  A    between atoms: C_5  and  C_8
REMARK    3  A    between atoms: N_10  and  C_11
REMARK    4  A    between atoms: N_10  and  C_12
REMARK    5  A    between atoms: C_15  and  C_18
REMARK                            x       y       z     vdW  Elec       q    Type
REMARK                         _______ _______ _______ _____ _____    ______ ____
ROOT
ATOM      1  C   UNL     1     100.629 127.370  82.981  0.00  0.00    +0.000 C 
ATOM      2  O   UNL     1      99.848 126.668  82.345  0.00  0.00    +0.000 OA
ATOM      3  N   UNL     1     102.038 127.308  82.977  0.00  0.00    +0.000 N 
ATOM      4  C   UNL     1     102.832 128.363  83.620  0.00  0.00    +0.000 C 
ENDROOT
BRANCH   1   9
ATOM      5  C   UNL     1      97.998 131.250  86.358  0.00  0.00    +0.000 C 
ATOM      6  C   UNL     1      98.711 130.248  85.498  0.00  0.00    +0.000 A 
ATOM      7  C   UNL     1      98.913 128.938  85.955  0.00  0.00    +0.000 A 
ATOM      8  C   UNL     1      99.542 127.994  85.142  0.00  0.00    +0.000 A 
ATOM      9  C   UNL     1      99.977 128.364  83.865  0.00  0.00    +0.000 A 
ATOM     10  C   UNL     1      99.745 129.653  83.382  0.00  0.00    +0.000 A 
ATOM     11  C   UNL     1      99.116 130.594  84.199  0.00  0.00    +0.000 A 
ENDBRANCH   1   9
BRANCH   3  12
ATOM     12  C   UNL     1     102.771 126.237  82.334  0.00  0.00    +0.000 A 
ATOM     13  C   UNL     1     103.061 126.228  80.963  0.00  0.00    +0.000 A 
ATOM     14  C   UNL     1     103.776 125.180  80.365  0.00  0.00    +0.000 A 
ATOM     15  C   UNL     1     104.234 124.103  81.123  0.00  0.00    +0.000 A 
ATOM     16  C   UNL     1     103.939 124.080  82.484  0.00  0.00    +0.000 A 
ATOM     17  C   UNL     1     103.225 125.130  83.077  0.00  0.00    +0.000 A 
ATOM     18  C   UNL     1     104.968 122.969  80.474  0.00  0.00    +0.000 C 
ENDBRANCH   3  12
TORSDOF 2
ENDMDL
