MODEL 1
REMARK VINA RESULT:      -4.6      0.000      0.000
REMARK  Name = *****
REMARK  4 active torsions:
REMARK  status: ('A' for Active; 'I' for Inactive)
REMARK    1  A    between atoms: C_4  and  C_7
REMARK    2  A    between atoms: C_7  and  C_8
REMARK    3  A    between atoms: C_7  and  C_15
REMARK    4  A    between atoms: C_8  and  C_9
REMARK                            x       y       z     vdW  Elec       q    Type
REMARK                         _______ _______ _______ _____ _____    ______ ____
ROOT
ATOM      1  C   UNL     1     100.432 127.532  82.955  0.00  0.00    +0.000 C 
ENDROOT
BRANCH   1   5
ATOM      2  C   UNL     1     100.866 131.609  84.641  0.00  0.00    +0.000 C 
ATOM      3  C   UNL     1      99.467 131.039  84.429  0.00  0.00    +0.000 C 
ATOM      4  C   UNL     1      99.478 129.856  83.461  0.00  0.00    +0.000 C 
ATOM      5  C   UNL     1     100.462 128.758  83.913  0.00  0.00    +0.000 C 
ATOM      6  C   UNL     1     101.868 129.359  84.107  0.00  0.00    +0.000 C 
ATOM      7  C   UNL     1     101.847 130.531  85.087  0.00  0.00    +0.000 C 
ENDBRANCH   1   5
BRANCH   1   8
ATOM      8  C   UNL     1      99.058 126.870  82.937  0.00  0.00    +0.000 C 
ATOM      9  O   UNL     1      98.252 126.957  82.015  0.00  0.00    +0.000 OA
ENDBRANCH   1   8
BRANCH   1  10
ATOM     10  C   UNL     1     101.510 126.474  83.265  0.00  0.00    +0.000 C 
BRANCH  10  11
ATOM     11  C   UNL     1     102.510 126.221  82.155  0.00  0.00    +0.000 A 
ATOM     12  C   UNL     1     102.816 127.206  81.206  0.00  0.00    +0.000 A 
ATOM     13  C   UNL     1     103.750 126.954  80.197  0.00  0.00    +0.000 A 
ATOM     14  C   UNL     1     104.400 125.723  80.138  0.00  0.00    +0.000 A 
ATOM     15  C   UNL     1     104.121 124.744  81.089  0.00  0.00    +0.000 A 
ATOM     16  C   UNL     1     103.183 124.992  82.092  0.00  0.00    +0.000 A 
ENDBRANCH  10  11
ENDBRANCH   1  10
TORSDOF 4
ENDMDL
