REMARK  Name = *****
REMARK  3 active torsions:
REMARK  status: ('A' for Active; 'I' for Inactive)
REMARK    1  A    between atoms: C_4  and  S_7
REMARK    2  A    between atoms: S_7  and  C_8
REMARK    3  A    between atoms: C_9  and  C_10
REMARK                            x       y       z     vdW  Elec       q    Type
REMARK                         _______ _______ _______ _____ _____    ______ ____
ROOT
ATOM      1  S   UNL     1      -3.210   0.602  -0.306  0.00  0.00    +0.000 S 
ENDROOT
BRANCH   1   5
ATOM      2  C   UNL     1       1.222  -0.417   0.243  0.00  0.00    +0.000 A 
ATOM      3  C   UNL     1       0.626  -0.554  -1.010  0.00  0.00    +0.000 A 
ATOM      4  C   UNL     1      -0.724  -0.242  -1.179  0.00  0.00    +0.000 A 
ATOM      5  C   UNL     1      -1.486   0.202  -0.093  0.00  0.00    +0.000 A 
ATOM      6  C   UNL     1      -0.881   0.344   1.159  0.00  0.00    +0.000 A 
ATOM      7  C   UNL     1       0.470   0.033   1.327  0.00  0.00    +0.000 A 
ENDBRANCH   1   5
BRANCH   1   8
ATOM      8  C   UNL     1      -3.888  -0.982  -0.089  0.00  0.00    +0.000 C 
ATOM      9  C   UNL     1      -5.209  -1.185  -0.201  0.00  0.00    +0.000 C 
BRANCH   9  10
ATOM     10  C   UNL     1      -5.808  -2.470  -0.033  0.00  0.00    +0.000 A 
ATOM     11  C   UNL     1      -5.253  -3.710   0.249  0.00  0.00    +0.000 A 
ATOM     12  C   UNL     1      -6.219  -4.756   0.334  0.00  0.00    +0.000 A 
ATOM     13  C   UNL     1      -7.494  -4.294   0.116  0.00  0.00    +0.000 A 
ATOM     14  S   UNL     1      -7.523  -2.616  -0.189  0.00  0.00    +0.000 S 
ENDBRANCH   9  10
ENDBRANCH   1   8
TORSDOF 3
