MODEL 1
REMARK VINA RESULT:      -3.2      0.000      0.000
REMARK  Name = *****
REMARK  3 active torsions:
REMARK  status: ('A' for Active; 'I' for Inactive)
REMARK    1  A    between atoms: C_5  and  S_6
REMARK    2  A    between atoms: S_6  and  S_7
REMARK    3  A    between atoms: S_7  and  C_8
REMARK                            x       y       z     vdW  Elec       q    Type
REMARK                         _______ _______ _______ _____ _____    ______ ____
ROOT
ATOM      1  S   UNL     1      95.481 117.422  82.715  0.00  0.00    +0.000 S 
ENDROOT
BRANCH   1   6
ATOM      2  C   UNL     1      96.448 119.873  81.519  0.00  0.00    +0.000 C 
ATOM      3  C   UNL     1      97.855 120.323  81.235  0.00  0.00    +0.000 C 
ATOM      4  C   UNL     1      98.721 119.379  81.630  0.00  0.00    +0.000 C 
ATOM      5  C   UNL     1      97.990 118.267  82.188  0.00  0.00    +0.000 C 
ATOM      6  C   UNL     1      96.671 118.517  82.141  0.00  0.00    +0.000 C 
ENDBRANCH   1   6
BRANCH   1   7
ATOM      7  S   UNL     1      94.560 116.801  80.989  0.00  0.00    +0.000 S 
BRANCH   7   8
ATOM      8  C   UNL     1      95.881 116.507  79.935  0.00  0.00    +0.000 C 
ATOM      9  C   UNL     1      96.727 115.471  80.080  0.00  0.00    +0.000 C 
ATOM     10  C   UNL     1      97.724 115.504  79.037  0.00  0.00    +0.000 C 
ATOM     11  C   UNL     1      97.499 116.559  78.243  0.00  0.00    +0.000 C 
ATOM     12  C   UNL     1      96.295 117.316  78.732  0.00  0.00    +0.000 C 
ENDBRANCH   7   8
ENDBRANCH   1   7
TORSDOF 3
ENDMDL
