REMARK  Name = *****
REMARK  4 active torsions:
REMARK  status: ('A' for Active; 'I' for Inactive)
REMARK    1  A    between atoms: C_1  and  C_2
REMARK    2  A    between atoms: C_7  and  C_8
REMARK    3  A    between atoms: C_8  and  O_10
REMARK    4  A    between atoms: O_10  and  C_11
REMARK                            x       y       z     vdW  Elec       q    Type
REMARK                         _______ _______ _______ _____ _____    ______ ____
ROOT
ATOM      1  C   UNL     1       1.117  -2.380   0.615  0.00  0.00    +0.000 C 
ATOM      2  O   UNL     1       0.613  -3.241   1.320  0.00  0.00    +0.000 OA
ENDROOT
BRANCH   1   9
ATOM      3  C   UNL     1       2.439   0.370   0.568  0.00  0.00    +0.000 C 
ATOM      4  C   UNL     1       1.007   0.132   0.179  0.00  0.00    +0.000 A 
ATOM      5  C   UNL     1       0.236   1.227  -0.248  0.00  0.00    +0.000 A 
ATOM      6  C   UNL     1      -1.107   1.068  -0.595  0.00  0.00    +0.000 A 
ATOM      7  C   UNL     1      -1.704  -0.187  -0.523  0.00  0.00    +0.000 A 
ATOM      8  C   UNL     1      -0.952  -1.289  -0.119  0.00  0.00    +0.000 A 
ATOM      9  C   UNL     1       0.404  -1.142   0.212  0.00  0.00    +0.000 A 
ENDBRANCH   1   9
BRANCH   1  10
ATOM     10  O   UNL     1       2.341  -2.415  -0.025  0.00  0.00    +0.000 OA
BRANCH  10  11
ATOM     11  C   UNL     1       3.169  -3.520   0.224  0.00  0.00    +0.000 A 
ATOM     12  C   UNL     1       3.725  -4.154  -0.887  0.00  0.00    +0.000 A 
ATOM     13  C   UNL     1       4.604  -5.220  -0.700  0.00  0.00    +0.000 A 
ATOM     14  C   UNL     1       4.932  -5.635   0.592  0.00  0.00    +0.000 A 
ATOM     15  C   UNL     1       4.388  -4.982   1.699  0.00  0.00    +0.000 A 
ATOM     16  C   UNL     1       3.510  -3.913   1.518  0.00  0.00    +0.000 A 
ENDBRANCH  10  11
ENDBRANCH   1  10
TORSDOF 3
