REMARK  Name = *****
REMARK  5 active torsions:
REMARK  status: ('A' for Active; 'I' for Inactive)
REMARK    1  A    between atoms: C_1  and  S_2
REMARK    2  A    between atoms: S_2  and  C_4
REMARK    3  A    between atoms: C_4  and  C_5
REMARK    4  A    between atoms: C_4  and  S_11
REMARK    5  A    between atoms: S_11  and  C_12
REMARK                            x       y       z     vdW  Elec       q    Type
REMARK                         _______ _______ _______ _____ _____    ______ ____
ROOT
ATOM      1  C   UNL     1       3.509   0.424  -1.402  0.00  0.00    +0.000 C 
ENDROOT
BRANCH   1   2
ATOM      2  C   UNL     1       2.996   1.790  -1.836  0.00  0.00    +0.000 A 
ATOM      3  C   UNL     1       2.920   2.886  -0.959  0.00  0.00    +0.000 A 
ATOM      4  C   UNL     1       2.450   4.125  -1.400  0.00  0.00    +0.000 A 
ATOM      5  C   UNL     1       2.055   4.292  -2.725  0.00  0.00    +0.000 A 
ATOM      6  C   UNL     1       2.134   3.222  -3.612  0.00  0.00    +0.000 A 
ATOM      7  C   UNL     1       2.604   1.983  -3.174  0.00  0.00    +0.000 A 
ENDBRANCH   1   2
BRANCH   1   9
ATOM      8  C   UNL     1       1.145  -0.251  -0.219  0.00  0.00    +0.000 C 
ATOM      9  S   UNL     1       2.891  -0.125   0.245  0.00  0.00    +0.000 S 
ATOM     10  O   UNL     1       3.378  -1.522   0.506  0.00  0.00    +0.000 OA
ENDBRANCH   1   9
BRANCH   1  11
ATOM     11  S   UNL     1       5.334   0.266  -1.613  0.00  0.00    +0.000 S 
BRANCH  11  12
ATOM     12  C   UNL     1       5.956   1.382  -0.374  0.00  0.00    +0.000 A 
ATOM     13  C   UNL     1       6.153   0.948   0.941  0.00  0.00    +0.000 A 
ATOM     14  C   UNL     1       6.657   1.824   1.904  0.00  0.00    +0.000 A 
ATOM     15  C   UNL     1       6.982   3.133   1.555  0.00  0.00    +0.000 A 
ATOM     16  C   UNL     1       6.813   3.565   0.240  0.00  0.00    +0.000 A 
ATOM     17  C   UNL     1       6.310   2.689  -0.723  0.00  0.00    +0.000 A 
ENDBRANCH  11  12
ENDBRANCH   1  11
TORSDOF 4
