MODEL 1
REMARK VINA RESULT:      -4.8      0.000      0.000
REMARK  Name = *****
REMARK  3 active torsions:
REMARK  status: ('A' for Active; 'I' for Inactive)
REMARK    1  A    between atoms: C_4  and  C_7
REMARK    2  A    between atoms: N_9  and  C_10
REMARK    3  A    between atoms: N_9  and  N_18
REMARK                            x       y       z     vdW  Elec       q    Type
REMARK                         _______ _______ _______ _____ _____    ______ ____
ROOT
ATOM      1  C   UNL     1      87.122  62.633  88.412  0.00  0.00    +0.000 C 
ATOM      2  O   UNL     1      86.638  61.497  88.436  0.00  0.00    +0.000 OA
ATOM      3  N   UNL     1      87.166  63.395  87.228  0.00  0.00    +0.000 N 
ENDROOT
BRANCH   3   4
ATOM      4  C   UNL     1      87.989  64.525  86.947  0.00  0.00    +0.000 A 
ATOM      5  C   UNL     1      87.633  65.855  87.250  0.00  0.00    +0.000 A 
ATOM      6  C   UNL     1      88.480  66.915  86.898  0.00  0.00    +0.000 A 
ATOM      7  C   UNL     1      89.699  66.665  86.268  0.00  0.00    +0.000 A 
ATOM      8  C   UNL     1      90.083  65.353  86.011  0.00  0.00    +0.000 A 
ATOM      9  C   UNL     1      89.245  64.292  86.357  0.00  0.00    +0.000 A 
ATOM     10 CL   UNL     1      91.594  65.039  85.255  0.00  0.00    +0.000 Cl
ATOM     11 CL   UNL     1      86.262  66.268  88.222  0.00  0.00    +0.000 Cl
ENDBRANCH   3   4
BRANCH   1  15
ATOM     12  C   UNL     1      88.211  64.461  92.126  0.00  0.00    +0.000 A 
ATOM     13  C   UNL     1      86.870  64.229  91.819  0.00  0.00    +0.000 A 
ATOM     14  C   UNL     1      86.527  63.630  90.607  0.00  0.00    +0.000 A 
ATOM     15  C   UNL     1      87.528  63.243  89.707  0.00  0.00    +0.000 A 
ATOM     16  C   UNL     1      88.870  63.511  90.004  0.00  0.00    +0.000 A 
ATOM     17  C   UNL     1      89.210  64.110  91.218  0.00  0.00    +0.000 A 
ENDBRANCH   1  15
BRANCH   3  18
ATOM     18  N   UNL     1      86.324  62.947  86.163  0.00  0.00    +0.000 NA
ATOM     19  H   UNL     1      85.396  62.733  86.530  0.00  0.00    +0.000 HD
ATOM     20  H   UNL     1      86.725  62.109  85.742  0.00  0.00    +0.000 HD
ENDBRANCH   3  18
TORSDOF 3
ENDMDL
