MODEL 1
REMARK VINA RESULT:      -5.0      0.000      0.000
REMARK  Name = *****
REMARK  2 active torsions:
REMARK  status: ('A' for Active; 'I' for Inactive)
REMARK    1  A    between atoms: C_5  and  C_6
REMARK    2  A    between atoms: C_6  and  C_7
REMARK                            x       y       z     vdW  Elec       q    Type
REMARK                         _______ _______ _______ _____ _____    ______ ____
ROOT
ATOM      1  C   UNL     1     100.689 126.992  82.754  0.00  0.00    +0.000 C 
ATOM      2  C   UNL     1      99.287 126.869  82.384  0.00  0.00    +0.000 C 
ATOM      3  C   UNL     1      98.613 127.968  82.761  0.00  0.00    +0.000 C 
ATOM      4  C   UNL     1      99.561 128.873  83.408  0.00  0.00    +0.000 A 
ATOM      5  C   UNL     1      99.337 130.124  83.958  0.00  0.00    +0.000 A 
ATOM      6  C   UNL     1     100.423 130.798  84.525  0.00  0.00    +0.000 A 
ATOM      7  C   UNL     1     101.704 130.220  84.532  0.00  0.00    +0.000 A 
ATOM      8  C   UNL     1     101.923 128.957  83.974  0.00  0.00    +0.000 A 
ATOM      9  C   UNL     1     100.843 128.294  83.417  0.00  0.00    +0.000 A 
ENDROOT
BRANCH   1  10
ATOM     10  C   UNL     1     101.675 126.103  82.564  0.00  0.00    +0.000 C 
BRANCH  10  15
ATOM     11  C   UNL     1     103.493 124.951  81.146  0.00  0.00    +0.000 C 
ATOM     12  C   UNL     1     104.476 125.539  80.175  0.00  0.00    +0.000 C 
ATOM     13  C   UNL     1     104.285 126.866  80.081  0.00  0.00    +0.000 C 
ATOM     14  C   UNL     1     103.205 127.254  80.954  0.00  0.00    +0.000 C 
ATOM     15  C   UNL     1     102.714 126.169  81.573  0.00  0.00    +0.000 C 
ENDBRANCH  10  15
ENDBRANCH   1  10
TORSDOF 2
ENDMDL
