REMARK  Name = *****
REMARK  3 active torsions:
REMARK  status: ('A' for Active; 'I' for Inactive)
REMARK    1  A    between atoms: C_4  and  S_7
REMARK    2  A    between atoms: S_7  and  C_8
REMARK    3  A    between atoms: C_8  and  C_9
REMARK                            x       y       z     vdW  Elec       q    Type
REMARK                         _______ _______ _______ _____ _____    ______ ____
ROOT
ATOM      1  C   UNL     1      -3.918  -0.870  -0.312  0.00  0.00    +0.000 C 
ENDROOT
BRANCH   1   2
ATOM      2  C   UNL     1      -5.411  -0.700  -0.452  0.00  0.00    +0.000 A 
ATOM      3  C   UNL     1      -6.036  -0.881  -1.696  0.00  0.00    +0.000 A 
ATOM      4  C   UNL     1      -7.416  -0.711  -1.827  0.00  0.00    +0.000 A 
ATOM      5  C   UNL     1      -8.179  -0.355  -0.717  0.00  0.00    +0.000 A 
ATOM      6  C   UNL     1      -7.573  -0.162   0.522  0.00  0.00    +0.000 A 
ATOM      7  C   UNL     1      -6.193  -0.331   0.654  0.00  0.00    +0.000 A 
ATOM      8 CL   UNL     1      -9.879  -0.146  -0.880  0.00  0.00    +0.000 Cl
ENDBRANCH   1   2
BRANCH   1   9
ATOM      9  S   UNL     1      -3.038   0.683  -0.681  0.00  0.00    +0.000 S 
BRANCH   9  13
ATOM     10  C   UNL     1       1.223  -0.469   0.554  0.00  0.00    +0.000 A 
ATOM     11  C   UNL     1       0.575  -1.198  -0.442  0.00  0.00    +0.000 A 
ATOM     12  C   UNL     1      -0.724  -0.856  -0.827  0.00  0.00    +0.000 A 
ATOM     13  C   UNL     1      -1.384   0.212  -0.211  0.00  0.00    +0.000 A 
ATOM     14  C   UNL     1      -0.722   0.948   0.776  0.00  0.00    +0.000 A 
ATOM     15  C   UNL     1       0.577   0.606   1.161  0.00  0.00    +0.000 A 
ENDBRANCH   9  13
ENDBRANCH   1   9
TORSDOF 3
