MODEL 1
REMARK VINA RESULT:      -4.3      0.000      0.000
REMARK  Name = *****
REMARK  2 active torsions:
REMARK  status: ('A' for Active; 'I' for Inactive)
REMARK    1  A    between atoms: C_6  and  C_7
REMARK    2  A    between atoms: C_7  and  C_8
REMARK                            x       y       z     vdW  Elec       q    Type
REMARK                         _______ _______ _______ _____ _____    ______ ____
ROOT
ATOM      1  C   UNL     1      89.296  69.204  86.902  0.00  0.00    +0.000 C 
ATOM      2  C   UNL     1      87.892  68.635  86.696  0.00  0.00    +0.000 C 
ATOM      3  C   UNL     1      87.266  68.110  87.987  0.00  0.00    +0.000 C 
ATOM      4  C   UNL     1      86.524  69.164  88.817  0.00  0.00    +0.000 C 
ATOM      5  C   UNL     1      87.200  70.508  88.943  0.00  0.00    +0.000 C 
ATOM      6  C   UNL     1      86.529  71.680  88.936  0.00  0.00    +0.000 C 
ATOM      7  C   UNL     1      88.707  70.509  89.047  0.00  0.00    +0.000 C 
ATOM      8  C   UNL     1      89.369  70.524  87.668  0.00  0.00    +0.000 C 
ENDROOT
BRANCH   6   9
ATOM      9  C   UNL     1      85.040  71.881  88.839  0.00  0.00    +0.000 C 
BRANCH   9  10
ATOM     10  C   UNL     1      84.535  72.242  87.458  0.00  0.00    +0.000 A 
ATOM     11  C   UNL     1      83.316  72.926  87.329  0.00  0.00    +0.000 A 
ATOM     12  C   UNL     1      82.836  73.301  86.071  0.00  0.00    +0.000 A 
ATOM     13  C   UNL     1      83.574  73.006  84.927  0.00  0.00    +0.000 A 
ATOM     14  C   UNL     1      84.793  72.343  85.039  0.00  0.00    +0.000 A 
ATOM     15  C   UNL     1      85.275  71.971  86.297  0.00  0.00    +0.000 A 
ENDBRANCH   9  10
ENDBRANCH   6   9
TORSDOF 2
ENDMDL
