MODEL 1
REMARK VINA RESULT:      -4.7      0.000      0.000
REMARK  Name = *****
REMARK  5 active torsions:
REMARK  status: ('A' for Active; 'I' for Inactive)
REMARK    1  A    between atoms: C_1  and  C_2
REMARK    2  A    between atoms: C_2  and  O_4
REMARK    3  A    between atoms: O_4  and  C_5
REMARK    4  A    between atoms: C_8  and  C_11
REMARK    5  A    between atoms: C_12  and  C_13
REMARK                            x       y       z     vdW  Elec       q    Type
REMARK                         _______ _______ _______ _____ _____    ______ ____
ROOT
ATOM      1  C   UNL     1      83.368  58.773  91.417  0.00  0.00    +0.000 A 
ATOM      2  C   UNL     1      84.745  58.565  91.399  0.00  0.00    +0.000 A 
ATOM      3  C   UNL     1      85.581  59.558  90.882  0.00  0.00    +0.000 A 
ATOM      4  C   UNL     1      85.042  60.744  90.358  0.00  0.00    +0.000 A 
ATOM      5  C   UNL     1      83.651  60.928  90.382  0.00  0.00    +0.000 A 
ATOM      6  C   UNL     1      82.812  59.939  90.898  0.00  0.00    +0.000 A 
ENDROOT
BRANCH   4   7
ATOM      7  C   UNL     1      85.891  61.823  89.834  0.00  0.00    +0.000 C 
ATOM      8  C   UNL     1      86.382  61.844  88.585  0.00  0.00    +0.000 C 
BRANCH   8   9
ATOM      9  C   UNL     1      87.217  62.931  88.053  0.00  0.00    +0.000 A 
ATOM     10  C   UNL     1      87.443  63.095  86.678  0.00  0.00    +0.000 A 
ATOM     11  C   UNL     1      88.217  64.160  86.210  0.00  0.00    +0.000 A 
ATOM     12  C   UNL     1      88.755  65.067  87.113  0.00  0.00    +0.000 A 
ATOM     13  C   UNL     1      88.530  64.932  88.478  0.00  0.00    +0.000 A 
ATOM     14  C   UNL     1      87.756  63.868  88.947  0.00  0.00    +0.000 A 
ATOM     15  F   UNL     1      89.495  66.088  86.664  0.00  0.00    +0.000 F 
ENDBRANCH   8   9
ENDBRANCH   4   7
BRANCH   1  16
ATOM     16  O   UNL     1      82.494  57.781  91.873  0.00  0.00    +0.000 OA
BRANCH  16  18
ATOM     17  C   UNL     1      82.709  55.487  92.326  0.00  0.00    +0.000 C 
ATOM     18  C   UNL     1      82.629  56.540  91.261  0.00  0.00    +0.000 C 
ATOM     19  O   UNL     1      82.689  56.309  90.062  0.00  0.00    +0.000 OA
ENDBRANCH  16  18
ENDBRANCH   1  16
TORSDOF 4
ENDMDL
