MODEL 1
REMARK VINA RESULT:      -4.5      0.000      0.000
REMARK  Name = *****
REMARK  5 active torsions:
REMARK  status: ('A' for Active; 'I' for Inactive)
REMARK    1  A    between atoms: C_1  and  C_2
REMARK    2  A    between atoms: C_2  and  C_3
REMARK    3  A    between atoms: C_2  and  O_8
REMARK    4  A    between atoms: O_8  and  C_9
REMARK    5  A    between atoms: C_9  and  C_11
REMARK                            x       y       z     vdW  Elec       q    Type
REMARK                         _______ _______ _______ _____ _____    ______ ____
ROOT
ATOM      1  C   UNL     1     104.615 124.347  80.288  0.00  0.00    +0.000 C 
ATOM      2  O   UNL     1     105.479 124.506  79.442  0.00  0.00    +0.000 OA
ENDROOT
BRANCH   1   3
ATOM      3  C   UNL     1     104.587 123.185  81.218  0.00  0.00    +0.000 A 
ATOM      4  C   UNL     1     104.644 121.895  80.667  0.00  0.00    +0.000 A 
ATOM      5  C   UNL     1     104.598 120.771  81.496  0.00  0.00    +0.000 A 
ATOM      6  C   UNL     1     104.493 120.939  82.872  0.00  0.00    +0.000 A 
ATOM      7  C   UNL     1     104.437 122.210  83.436  0.00  0.00    +0.000 A 
ATOM      8  C   UNL     1     104.484 123.336  82.610  0.00  0.00    +0.000 A 
ATOM      9  F   UNL     1     104.444 119.863  83.666  0.00  0.00    +0.000 F 
ENDBRANCH   1   3
BRANCH   1  10
ATOM     10  O   UNL     1     103.557 125.162  80.519  0.00  0.00    +0.000 OA
BRANCH  10  12
ATOM     11  C   UNL     1     103.610 127.493  80.052  0.00  0.00    +0.000 C 
ATOM     12  C   UNL     1     103.834 126.437  81.132  0.00  0.00    +0.000 C 
BRANCH  12  13
ATOM     13  C   UNL     1     102.931 126.677  82.351  0.00  0.00    +0.000 C 
ATOM     14  C   UNL     1     101.513 126.122  82.200  0.00  0.00    +0.000 C 
ATOM     15  C   UNL     1     100.756 126.755  83.361  0.00  0.00    +0.000 C 
ATOM     16  C   UNL     1     101.441 128.097  83.619  0.00  0.00    +0.000 C 
ATOM     17  C   UNL     1     102.651 128.143  82.687  0.00  0.00    +0.000 C 
ENDBRANCH  12  13
ENDBRANCH  10  12
ENDBRANCH   1  10
TORSDOF 4
ENDMDL
