MODEL 1
REMARK VINA RESULT:      -4.2      0.000      0.000
REMARK  Name = *****
REMARK  3 active torsions:
REMARK  status: ('A' for Active; 'I' for Inactive)
REMARK    1  A    between atoms: C_4  and  S_7
REMARK    2  A    between atoms: S_7  and  C_8
REMARK    3  A    between atoms: C_8  and  C_9
REMARK                            x       y       z     vdW  Elec       q    Type
REMARK                         _______ _______ _______ _____ _____    ______ ____
ROOT
ATOM      1  C   UNL     1     102.680 127.274  83.272  0.00  0.00    +0.000 C 
ENDROOT
BRANCH   1   2
ATOM      2  C   UNL     1     101.214 127.618  83.172  0.00  0.00    +0.000 A 
ATOM      3  C   UNL     1     100.357 126.723  82.501  0.00  0.00    +0.000 A 
ATOM      4  C   UNL     1      98.994 126.993  82.366  0.00  0.00    +0.000 A 
ATOM      5  C   UNL     1      98.462 128.165  82.893  0.00  0.00    +0.000 A 
ATOM      6  C   UNL     1      99.294 129.069  83.550  0.00  0.00    +0.000 A 
ATOM      7  C   UNL     1     100.661 128.804  83.688  0.00  0.00    +0.000 A 
ATOM      8 BR   UNL     1     101.708 130.109  84.589  0.00  0.00    +0.000 Br
ENDBRANCH   1   2
BRANCH   1   9
ATOM      9  S   UNL     1     102.935 125.661  84.085  0.00  0.00    +0.000 S 
BRANCH   9  13
ATOM     10  C   UNL     1     104.781 123.346  80.591  0.00  0.00    +0.000 A 
ATOM     11  C   UNL     1     104.198 124.591  80.364  0.00  0.00    +0.000 A 
ATOM     12  C   UNL     1     103.634 125.303  81.424  0.00  0.00    +0.000 A 
ATOM     13  C   UNL     1     103.645 124.768  82.717  0.00  0.00    +0.000 A 
ATOM     14  C   UNL     1     104.241 123.524  82.940  0.00  0.00    +0.000 A 
ATOM     15  C   UNL     1     104.805 122.813  81.878  0.00  0.00    +0.000 A 
ENDBRANCH   9  13
ENDBRANCH   1   9
TORSDOF 3
ENDMDL
