MODEL 1
REMARK VINA RESULT:      -4.3      0.000      0.000
REMARK  Name = *****
REMARK  5 active torsions:
REMARK  status: ('A' for Active; 'I' for Inactive)
REMARK    1  A    between atoms: C_4  and  O_7
REMARK    2  A    between atoms: O_7  and  P_8
REMARK    3  A    between atoms: P_8  and  C_9
REMARK    4  A    between atoms: P_8  and  O_11
REMARK    5  A    between atoms: O_11  and  C_12
REMARK                            x       y       z     vdW  Elec       q    Type
REMARK                         _______ _______ _______ _____ _____    ______ ____
ROOT
ATOM      1  P   UNL     1      89.118  69.364  86.352  0.00  0.00    +0.000 P 
ENDROOT
BRANCH   1   2
ATOM      2  C   UNL     1      89.990  70.607  85.330  0.00  0.00    +0.000 C 
ATOM      3 CL   UNL     1      90.353  69.841  83.772  0.00  0.00    +0.000 Cl
ENDBRANCH   1   2
BRANCH   1   4
ATOM      4  O   UNL     1      89.323  70.044  87.806  0.00  0.00    +0.000 OA
BRANCH   4   8
ATOM      5  C   UNL     1      86.230  71.939  89.852  0.00  0.00    +0.000 A 
ATOM      6  C   UNL     1      87.446  71.752  90.509  0.00  0.00    +0.000 A 
ATOM      7  C   UNL     1      88.507  71.120  89.854  0.00  0.00    +0.000 A 
ATOM      8  C   UNL     1      88.348  70.668  88.543  0.00  0.00    +0.000 A 
ATOM      9  C   UNL     1      87.133  70.873  87.884  0.00  0.00    +0.000 A 
ATOM     10  C   UNL     1      86.074  71.503  88.538  0.00  0.00    +0.000 A 
ENDBRANCH   4   8
ENDBRANCH   1   4
BRANCH   1  11
ATOM     11  O   UNL     1      90.282  68.248  86.455  0.00  0.00    +0.000 OA
BRANCH  11  12
ATOM     12  C   UNL     1      90.144  66.898  86.257  0.00  0.00    +0.000 A 
ATOM     13  C   UNL     1      91.017  66.095  85.518  0.00  0.00    +0.000 A 
ATOM     14  C   UNL     1      90.773  64.724  85.394  0.00  0.00    +0.000 A 
ATOM     15  C   UNL     1      89.660  64.151  86.008  0.00  0.00    +0.000 A 
ATOM     16  C   UNL     1      88.788  64.947  86.748  0.00  0.00    +0.000 A 
ATOM     17  C   UNL     1      89.032  66.316  86.873  0.00  0.00    +0.000 A 
ENDBRANCH  11  12
ENDBRANCH   1  11
TORSDOF 5
ENDMDL
