REMARK  Name = *****
REMARK  2 active torsions:
REMARK  status: ('A' for Active; 'I' for Inactive)
REMARK    1  A    between atoms: C_2  and  C_11
REMARK    2  A    between atoms: C_3  and  C_4
REMARK                            x       y       z     vdW  Elec       q    Type
REMARK                         _______ _______ _______ _____ _____    ______ ____
ROOT
ATOM      1  C   UNL     1       0.037   0.916  -0.011  0.00  0.00    +0.000 C 
ATOM      2  C   UNL     1       0.797  -0.386  -0.032  0.00  0.00    +0.000 C 
ATOM      3  C   UNL     1      -0.726  -0.383  -0.050  0.00  0.00    +0.000 C 
ENDROOT
BRANCH   3   4
ATOM      4  C   UNL     1      -1.458  -0.795  -1.306  0.00  0.00    +0.000 A 
ATOM      5  C   UNL     1      -1.242  -2.055  -1.895  0.00  0.00    +0.000 A 
ATOM      6  C   UNL     1      -1.924  -2.443  -3.051  0.00  0.00    +0.000 A 
ATOM      7  C   UNL     1      -2.838  -1.574  -3.629  0.00  0.00    +0.000 A 
ATOM      8  C   UNL     1      -3.086  -0.328  -3.070  0.00  0.00    +0.000 A 
ATOM      9  C   UNL     1      -2.402   0.054  -1.913  0.00  0.00    +0.000 A 
ATOM     10  F   UNL     1      -3.493  -1.943  -4.738  0.00  0.00    +0.000 F 
ENDBRANCH   3   4
BRANCH   2  11
ATOM     11  C   UNL     1       1.542  -0.839   1.201  0.00  0.00    +0.000 A 
ATOM     12  C   UNL     1       1.275  -2.076   1.810  0.00  0.00    +0.000 A 
ATOM     13  C   UNL     1       1.979  -2.500   2.940  0.00  0.00    +0.000 A 
ATOM     14  C   UNL     1       2.977  -1.694   3.482  0.00  0.00    +0.000 A 
ATOM     15  C   UNL     1       3.270  -0.468   2.892  0.00  0.00    +0.000 A 
ATOM     16  C   UNL     1       2.560  -0.050   1.763  0.00  0.00    +0.000 A 
ENDBRANCH   2  11
TORSDOF 2
