MODEL 1
REMARK VINA RESULT:      -4.0      0.000      0.000
REMARK  Name = *****
REMARK  4 active torsions:
REMARK  status: ('A' for Active; 'I' for Inactive)
REMARK    1  A    between atoms: C_4  and  C_7
REMARK    2  A    between atoms: C_7  and  C_8
REMARK    3  A    between atoms: C_8  and  C_9
REMARK    4  A    between atoms: C_9  and  C_11
REMARK                            x       y       z     vdW  Elec       q    Type
REMARK                         _______ _______ _______ _____ _____    ______ ____
ROOT
ATOM      1  C   UNL     1      86.051  65.055  86.770  0.00  0.00    +0.000 C 
ATOM      2 CL   UNL     1      86.031  65.875  85.177  0.00  0.00    +0.000 Cl
ENDROOT
BRANCH   1   3
ATOM      3  C   UNL     1      86.017  63.512  86.666  0.00  0.00    +0.000 C 
ATOM      4 CL   UNL     1      87.651  62.892  86.188  0.00  0.00    +0.000 Cl
BRANCH   3   8
ATOM      5  C   UNL     1      84.466  61.346  90.098  0.00  0.00    +0.000 A 
ATOM      6  C   UNL     1      83.671  62.262  89.417  0.00  0.00    +0.000 A 
ATOM      7  C   UNL     1      84.181  62.949  88.314  0.00  0.00    +0.000 A 
ATOM      8  C   UNL     1      85.499  62.736  87.870  0.00  0.00    +0.000 A 
ATOM      9  C   UNL     1      86.284  61.805  88.573  0.00  0.00    +0.000 A 
ATOM     10  C   UNL     1      85.772  61.118  89.676  0.00  0.00    +0.000 A 
ENDBRANCH   3   8
ENDBRANCH   1   3
BRANCH   1  11
ATOM     11  C   UNL     1      87.232  65.547  87.600  0.00  0.00    +0.000 C 
ATOM     12  O   UNL     1      88.141  66.225  87.120  0.00  0.00    +0.000 OA
BRANCH  11  13
ATOM     13  C   UNL     1      87.386  65.114  89.021  0.00  0.00    +0.000 A 
ATOM     14  C   UNL     1      86.429  65.403  90.001  0.00  0.00    +0.000 A 
ATOM     15  C   UNL     1      86.615  64.957  91.312  0.00  0.00    +0.000 A 
ATOM     16  C   UNL     1      87.748  64.216  91.647  0.00  0.00    +0.000 A 
ATOM     17  C   UNL     1      88.697  63.913  90.672  0.00  0.00    +0.000 A 
ATOM     18  C   UNL     1      88.515  64.357  89.361  0.00  0.00    +0.000 A 
ENDBRANCH  11  13
ENDBRANCH   1  11
TORSDOF 4
ENDMDL
