MODEL 1
REMARK VINA RESULT:      -4.4      0.000      0.000
REMARK  Name = *****
REMARK  6 active torsions:
REMARK  status: ('A' for Active; 'I' for Inactive)
REMARK    1  A    between atoms: N_2  and  C_3
REMARK    2  A    between atoms: C_3  and  C_4
REMARK    3  A    between atoms: C_4  and  C_5
REMARK    4  A    between atoms: C_8  and  O_11
REMARK    5  A    between atoms: O_11  and  C_12
REMARK    6  A    between atoms: C_12  and  C_13
REMARK                            x       y       z     vdW  Elec       q    Type
REMARK                         _______ _______ _______ _____ _____    ______ ____
ROOT
ATOM      1  C   UNL     1      88.914  65.831  86.961  0.00  0.00    +0.000 A 
ATOM      2  C   UNL     1      87.799  66.460  87.523  0.00  0.00    +0.000 A 
ATOM      3  C   UNL     1      87.701  67.853  87.520  0.00  0.00    +0.000 A 
ATOM      4  C   UNL     1      88.712  68.638  86.962  0.00  0.00    +0.000 A 
ATOM      5  C   UNL     1      89.808  68.015  86.368  0.00  0.00    +0.000 A 
ATOM      6  C   UNL     1      89.910  66.620  86.371  0.00  0.00    +0.000 A 
ENDROOT
BRANCH   1   7
ATOM      7  C   UNL     1      89.033  64.328  86.970  0.00  0.00    +0.000 C 
BRANCH   7   8
ATOM      8  C   UNL     1      87.748  63.650  86.510  0.00  0.00    +0.000 C 
BRANCH   8  10
ATOM      9  C   UNL     1      86.802  62.142  88.409  0.00  0.00    +0.000 C 
ATOM     10  N   UNL     1      87.230  62.821  87.556  0.00  0.00    +0.000 NA
ENDBRANCH   8  10
ENDBRANCH   7   8
ENDBRANCH   1   7
BRANCH   4  11
ATOM     11  O   UNL     1      88.507  69.986  87.055  0.00  0.00    +0.000 OA
BRANCH  11  12
ATOM     12  C   UNL     1      87.851  70.610  85.953  0.00  0.00    +0.000 C 
BRANCH  12  13
ATOM     13  C   UNL     1      86.594  71.271  86.463  0.00  0.00    +0.000 A 
ATOM     14  C   UNL     1      86.335  71.346  87.839  0.00  0.00    +0.000 A 
ATOM     15  C   UNL     1      85.167  71.947  88.309  0.00  0.00    +0.000 A 
ATOM     16  C   UNL     1      84.243  72.475  87.410  0.00  0.00    +0.000 A 
ATOM     17  C   UNL     1      84.483  72.397  86.039  0.00  0.00    +0.000 A 
ATOM     18  C   UNL     1      85.652  71.796  85.567  0.00  0.00    +0.000 A 
ENDBRANCH  12  13
ENDBRANCH  11  12
ENDBRANCH   4  11
TORSDOF 6
ENDMDL
