MODEL 1
REMARK VINA RESULT:      -4.9      0.000      0.000
REMARK  Name = *****
REMARK  4 active torsions:
REMARK  status: ('A' for Active; 'I' for Inactive)
REMARK    1  A    between atoms: C_4  and  C_7
REMARK    2  A    between atoms: C_7  and  C_8
REMARK    3  A    between atoms: C_8  and  O_10
REMARK    4  A    between atoms: O_10  and  C_11
REMARK                            x       y       z     vdW  Elec       q    Type
REMARK                         _______ _______ _______ _____ _____    ______ ____
ROOT
ATOM      1  C   UNL     1     102.837 125.332  83.256  0.00  0.00    +0.000 C 
ATOM      2  O   UNL     1     102.433 125.083  84.383  0.00  0.00    +0.000 OA
ENDROOT
BRANCH   1   3
ATOM      3  C   UNL     1     102.041 125.962  82.132  0.00  0.00    +0.000 C 
BRANCH   3   7
ATOM      4  C   UNL     1      99.146 128.888  83.424  0.00  0.00    +0.000 A 
ATOM      5  C   UNL     1      98.724 127.725  82.784  0.00  0.00    +0.000 A 
ATOM      6  C   UNL     1      99.659 126.776  82.366  0.00  0.00    +0.000 A 
ATOM      7  C   UNL     1     101.028 126.982  82.589  0.00  0.00    +0.000 A 
ATOM      8  C   UNL     1     101.442 128.161  83.226  0.00  0.00    +0.000 A 
ATOM      9  C   UNL     1     100.504 129.106  83.643  0.00  0.00    +0.000 A 
ENDBRANCH   3   7
ENDBRANCH   1   3
BRANCH   1  10
ATOM     10  O   UNL     1     104.142 125.138  82.798  0.00  0.00    +0.000 OA
BRANCH  10  11
ATOM     11  C   UNL     1     104.352 123.840  82.324  0.00  0.00    +0.000 A 
ATOM     12  C   UNL     1     104.592 123.603  80.967  0.00  0.00    +0.000 A 
ATOM     13  C   UNL     1     104.828 122.299  80.529  0.00  0.00    +0.000 A 
ATOM     14  C   UNL     1     104.837 121.247  81.449  0.00  0.00    +0.000 A 
ATOM     15  C   UNL     1     104.615 121.501  82.804  0.00  0.00    +0.000 A 
ATOM     16  C   UNL     1     104.378 122.798  83.254  0.00  0.00    +0.000 A 
ATOM     17 CL   UNL     1     104.642 120.200  83.930  0.00  0.00    +0.000 Cl
ATOM     18 CL   UNL     1     104.621 124.890  79.820  0.00  0.00    +0.000 Cl
ENDBRANCH  10  11
ENDBRANCH   1  10
TORSDOF 4
ENDMDL
