REMARK  Name = *****
REMARK  3 active torsions:
REMARK  status: ('A' for Active; 'I' for Inactive)
REMARK    1  A    between atoms: C_1  and  C_2
REMARK    2  A    between atoms: C_5  and  C_8
REMARK    3  A    between atoms: C_10  and  C_11
REMARK                            x       y       z     vdW  Elec       q    Type
REMARK                         _______ _______ _______ _____ _____    ______ ____
ROOT
ATOM      1  C   UNL     1      -3.214   0.380  -0.033  0.00  0.00    +0.000 C 
ATOM      2  C   UNL     1      -3.980   1.265  -0.982  0.00  0.00    +0.000 C 
ATOM      3  C   UNL     1      -3.727   1.739   0.426  0.00  0.00    +0.000 C 
ENDROOT
BRANCH   1   8
ATOM      4  C   UNL     1       2.528  -0.484  -0.744  0.00  0.00    +0.000 C 
ATOM      5  C   UNL     1       1.054  -0.288  -0.554  0.00  0.00    +0.000 A 
ATOM      6  C   UNL     1       0.551   0.186   0.661  0.00  0.00    +0.000 A 
ATOM      7  C   UNL     1      -0.822   0.399   0.824  0.00  0.00    +0.000 A 
ATOM      8  C   UNL     1      -1.730   0.165  -0.220  0.00  0.00    +0.000 A 
ATOM      9  C   UNL     1      -1.207  -0.305  -1.434  0.00  0.00    +0.000 A 
ATOM     10  C   UNL     1       0.164  -0.521  -1.606  0.00  0.00    +0.000 A 
ENDBRANCH   1   8
BRANCH   3  11
ATOM     11  C   UNL     1      -4.861   1.814   1.420  0.00  0.00    +0.000 A 
ATOM     12  C   UNL     1      -4.780   1.175   2.669  0.00  0.00    +0.000 A 
ATOM     13  C   UNL     1      -5.821   1.256   3.599  0.00  0.00    +0.000 A 
ATOM     14  C   UNL     1      -6.963   1.989   3.294  0.00  0.00    +0.000 A 
ATOM     15  C   UNL     1      -7.070   2.641   2.070  0.00  0.00    +0.000 A 
ATOM     16  C   UNL     1      -6.024   2.555   1.145  0.00  0.00    +0.000 A 
ATOM     17 CL   UNL     1      -8.246   2.092   4.435  0.00  0.00    +0.000 Cl
ENDBRANCH   3  11
TORSDOF 2
