MODEL 1
REMARK VINA RESULT:      -4.7      0.000      0.000
REMARK  Name = *****
REMARK  3 active torsions:
REMARK  status: ('A' for Active; 'I' for Inactive)
REMARK    1  A    between atoms: C_4  and  C_7
REMARK    2  A    between atoms: C_8  and  C_9
REMARK    3  A    between atoms: C_12  and  C_15
REMARK                            x       y       z     vdW  Elec       q    Type
REMARK                         _______ _______ _______ _____ _____    ______ ____
ROOT
ATOM      1  C   UNL     1     101.985 125.939  82.656  0.00  0.00    +0.000 C 
ATOM      2  C   UNL     1     102.722 125.851  81.538  0.00  0.00    +0.000 C 
ENDROOT
BRANCH   1   6
ATOM      3  C   UNL     1      99.070 129.008  83.274  0.00  0.00    +0.000 A 
ATOM      4  C   UNL     1      98.693 127.818  82.655  0.00  0.00    +0.000 A 
ATOM      5  C   UNL     1      99.633 126.805  82.453  0.00  0.00    +0.000 A 
ATOM      6  C   UNL     1     100.958 126.968  82.878  0.00  0.00    +0.000 A 
ATOM      7  C   UNL     1     101.329 128.175  83.483  0.00  0.00    +0.000 A 
ATOM      8  C   UNL     1     100.389 129.189  83.686  0.00  0.00    +0.000 A 
ENDBRANCH   1   6
BRANCH   2   9
ATOM      9  C   UNL     1     103.749 124.824  81.310  0.00  0.00    +0.000 A 
ATOM     10  C   UNL     1     104.443 124.717  80.097  0.00  0.00    +0.000 A 
ATOM     11  C   UNL     1     105.436 123.747  79.929  0.00  0.00    +0.000 A 
ATOM     12  C   UNL     1     105.749 122.885  80.980  0.00  0.00    +0.000 A 
ATOM     13  C   UNL     1     105.078 122.989  82.200  0.00  0.00    +0.000 A 
ATOM     14  C   UNL     1     104.086 123.962  82.363  0.00  0.00    +0.000 A 
BRANCH  12  15
ATOM     15  C   UNL     1     106.796 121.858  80.813  0.00  0.00    +0.000 C 
ATOM     16  O   UNL     1     107.854 122.091  80.242  0.00  0.00    +0.000 OA
ENDBRANCH  12  15
ENDBRANCH   2   9
TORSDOF 3
ENDMDL
