MODEL 1
REMARK VINA RESULT:      -4.3      0.000      0.000
REMARK  Name = *****
REMARK  5 active torsions:
REMARK  status: ('A' for Active; 'I' for Inactive)
REMARK    1  A    between atoms: C_2  and  N_3
REMARK    2  A    between atoms: N_3  and  C_4
REMARK    3  A    between atoms: N_3  and  C_11
REMARK    4  A    between atoms: C_4  and  C_5
REMARK    5  A    between atoms: C_11  and  C_12
REMARK                            x       y       z     vdW  Elec       q    Type
REMARK                         _______ _______ _______ _____ _____    ______ ____
ROOT
ATOM      1  N   UNL     1      87.623  63.629  88.309  0.00  0.00    +0.000 N 
ENDROOT
BRANCH   1   3
ATOM      2  C   UNL     1      89.019  63.838  90.549  0.00  0.00    +0.000 C 
ATOM      3  C   UNL     1      88.386  63.744  89.536  0.00  0.00    +0.000 C 
ENDBRANCH   1   3
BRANCH   1   4
ATOM      4  C   UNL     1      87.050  62.351  87.937  0.00  0.00    +0.000 C 
BRANCH   4   5
ATOM      5  C   UNL     1      85.785  62.067  88.717  0.00  0.00    +0.000 A 
ATOM      6  C   UNL     1      84.607  62.776  88.442  0.00  0.00    +0.000 A 
ATOM      7  C   UNL     1      83.439  62.521  89.162  0.00  0.00    +0.000 A 
ATOM      8  C   UNL     1      83.437  61.561  90.172  0.00  0.00    +0.000 A 
ATOM      9  C   UNL     1      84.604  60.854  90.462  0.00  0.00    +0.000 A 
ATOM     10  C   UNL     1      85.772  61.107  89.740  0.00  0.00    +0.000 A 
ENDBRANCH   4   5
ENDBRANCH   1   4
BRANCH   1  11
ATOM     11  C   UNL     1      87.477  64.784  87.445  0.00  0.00    +0.000 C 
BRANCH  11  12
ATOM     12  C   UNL     1      88.775  65.101  86.738  0.00  0.00    +0.000 A 
ATOM     13  C   UNL     1      89.268  66.415  86.713  0.00  0.00    +0.000 A 
ATOM     14  C   UNL     1      90.461  66.715  86.053  0.00  0.00    +0.000 A 
ATOM     15  C   UNL     1      91.172  65.708  85.406  0.00  0.00    +0.000 A 
ATOM     16  C   UNL     1      90.689  64.399  85.415  0.00  0.00    +0.000 A 
ATOM     17  C   UNL     1      89.498  64.097  86.076  0.00  0.00    +0.000 A 
ENDBRANCH  11  12
ENDBRANCH   1  11
TORSDOF 5
ENDMDL
