MODEL 1
REMARK VINA RESULT:      -5.3      0.000      0.000
REMARK  Name = *****
REMARK  1 active torsions:
REMARK  status: ('A' for Active; 'I' for Inactive)
REMARK    1  A    between atoms: C_8  and  C_11
REMARK                            x       y       z     vdW  Elec       q    Type
REMARK                         _______ _______ _______ _____ _____    ______ ____
ROOT
ATOM      1  C   UNL     1      99.585 130.922  84.210  0.00  0.00    +0.000 C 
ATOM      2  C   UNL     1      99.018 129.507  84.034  0.00  0.00    +0.000 C 
ATOM      3  C   UNL     1     100.023 128.533  83.470  0.00  0.00    +0.000 A 
ATOM      4  C   UNL     1     101.393 128.729  83.704  0.00  0.00    +0.000 A 
ATOM      5  C   UNL     1     101.852 129.914  84.437  0.00  0.00    +0.000 C 
ATOM      6  C   UNL     1     101.016 130.938  84.662  0.00  0.00    +0.000 C 
ATOM      7  C   UNL     1     102.319 127.783  83.240  0.00  0.00    +0.000 A 
ATOM      8  C   UNL     1     101.903 126.637  82.540  0.00  0.00    +0.000 A 
ATOM      9  C   UNL     1     100.528 126.457  82.323  0.00  0.00    +0.000 A 
ATOM     10  C   UNL     1      99.595 127.388  82.788  0.00  0.00    +0.000 A 
ENDROOT
BRANCH   8  11
ATOM     11  C   UNL     1     102.883 125.652  82.050  0.00  0.00    +0.000 A 
ATOM     12  C   UNL     1     103.263 125.617  80.698  0.00  0.00    +0.000 A 
ATOM     13  C   UNL     1     104.191 124.683  80.233  0.00  0.00    +0.000 A 
ATOM     14  C   UNL     1     104.758 123.766  81.113  0.00  0.00    +0.000 A 
ATOM     15  C   UNL     1     104.397 123.781  82.458  0.00  0.00    +0.000 A 
ATOM     16  C   UNL     1     103.467 124.717  82.921  0.00  0.00    +0.000 A 
ENDBRANCH   8  11
TORSDOF 1
ENDMDL
