MODEL 1
REMARK VINA RESULT:      -4.6      0.000      0.000
REMARK  Name = *****
REMARK  4 active torsions:
REMARK  status: ('A' for Active; 'I' for Inactive)
REMARK    1  A    between atoms: C_1  and  C_2
REMARK    2  A    between atoms: C_3  and  C_9
REMARK    3  A    between atoms: C_4  and  C_8
REMARK    4  A    between atoms: C_10  and  C_11
REMARK                            x       y       z     vdW  Elec       q    Type
REMARK                         _______ _______ _______ _____ _____    ______ ____
ROOT
ATOM      1  C   UNL     1      99.061 126.700  82.430  0.00  0.00    +0.000 C 
ATOM      2  C   UNL     1      99.687 127.904  83.081  0.00  0.00    +0.000 A 
ATOM      3  C   UNL     1     101.082 128.002  83.271  0.00  0.00    +0.000 A 
ATOM      4  C   UNL     1     101.638 129.145  83.882  0.00  0.00    +0.000 A 
ATOM      5  C   UNL     1     100.789 130.180  84.298  0.00  0.00    +0.000 A 
ATOM      6  C   UNL     1      99.412 130.087  84.112  0.00  0.00    +0.000 A 
ATOM      7  C   UNL     1      98.863 128.957  83.507  0.00  0.00    +0.000 A 
ATOM      8  C   UNL     1     103.122 129.279  84.100  0.00  0.00    +0.000 C 
ENDROOT
BRANCH   3   9
ATOM      9  C   UNL     1     101.938 126.931  82.840  0.00  0.00    +0.000 C 
ATOM     10  C   UNL     1     102.655 126.036  82.482  0.00  0.00    +0.000 C 
BRANCH  10  11
ATOM     11  C   UNL     1     103.499 124.969  82.053  0.00  0.00    +0.000 C 
ATOM     12  C   UNL     1     103.885 124.914  80.767  0.00  0.00    +0.000 C 
ATOM     13  C   UNL     1     104.760 123.832  80.205  0.00  0.00    +0.000 C 
ATOM     14  C   UNL     1     104.927 122.638  81.147  0.00  0.00    +0.000 C 
ATOM     15  C   UNL     1     105.130 123.096  82.587  0.00  0.00    +0.000 C 
ATOM     16  C   UNL     1     103.949 123.943  83.066  0.00  0.00    +0.000 C 
ENDBRANCH  10  11
ENDBRANCH   3   9
TORSDOF 2
ENDMDL
