MODEL 1
REMARK VINA RESULT:      -4.3      0.000      0.000
REMARK  Name = *****
REMARK  4 active torsions:
REMARK  status: ('A' for Active; 'I' for Inactive)
REMARK    1  A    between atoms: C_6  and  C_7
REMARK    2  A    between atoms: C_7  and  S_8
REMARK    3  A    between atoms: S_8  and  C_9
REMARK    4  A    between atoms: C_12  and  C_15
REMARK                            x       y       z     vdW  Elec       q    Type
REMARK                         _______ _______ _______ _____ _____    ______ ____
ROOT
ATOM      1  S   UNL     1      86.749  69.015  88.402  0.00  0.00    +0.000 S 
ENDROOT
BRANCH   1   2
ATOM      2  C   UNL     1      88.011  68.080  87.559  0.00  0.00    +0.000 A 
ATOM      3  C   UNL     1      87.956  66.683  87.596  0.00  0.00    +0.000 A 
ATOM      4  C   UNL     1      88.922  65.917  86.935  0.00  0.00    +0.000 A 
ATOM      5  C   UNL     1      89.948  66.547  86.222  0.00  0.00    +0.000 A 
ATOM      6  C   UNL     1      89.996  67.943  86.170  0.00  0.00    +0.000 A 
ATOM      7  C   UNL     1      89.028  68.706  86.833  0.00  0.00    +0.000 A 
BRANCH   5   8
ATOM      8  C   UNL     1      90.939  65.765  85.544  0.00  0.00    +0.000 C 
ATOM      9  N   UNL     1      91.739  65.129  84.995  0.00  0.00    +0.000 NA
ENDBRANCH   5   8
ENDBRANCH   1   2
BRANCH   1  10
ATOM     10  C   UNL     1      87.263  70.710  87.966  0.00  0.00    +0.000 C 
BRANCH  10  16
ATOM     11  C   UNL     1      86.369  71.419  85.709  0.00  0.00    +0.000 A 
ATOM     12  C   UNL     1      85.403  72.039  84.911  0.00  0.00    +0.000 A 
ATOM     13  C   UNL     1      84.290  72.629  85.504  0.00  0.00    +0.000 A 
ATOM     14  C   UNL     1      84.131  72.601  86.887  0.00  0.00    +0.000 A 
ATOM     15  C   UNL     1      85.095  71.982  87.685  0.00  0.00    +0.000 A 
ATOM     16  C   UNL     1      86.228  71.391  87.105  0.00  0.00    +0.000 A 
ATOM     17 CL   UNL     1      83.101  73.391  84.520  0.00  0.00    +0.000 Cl
ENDBRANCH  10  16
ENDBRANCH   1  10
TORSDOF 4
ENDMDL
