MODEL 1
REMARK VINA RESULT:      -4.0      0.000      0.000
REMARK  Name = *****
REMARK  2 active torsions:
REMARK  status: ('A' for Active; 'I' for Inactive)
REMARK    1  A    between atoms: P_1  and  C_2
REMARK    2  A    between atoms: P_1  and  C_8
REMARK                            x       y       z     vdW  Elec       q    Type
REMARK                         _______ _______ _______ _____ _____    ______ ____
ROOT
ATOM      1  P   UNL     1     102.180 125.980  83.970  0.00  0.00    +0.000 P 
ATOM      2  H   UNL     1     101.921 124.706  84.434  0.00  0.00    +0.000 HD
ENDROOT
BRANCH   1   3
ATOM      3  C   UNL     1     100.645 127.029  84.014  0.00  0.00    +0.000 C 
ATOM      4  C   UNL     1      99.873 126.861  82.693  0.00  0.00    +0.000 C 
ATOM      5  C   UNL     1      98.620 127.735  82.653  0.00  0.00    +0.000 C 
ATOM      6  C   UNL     1      98.950 129.200  82.912  0.00  0.00    +0.000 C 
ATOM      7  C   UNL     1      99.713 129.377  84.220  0.00  0.00    +0.000 C 
ATOM      8  C   UNL     1     100.970 128.509  84.263  0.00  0.00    +0.000 C 
ENDBRANCH   1   3
BRANCH   1   9
ATOM      9  C   UNL     1     102.640 125.950  82.166  0.00  0.00    +0.000 C 
ATOM     10  C   UNL     1     103.628 124.793  81.918  0.00  0.00    +0.000 C 
ATOM     11  C   UNL     1     104.047 124.712  80.452  0.00  0.00    +0.000 C 
ATOM     12  C   UNL     1     104.629 126.033  79.962  0.00  0.00    +0.000 C 
ATOM     13  C   UNL     1     103.665 127.189  80.205  0.00  0.00    +0.000 C 
ATOM     14  C   UNL     1     103.234 127.274  81.670  0.00  0.00    +0.000 C 
ENDBRANCH   1   9
TORSDOF 2
ENDMDL
