MODEL 1
REMARK VINA RESULT:      -4.7      0.000      0.000
REMARK  Name = *****
REMARK  4 active torsions:
REMARK  status: ('A' for Active; 'I' for Inactive)
REMARK    1  A    between atoms: C_1  and  C_2
REMARK    2  A    between atoms: C_5  and  O_8
REMARK    3  A    between atoms: O_8  and  C_9
REMARK    4  A    between atoms: C_9  and  C_11
REMARK                            x       y       z     vdW  Elec       q    Type
REMARK                         _______ _______ _______ _____ _____    ______ ____
ROOT
ATOM      1  C   UNL     1     102.921 125.081  82.409  0.00  0.00    +0.000 C 
ATOM      2  O   UNL     1     103.016 124.846  83.604  0.00  0.00    +0.000 OA
ENDROOT
BRANCH   1   3
ATOM      3  C   UNL     1     103.949 124.658  81.418  0.00  0.00    +0.000 A 
ATOM      4  C   UNL     1     104.516 123.378  81.416  0.00  0.00    +0.000 A 
ATOM      5  C   UNL     1     105.472 123.055  80.459  0.00  0.00    +0.000 A 
ATOM      6  C   UNL     1     105.877 123.978  79.501  0.00  0.00    +0.000 A 
ATOM      7  C   UNL     1     105.318 125.253  79.496  0.00  0.00    +0.000 A 
ATOM      8  C   UNL     1     104.357 125.593  80.451  0.00  0.00    +0.000 A 
ATOM      9  F   UNL     1     106.013 121.830  80.461  0.00  0.00    +0.000 F 
ENDBRANCH   1   3
BRANCH   1  10
ATOM     10  O   UNL     1     101.897 125.748  81.762  0.00  0.00    +0.000 OA
BRANCH  10  15
ATOM     11  C   UNL     1      99.348 130.151  84.309  0.00  0.00    +0.000 C 
ATOM     12  C   UNL     1     100.033 128.977  83.675  0.00  0.00    +0.000 A 
ATOM     13  C   UNL     1     101.431 128.945  83.574  0.00  0.00    +0.000 A 
ATOM     14  C   UNL     1     102.073 127.869  82.956  0.00  0.00    +0.000 A 
ATOM     15  C   UNL     1     101.310 126.821  82.447  0.00  0.00    +0.000 A 
ATOM     16  C   UNL     1      99.919 126.852  82.506  0.00  0.00    +0.000 A 
ATOM     17  C   UNL     1      99.282 127.930  83.122  0.00  0.00    +0.000 A 
ENDBRANCH  10  15
ENDBRANCH   1  10
TORSDOF 3
ENDMDL
