MODEL 1
REMARK VINA RESULT:      -4.3      0.000      0.000
REMARK  Name = *****
REMARK  5 active torsions:
REMARK  status: ('A' for Active; 'I' for Inactive)
REMARK    1  A    between atoms: C_1  and  C_2
REMARK    2  A    between atoms: C_2  and  N_3
REMARK    3  A    between atoms: N_3  and  C_4
REMARK    4  A    between atoms: C_9  and  C_10
REMARK    5  A    between atoms: C_11  and  C_13
REMARK                            x       y       z     vdW  Elec       q    Type
REMARK                         _______ _______ _______ _____ _____    ______ ____
ROOT
ATOM      1  N   UNL     1      87.715  69.728  85.647  0.00  0.00    +0.000 N 
ATOM      2  C   UNL     1      87.475  68.342  85.693  0.00  0.00    +0.000 C 
ATOM      3  O   UNL     1      86.402  67.816  85.985  0.00  0.00    +0.000 OA
ENDROOT
BRANCH   1   4
ATOM      4  C   UNL     1      86.739  70.615  86.227  0.00  0.00    +0.000 A 
ATOM      5  C   UNL     1      85.805  71.268  85.403  0.00  0.00    +0.000 A 
ATOM      6  C   UNL     1      84.837  72.124  85.935  0.00  0.00    +0.000 A 
ATOM      7  C   UNL     1      84.787  72.348  87.304  0.00  0.00    +0.000 A 
ATOM      8  C   UNL     1      85.716  71.730  88.137  0.00  0.00    +0.000 A 
ATOM      9  C   UNL     1      86.712  70.881  87.615  0.00  0.00    +0.000 A 
ATOM     10  C   UNL     1      87.715  70.323  88.590  0.00  0.00    +0.000 C 
ENDBRANCH   1   4
BRANCH   2  11
ATOM     11  C   UNL     1      88.585  67.417  85.364  0.00  0.00    +0.000 A 
ATOM     12  C   UNL     1      89.640  67.219  86.263  0.00  0.00    +0.000 A 
ATOM     13  C   UNL     1      90.662  66.322  85.943  0.00  0.00    +0.000 A 
ATOM     14  C   UNL     1      90.616  65.618  84.738  0.00  0.00    +0.000 A 
ATOM     15  C   UNL     1      89.553  65.795  83.852  0.00  0.00    +0.000 A 
ATOM     16  C   UNL     1      88.529  66.691  84.169  0.00  0.00    +0.000 A 
ATOM     17 CL   UNL     1      91.878  64.516  84.346  0.00  0.00    +0.000 Cl
ENDBRANCH   2  11
BRANCH   1  19
ATOM     18  C   UNL     1      89.913  70.903  85.518  0.00  0.00    +0.000 C 
ATOM     19  C   UNL     1      88.738  70.306  84.755  0.00  0.00    +0.000 C 
ENDBRANCH   1  19
TORSDOF 3
ENDMDL
