MODEL 1
REMARK VINA RESULT:      -4.5      0.000      0.000
REMARK  Name = *****
REMARK  3 active torsions:
REMARK  status: ('A' for Active; 'I' for Inactive)
REMARK    1  A    between atoms: C_5  and  S_7
REMARK    2  A    between atoms: S_7  and  S_8
REMARK    3  A    between atoms: S_8  and  C_11
REMARK                            x       y       z     vdW  Elec       q    Type
REMARK                         _______ _______ _______ _____ _____    ______ ____
ROOT
ATOM      1  S   UNL     1     101.378 126.749  83.412  0.00  0.00    +0.000 S 
ATOM      2  O   UNL     1     100.972 126.371  82.075  0.00  0.00    +0.000 OA
ATOM      3  O   UNL     1     100.967 125.947  84.552  0.00  0.00    +0.000 OA
ENDROOT
BRANCH   1   4
ATOM      4  C   UNL     1     100.823 128.409  83.710  0.00  0.00    +0.000 A 
ATOM      5  C   UNL     1     101.725 129.314  84.294  0.00  0.00    +0.000 A 
ATOM      6  C   UNL     1     101.331 130.626  84.559  0.00  0.00    +0.000 A 
ATOM      7  C   UNL     1     100.038 131.038  84.249  0.00  0.00    +0.000 A 
ATOM      8  C   UNL     1      99.138 130.137  83.676  0.00  0.00    +0.000 A 
ATOM      9  C   UNL     1      99.522 128.817  83.405  0.00  0.00    +0.000 A 
ATOM     10 CL   UNL     1      98.325 127.802  82.693  0.00  0.00    +0.000 Cl
ENDBRANCH   1   4
BRANCH   1  11
ATOM     11  S   UNL     1     103.468 126.869  83.515  0.00  0.00    +0.000 S 
BRANCH  11  16
ATOM     12  C   UNL     1     104.519 123.275  81.954  0.00  0.00    +0.000 A 
ATOM     13  C   UNL     1     104.624 123.520  80.587  0.00  0.00    +0.000 A 
ATOM     14  C   UNL     1     104.383 124.801  80.091  0.00  0.00    +0.000 A 
ATOM     15  C   UNL     1     104.031 125.840  80.960  0.00  0.00    +0.000 A 
ATOM     16  C   UNL     1     103.916 125.601  82.339  0.00  0.00    +0.000 A 
ATOM     17  C   UNL     1     104.169 124.309  82.825  0.00  0.00    +0.000 A 
ATOM     18 CL   UNL     1     103.766 127.401  80.263  0.00  0.00    +0.000 Cl
ENDBRANCH  11  16
ENDBRANCH   1  11
TORSDOF 3
ENDMDL
