MODEL 1
REMARK VINA RESULT:      -4.7      0.000      0.000
REMARK  Name = *****
REMARK  4 active torsions:
REMARK  status: ('A' for Active; 'I' for Inactive)
REMARK    1  A    between atoms: C_1  and  C_2
REMARK    2  A    between atoms: C_5  and  C_8
REMARK    3  A    between atoms: C_5  and  C_9
REMARK    4  A    between atoms: C_10  and  C_11
REMARK                            x       y       z     vdW  Elec       q    Type
REMARK                         _______ _______ _______ _____ _____    ______ ____
ROOT
ATOM      1  C   UNL     1     105.589 120.927  81.379  0.00  0.00    +0.000 C 
ATOM      2  C   UNL     1     104.946 122.206  81.821  0.00  0.00    +0.000 C 
ATOM      3  C   UNL     1     104.386 122.345  83.031  0.00  0.00    +0.000 C 
ATOM      4  O   UNL     1     103.814 123.484  83.527  0.00  0.00    +0.000 OA
ATOM      5  C   UNL     1     103.976 124.692  82.757  0.00  0.00    +0.000 C 
ATOM      6  C   UNL     1     103.931 124.408  81.244  0.00  0.00    +0.000 C 
ATOM      7  C   UNL     1     104.937 123.337  80.836  0.00  0.00    +0.000 C 
ATOM      8  C   UNL     1     105.296 125.357  83.183  0.00  0.00    +0.000 C 
ENDROOT
BRANCH   5   9
ATOM      9  C   UNL     1     102.842 125.653  83.093  0.00  0.00    +0.000 C 
ATOM     10  C   UNL     1     101.920 126.124  82.234  0.00  0.00    +0.000 C 
BRANCH  10  11
ATOM     11  C   UNL     1     100.837 127.043  82.609  0.00  0.00    +0.000 A 
ATOM     12  C   UNL     1      99.491 126.769  82.331  0.00  0.00    +0.000 A 
ATOM     13  C   UNL     1      98.487 127.654  82.731  0.00  0.00    +0.000 A 
ATOM     14  C   UNL     1      98.818 128.818  83.424  0.00  0.00    +0.000 A 
ATOM     15  C   UNL     1     100.150 129.093  83.721  0.00  0.00    +0.000 A 
ATOM     16  C   UNL     1     101.154 128.207  83.320  0.00  0.00    +0.000 A 
ENDBRANCH  10  11
ENDBRANCH   5   9
TORSDOF 2
ENDMDL
