MODEL 1
REMARK VINA RESULT:      -3.5      0.000      0.000
REMARK  Name = *****
REMARK  5 active torsions:
REMARK  status: ('A' for Active; 'I' for Inactive)
REMARK    1  A    between atoms: C_1  and  N_2
REMARK    2  A    between atoms: N_2  and  S_3
REMARK    3  A    between atoms: N_2  and  S_10
REMARK    4  A    between atoms: S_3  and  C_4
REMARK    5  A    between atoms: S_10  and  C_11
REMARK                            x       y       z     vdW  Elec       q    Type
REMARK                         _______ _______ _______ _____ _____    ______ ____
ROOT
ATOM      1  C   UNL     1      87.827  63.484  85.614  0.00  0.00    +0.000 C 
ATOM      2  N   UNL     1      86.845  63.930  86.598  0.00  0.00    +0.000 NA
ENDROOT
BRANCH   2   3
ATOM      3  S   UNL     1      87.004  65.400  87.352  0.00  0.00    +0.000 S 
BRANCH   3   4
ATOM      4  C   UNL     1      87.415  64.897  89.018  0.00  0.00    +0.000 A 
ATOM      5  C   UNL     1      88.633  64.254  89.257  0.00  0.00    +0.000 A 
ATOM      6  C   UNL     1      88.981  63.861  90.552  0.00  0.00    +0.000 A 
ATOM      7  C   UNL     1      88.116  64.113  91.614  0.00  0.00    +0.000 A 
ATOM      8  C   UNL     1      86.903  64.762  91.385  0.00  0.00    +0.000 A 
ATOM      9  C   UNL     1      86.554  65.155  90.091  0.00  0.00    +0.000 A 
ENDBRANCH   3   4
ENDBRANCH   2   3
BRANCH   2  10
ATOM     10  S   UNL     1      85.248  63.483  86.511  0.00  0.00    +0.000 S 
BRANCH  10  11
ATOM     11  C   UNL     1      84.998  62.630  88.061  0.00  0.00    +0.000 A 
ATOM     12  C   UNL     1      85.996  61.787  88.559  0.00  0.00    +0.000 A 
ATOM     13  C   UNL     1      85.816  61.122  89.774  0.00  0.00    +0.000 A 
ATOM     14  C   UNL     1      84.640  61.303  90.500  0.00  0.00    +0.000 A 
ATOM     15  C   UNL     1      83.646  62.150  90.015  0.00  0.00    +0.000 A 
ATOM     16  C   UNL     1      83.824  62.815  88.801  0.00  0.00    +0.000 A 
ENDBRANCH  10  11
ENDBRANCH   2  10
TORSDOF 4
ENDMDL
