MODEL 1
REMARK VINA RESULT:      -4.2      0.000      0.000
REMARK  Name = *****
REMARK  3 active torsions:
REMARK  status: ('A' for Active; 'I' for Inactive)
REMARK    1  A    between atoms: C_3  and  S_8
REMARK    2  A    between atoms: S_8  and  C_9
REMARK    3  A    between atoms: C_9  and  C_10
REMARK                            x       y       z     vdW  Elec       q    Type
REMARK                         _______ _______ _______ _____ _____    ______ ____
ROOT
ATOM      1  S   UNL     1      86.646  64.204  86.822  0.00  0.00    +0.000 S 
ENDROOT
BRANCH   1   4
ATOM      2  C   UNL     1      89.343  67.213  86.601  0.00  0.00    +0.000 A 
ATOM      3  C   UNL     1      88.205  66.435  86.830  0.00  0.00    +0.000 A 
ATOM      4  C   UNL     1      88.168  65.077  86.471  0.00  0.00    +0.000 A 
ATOM      5  C   UNL     1      89.300  64.514  85.876  0.00  0.00    +0.000 A 
ATOM      6  C   UNL     1      90.436  65.296  85.648  0.00  0.00    +0.000 A 
ATOM      7  C   UNL     1      90.464  66.641  86.006  0.00  0.00    +0.000 A 
ATOM      8 CL   UNL     1      91.822  64.586  84.912  0.00  0.00    +0.000 Cl
ENDBRANCH   1   4
BRANCH   1   9
ATOM      9  C   UNL     1      87.172  62.830  87.900  0.00  0.00    +0.000 C 
BRANCH   9  10
ATOM     10  C   UNL     1      87.554  63.331  89.273  0.00  0.00    +0.000 A 
ATOM     11  C   UNL     1      86.561  63.671  90.208  0.00  0.00    +0.000 A 
ATOM     12  C   UNL     1      86.914  64.146  91.471  0.00  0.00    +0.000 A 
ATOM     13  C   UNL     1      88.257  64.289  91.800  0.00  0.00    +0.000 A 
ATOM     14  C   UNL     1      89.254  63.968  90.888  0.00  0.00    +0.000 A 
ATOM     15  C   UNL     1      88.905  63.493  89.623  0.00  0.00    +0.000 A 
ATOM     16  F   UNL     1      88.593  64.746  93.013  0.00  0.00    +0.000 F 
ENDBRANCH   9  10
ENDBRANCH   1   9
TORSDOF 3
ENDMDL
