MODEL 1
REMARK VINA RESULT:      -4.6      0.000      0.000
REMARK  Name = *****
REMARK  6 active torsions:
REMARK  status: ('A' for Active; 'I' for Inactive)
REMARK    1  A    between atoms: C_1  and  C_2
REMARK    2  A    between atoms: C_5  and  C_8
REMARK    3  A    between atoms: C_8  and  S_9
REMARK    4  A    between atoms: C_8  and  S_16
REMARK    5  A    between atoms: S_9  and  C_10
REMARK    6  A    between atoms: S_16  and  C_18
REMARK                            x       y       z     vdW  Elec       q    Type
REMARK                         _______ _______ _______ _____ _____    ______ ____
ROOT
ATOM      1  C   UNL     1     103.691 127.715  81.970  0.00  0.00    +0.000 C 
ENDROOT
BRANCH   1   6
ATOM      2  C   UNL     1     104.949 122.199  80.457  0.00  0.00    +0.000 C 
ATOM      3  C   UNL     1     104.651 123.618  80.834  0.00  0.00    +0.000 A 
ATOM      4  C   UNL     1     104.251 123.936  82.134  0.00  0.00    +0.000 A 
ATOM      5  C   UNL     1     103.939 125.254  82.478  0.00  0.00    +0.000 A 
ATOM      6  C   UNL     1     104.006 126.289  81.528  0.00  0.00    +0.000 A 
ATOM      7  C   UNL     1     104.402 125.956  80.223  0.00  0.00    +0.000 A 
ATOM      8  C   UNL     1     104.712 124.637  79.879  0.00  0.00    +0.000 A 
ENDBRANCH   1   6
BRANCH   1   9
ATOM      9  S   UNL     1     105.077 128.918  81.770  0.00  0.00    +0.000 S 
ATOM     10  O   UNL     1     104.800 130.122  82.624  0.00  0.00    +0.000 OA
ATOM     11  C   UNL     1     106.340 127.949  82.632  0.00  0.00    +0.000 C 
ENDBRANCH   1   9
BRANCH   1  12
ATOM     12  S   UNL     1     102.929 127.755  83.656  0.00  0.00    +0.000 S 
BRANCH  12  13
ATOM     13  C   UNL     1     101.192 127.835  83.270  0.00  0.00    +0.000 A 
ATOM     14  C   UNL     1     100.551 126.745  82.673  0.00  0.00    +0.000 A 
ATOM     15  C   UNL     1      99.186 126.802  82.385  0.00  0.00    +0.000 A 
ATOM     16  C   UNL     1      98.451 127.941  82.706  0.00  0.00    +0.000 A 
ATOM     17  C   UNL     1      99.078 129.021  83.323  0.00  0.00    +0.000 A 
ATOM     18  C   UNL     1     100.444 128.965  83.613  0.00  0.00    +0.000 A 
ENDBRANCH  12  13
ENDBRANCH   1  12
TORSDOF 4
ENDMDL
