MODEL 1
REMARK VINA RESULT:      -4.2      0.000      0.000
REMARK  Name = *****
REMARK  3 active torsions:
REMARK  status: ('A' for Active; 'I' for Inactive)
REMARK    1  A    between atoms: C_4  and  C_7
REMARK    2  A    between atoms: C_7  and  C_16
REMARK    3  A    between atoms: C_8  and  C_9
REMARK                            x       y       z     vdW  Elec       q    Type
REMARK                         _______ _______ _______ _____ _____    ______ ____
ROOT
ATOM      1  C   UNL     1     102.592 126.486  83.743  0.00  0.00    +0.000 C 
ATOM      2  C   UNL     1     101.572 127.001  84.461  0.00  0.00    +0.000 C 
ENDROOT
BRANCH   2   3
ATOM      3  C   UNL     1     100.923 128.303  84.235  0.00  0.00    +0.000 A 
ATOM      4  C   UNL     1     101.460 129.443  84.854  0.00  0.00    +0.000 A 
ATOM      5  C   UNL     1     100.879 130.698  84.662  0.00  0.00    +0.000 A 
ATOM      6  C   UNL     1      99.759 130.832  83.846  0.00  0.00    +0.000 A 
ATOM      7  C   UNL     1      99.218 129.710  83.218  0.00  0.00    +0.000 A 
ATOM      8  C   UNL     1      99.796 128.451  83.410  0.00  0.00    +0.000 A 
ATOM      9 BR   UNL     1      98.993 126.971  82.526  0.00  0.00    +0.000 Br
ENDBRANCH   2   3
BRANCH   1  13
ATOM     10  C   UNL     1     104.398 128.555  80.461  0.00  0.00    +0.000 A 
ATOM     11  C   UNL     1     103.501 127.516  80.219  0.00  0.00    +0.000 A 
ATOM     12  C   UNL     1     102.908 126.841  81.288  0.00  0.00    +0.000 A 
ATOM     13  C   UNL     1     103.213 127.197  82.609  0.00  0.00    +0.000 A 
ATOM     14  C   UNL     1     104.113 128.248  82.841  0.00  0.00    +0.000 A 
ATOM     15  C   UNL     1     104.703 128.922  81.771  0.00  0.00    +0.000 A 
ENDBRANCH   1  13
BRANCH   1  16
ATOM     16  C   UNL     1     103.091 125.188  84.082  0.00  0.00    +0.000 C 
ATOM     17  N   UNL     1     103.502 124.143  84.376  0.00  0.00    +0.000 NA
ENDBRANCH   1  16
TORSDOF 3
ENDMDL
