REMARK  Name = *****
REMARK  1 active torsions:
REMARK  status: ('A' for Active; 'I' for Inactive)
REMARK    1  A    between atoms: C_4  and  P_7
REMARK                            x       y       z     vdW  Elec       q    Type
REMARK                         _______ _______ _______ _____ _____    ______ ____
ROOT
ATOM      1  P   UNL     1      -7.734  -0.863   1.278  0.00  0.00    +0.000 P 
ATOM      2  C   UNL     1      -8.157   0.404   0.027  0.00  0.00    +0.000 C 
ATOM      3  C   UNL     1      -7.559   0.724  -1.140  0.00  0.00    +0.000 C 
ATOM      4  C   UNL     1      -6.376   0.204  -1.897  0.00  0.00    +0.000 A 
ATOM      5  C   UNL     1      -6.262   0.581  -3.247  0.00  0.00    +0.000 A 
ATOM      6  C   UNL     1      -5.180   0.162  -4.029  0.00  0.00    +0.000 A 
ATOM      7  C   UNL     1      -4.184  -0.640  -3.479  0.00  0.00    +0.000 A 
ATOM      8  C   UNL     1      -4.264  -1.025  -2.143  0.00  0.00    +0.000 A 
ATOM      9  C   UNL     1      -5.347  -0.610  -1.361  0.00  0.00    +0.000 A 
ATOM     10  C   UNL     1      -5.415  -1.003   0.049  0.00  0.00    +0.000 C 
ATOM     11  C   UNL     1      -6.486  -1.770   0.314  0.00  0.00    +0.000 C 
ENDROOT
BRANCH   1  15
ATOM     12  C   UNL     1     -11.456  -3.625   1.092  0.00  0.00    +0.000 A 
ATOM     13  C   UNL     1     -10.879  -3.183  -0.096  0.00  0.00    +0.000 A 
ATOM     14  C   UNL     1      -9.756  -2.351  -0.063  0.00  0.00    +0.000 A 
ATOM     15  C   UNL     1      -9.194  -1.947   1.158  0.00  0.00    +0.000 A 
ATOM     16  C   UNL     1      -9.789  -2.403   2.345  0.00  0.00    +0.000 A 
ATOM     17  C   UNL     1     -10.912  -3.235   2.313  0.00  0.00    +0.000 A 
ENDBRANCH   1  15
TORSDOF 1
