MODEL 1
REMARK VINA RESULT:      -4.4      0.000      0.000
REMARK  Name = *****
REMARK  4 active torsions:
REMARK  status: ('A' for Active; 'I' for Inactive)
REMARK    1  A    between atoms: C_1  and  C_2
REMARK    2  A    between atoms: C_5  and  C_8
REMARK    3  A    between atoms: C_8  and  S_10
REMARK    4  A    between atoms: S_10  and  C_11
REMARK                            x       y       z     vdW  Elec       q    Type
REMARK                         _______ _______ _______ _____ _____    ______ ____
ROOT
ATOM      1  C   UNL     1     103.510 126.590  81.385  0.00  0.00    +0.000 C 
ATOM      2  O   UNL     1     103.426 127.186  80.318  0.00  0.00    +0.000 OA
ENDROOT
BRANCH   1   7
ATOM      3  C   UNL     1     105.252 121.053  81.794  0.00  0.00    +0.000 C 
ATOM      4  C   UNL     1     104.778 122.471  81.662  0.00  0.00    +0.000 A 
ATOM      5  C   UNL     1     104.859 123.134  80.432  0.00  0.00    +0.000 A 
ATOM      6  C   UNL     1     104.450 124.467  80.312  0.00  0.00    +0.000 A 
ATOM      7  C   UNL     1     103.963 125.165  81.425  0.00  0.00    +0.000 A 
ATOM      8  C   UNL     1     103.898 124.499  82.659  0.00  0.00    +0.000 A 
ATOM      9  C   UNL     1     104.307 123.168  82.778  0.00  0.00    +0.000 A 
ENDBRANCH   1   7
BRANCH   1  10
ATOM     10  S   UNL     1     103.108 127.386  82.905  0.00  0.00    +0.000 S 
BRANCH  10  11
ATOM     11  C   UNL     1     101.368 127.848  82.594  0.00  0.00    +0.000 C 
ATOM     12  C   UNL     1     100.915 128.820  83.694  0.00  0.00    +0.000 C 
ATOM     13  C   UNL     1      99.443 129.198  83.526  0.00  0.00    +0.000 C 
ATOM     14  C   UNL     1      98.547 127.964  83.480  0.00  0.00    +0.000 C 
ATOM     15  C   UNL     1      99.001 126.981  82.406  0.00  0.00    +0.000 C 
ATOM     16  C   UNL     1     100.472 126.602  82.573  0.00  0.00    +0.000 C 
ENDBRANCH  10  11
ENDBRANCH   1  10
TORSDOF 3
ENDMDL
