REMARK  Name = *****
REMARK  4 active torsions:
REMARK  status: ('A' for Active; 'I' for Inactive)
REMARK    1  A    between atoms: C_1  and  C_2
REMARK    2  A    between atoms: C_5  and  O_8
REMARK    3  A    between atoms: O_8  and  C_9
REMARK    4  A    between atoms: C_9  and  C_10
REMARK                            x       y       z     vdW  Elec       q    Type
REMARK                         _______ _______ _______ _____ _____    ______ ____
ROOT
ATOM      1  C   UNL     1      -3.634   1.255  -0.090  0.00  0.00    +0.000 C 
ENDROOT
BRANCH   1   2
ATOM      2  C   UNL     1      -4.342   2.003   1.009  0.00  0.00    +0.000 A 
ATOM      3  C   UNL     1      -3.900   3.282   1.364  0.00  0.00    +0.000 A 
ATOM      4  C   UNL     1      -4.506   4.018   2.379  0.00  0.00    +0.000 A 
ATOM      5  C   UNL     1      -5.587   3.480   3.069  0.00  0.00    +0.000 A 
ATOM      6  C   UNL     1      -6.055   2.212   2.729  0.00  0.00    +0.000 A 
ATOM      7  C   UNL     1      -5.441   1.479   1.705  0.00  0.00    +0.000 A 
ATOM      8 CL   UNL     1      -6.109  -0.069   1.327  0.00  0.00    +0.000 Cl
ATOM      9  F   UNL     1      -2.864   3.835   0.716  0.00  0.00    +0.000 F 
ENDBRANCH   1   2
BRANCH   1  10
ATOM     10  O   UNL     1      -3.028   0.063   0.421  0.00  0.00    +0.000 OA
BRANCH  10  15
ATOM     11  C   UNL     1       2.615  -0.407   0.158  0.00  0.00    +0.000 C 
ATOM     12  C   UNL     1       1.124  -0.246   0.201  0.00  0.00    +0.000 A 
ATOM     13  C   UNL     1       0.550   0.914   0.734  0.00  0.00    +0.000 A 
ATOM     14  C   UNL     1      -0.839   1.049   0.808  0.00  0.00    +0.000 A 
ATOM     15  C   UNL     1      -1.664   0.026   0.344  0.00  0.00    +0.000 A 
ATOM     16  C   UNL     1      -1.101  -1.149  -0.148  0.00  0.00    +0.000 A 
ATOM     17  C   UNL     1       0.287  -1.284  -0.225  0.00  0.00    +0.000 A 
ENDBRANCH  10  15
ENDBRANCH   1  10
TORSDOF 3
