MODEL 1
REMARK VINA RESULT:      -4.9      0.000      0.000
REMARK  Name = *****
REMARK  5 active torsions:
REMARK  status: ('A' for Active; 'I' for Inactive)
REMARK    1  A    between atoms: C_1  and  C_2
REMARK    2  A    between atoms: C_3  and  C_18
REMARK    3  A    between atoms: C_5  and  O_8
REMARK    4  A    between atoms: O_8  and  C_9
REMARK    5  A    between atoms: C_9  and  C_11
REMARK                            x       y       z     vdW  Elec       q    Type
REMARK                         _______ _______ _______ _____ _____    ______ ____
ROOT
ATOM      1  O   UNL     1      88.610  69.895  86.958  0.00  0.00    +0.000 OA
ENDROOT
BRANCH   1   6
ATOM      2  C   UNL     1      89.030  64.215  86.797  0.00  0.00    +0.000 C 
ATOM      3  C   UNL     1      88.939  65.717  86.842  0.00  0.00    +0.000 A 
ATOM      4  C   UNL     1      89.918  66.531  86.234  0.00  0.00    +0.000 A 
ATOM      5  C   UNL     1      89.791  67.927  86.304  0.00  0.00    +0.000 A 
ATOM      6  C   UNL     1      88.713  68.498  86.977  0.00  0.00    +0.000 A 
ATOM      7  C   UNL     1      87.728  67.706  87.555  0.00  0.00    +0.000 A 
ATOM      8  C   UNL     1      87.848  66.318  87.493  0.00  0.00    +0.000 A 
ATOM      9  C   UNL     1      91.097  65.934  85.516  0.00  0.00    +0.000 C 
ENDBRANCH   1   6
BRANCH   1  10
ATOM     10  C   UNL     1      88.139  70.489  88.114  0.00  0.00    +0.000 C 
ATOM     11  O   UNL     1      88.671  70.502  89.213  0.00  0.00    +0.000 OA
BRANCH  10  12
ATOM     12  C   UNL     1      86.833  71.155  87.839  0.00  0.00    +0.000 A 
ATOM     13  C   UNL     1      85.956  71.556  88.859  0.00  0.00    +0.000 A 
ATOM     14  C   UNL     1      84.744  72.176  88.538  0.00  0.00    +0.000 A 
ATOM     15  C   UNL     1      84.405  72.397  87.204  0.00  0.00    +0.000 A 
ATOM     16  C   UNL     1      85.267  72.004  86.184  0.00  0.00    +0.000 A 
ATOM     17  C   UNL     1      86.479  71.383  86.500  0.00  0.00    +0.000 A 
ATOM     18 CL   UNL     1      82.913  73.160  86.817  0.00  0.00    +0.000 Cl
ENDBRANCH  10  12
ENDBRANCH   1  10
TORSDOF 3
ENDMDL
