REMARK  Name = *****
REMARK  3 active torsions:
REMARK  status: ('A' for Active; 'I' for Inactive)
REMARK    1  A    between atoms: C_4  and  C_7
REMARK    2  A    between atoms: C_7  and  S_9
REMARK    3  A    between atoms: S_9  and  C_10
REMARK                            x       y       z     vdW  Elec       q    Type
REMARK                         _______ _______ _______ _____ _____    ______ ____
ROOT
ATOM      1  C   UNL     1      -3.112   0.796   0.137  0.00  0.00    +0.000 C 
ATOM      2  S   UNL     1      -4.021  -0.206   1.138  0.00  0.00    +0.000 S 
ENDROOT
BRANCH   1   6
ATOM      3  C   UNL     1       1.029   0.083  -0.702  0.00  0.00    +0.000 A 
ATOM      4  C   UNL     1       0.089  -0.919  -0.936  0.00  0.00    +0.000 A 
ATOM      5  C   UNL     1      -1.261  -0.690  -0.662  0.00  0.00    +0.000 A 
ATOM      6  C   UNL     1      -1.673   0.550  -0.153  0.00  0.00    +0.000 A 
ATOM      7  C   UNL     1      -0.723   1.553   0.083  0.00  0.00    +0.000 A 
ATOM      8  C   UNL     1       0.625   1.317  -0.192  0.00  0.00    +0.000 A 
ENDBRANCH   1   6
BRANCH   1   9
ATOM      9  S   UNL     1      -3.823   2.257  -0.566  0.00  0.00    +0.000 S 
BRANCH   9  10
ATOM     10  C   UNL     1      -3.596   1.892  -2.272  0.00  0.00    +0.000 A 
ATOM     11  C   UNL     1      -2.920   2.691  -3.170  0.00  0.00    +0.000 A 
ATOM     12  C   UNL     1      -2.917   2.143  -4.487  0.00  0.00    +0.000 A 
ATOM     13  C   UNL     1      -3.604   0.951  -4.550  0.00  0.00    +0.000 A 
ATOM     14  S   UNL     1      -4.254   0.506  -3.032  0.00  0.00    +0.000 S 
ENDBRANCH   9  10
ENDBRANCH   1   9
TORSDOF 3
