REMARK  Name = *****
REMARK  3 active torsions:
REMARK  status: ('A' for Active; 'I' for Inactive)
REMARK    1  A    between atoms: C_4  and  C_7
REMARK    2  A    between atoms: C_8  and  C_9
REMARK    3  A    between atoms: C_8  and  N_15
REMARK                            x       y       z     vdW  Elec       q    Type
REMARK                         _______ _______ _______ _____ _____    ______ ____
ROOT
ATOM      1  C   UNL     1      -2.915   0.243  -0.007  0.00  0.00    +0.000 C 
ATOM      2  C   UNL     1      -3.808  -0.720  -0.324  0.00  0.00    +0.000 C 
ENDROOT
BRANCH   1   6
ATOM      3  C   UNL     1       1.331  -0.184   0.203  0.00  0.00    +0.000 A 
ATOM      4  C   UNL     1       0.658  -0.557  -0.959  0.00  0.00    +0.000 A 
ATOM      5  C   UNL     1      -0.730  -0.427  -1.037  0.00  0.00    +0.000 A 
ATOM      6  C   UNL     1      -1.457   0.070   0.052  0.00  0.00    +0.000 A 
ATOM      7  C   UNL     1      -0.772   0.455   1.210  0.00  0.00    +0.000 A 
ATOM      8  C   UNL     1       0.617   0.323   1.287  0.00  0.00    +0.000 A 
ENDBRANCH   1   6
BRANCH   2   9
ATOM      9  C   UNL     1      -5.247  -0.350  -0.390  0.00  0.00    +0.000 A 
ATOM     10  C   UNL     1      -5.991  -0.647  -1.541  0.00  0.00    +0.000 A 
ATOM     11  C   UNL     1      -7.347  -0.324  -1.615  0.00  0.00    +0.000 A 
ATOM     12  C   UNL     1      -7.976   0.294  -0.535  0.00  0.00    +0.000 A 
ATOM     13  C   UNL     1      -7.251   0.586   0.619  0.00  0.00    +0.000 A 
ATOM     14  C   UNL     1      -5.894   0.263   0.694  0.00  0.00    +0.000 A 
ENDBRANCH   2   9
BRANCH   2  15
ATOM     15  N   UNL     1      -3.448  -1.998  -0.690  0.00  0.00    +0.000 NA
ATOM     16  C   UNL     1      -3.526  -2.747   0.212  0.00  0.00    +0.000 C 
ATOM     17  O   UNL     1      -3.606  -3.503   1.109  0.00  0.00    +0.000 OA
ENDBRANCH   2  15
TORSDOF 3
