MODEL 1
REMARK VINA RESULT:      -4.7      0.000      0.000
REMARK  Name = *****
REMARK  2 active torsions:
REMARK  status: ('A' for Active; 'I' for Inactive)
REMARK    1  A    between atoms: C_2  and  C_11
REMARK    2  A    between atoms: C_3  and  C_4
REMARK                            x       y       z     vdW  Elec       q    Type
REMARK                         _______ _______ _______ _____ _____    ______ ____
ROOT
ATOM      1  C   UNL     1      88.857  64.219  86.989  0.00  0.00    +0.000 C 
ATOM      2  C   UNL     1      88.398  64.502  88.395  0.00  0.00    +0.000 C 
ATOM      3  C   UNL     1      87.910  65.363  87.238  0.00  0.00    +0.000 C 
ENDROOT
BRANCH   3   4
ATOM      4  C   UNL     1      88.384  66.793  87.130  0.00  0.00    +0.000 A 
ATOM      5  C   UNL     1      89.533  67.132  86.392  0.00  0.00    +0.000 A 
ATOM      6  C   UNL     1      89.962  68.458  86.285  0.00  0.00    +0.000 A 
ATOM      7  C   UNL     1      89.238  69.463  86.910  0.00  0.00    +0.000 A 
ATOM      8  C   UNL     1      88.093  69.168  87.637  0.00  0.00    +0.000 A 
ATOM      9  C   UNL     1      87.670  67.840  87.742  0.00  0.00    +0.000 A 
ATOM     10  F   UNL     1      89.646  70.734  86.809  0.00  0.00    +0.000 F 
ENDBRANCH   3   4
BRANCH   2  11
ATOM     11  C   UNL     1      87.443  63.559  89.088  0.00  0.00    +0.000 A 
ATOM     12  C   UNL     1      86.931  63.849  90.364  0.00  0.00    +0.000 A 
ATOM     13  C   UNL     1      86.029  62.991  90.999  0.00  0.00    +0.000 A 
ATOM     14  C   UNL     1      85.614  61.824  90.366  0.00  0.00    +0.000 A 
ATOM     15  C   UNL     1      86.099  61.517  89.097  0.00  0.00    +0.000 A 
ATOM     16  C   UNL     1      87.000  62.379  88.468  0.00  0.00    +0.000 A 
ENDBRANCH   2  11
TORSDOF 2
ENDMDL
