MODEL 1
REMARK VINA RESULT:      -4.6      0.000      0.000
REMARK  Name = *****
REMARK  3 active torsions:
REMARK  status: ('A' for Active; 'I' for Inactive)
REMARK    1  A    between atoms: C_6  and  C_7
REMARK    2  A    between atoms: C_7  and  N_8
REMARK    3  A    between atoms: N_8  and  C_9
REMARK                            x       y       z     vdW  Elec       q    Type
REMARK                         _______ _______ _______ _____ _____    ______ ____
ROOT
ATOM      1  N   UNL     1      88.797  70.078  86.662  0.00  0.00    +0.000 N 
ATOM      2  O   UNL     1      89.679  70.769  87.265  0.00  0.00    +0.000 OA
ENDROOT
BRANCH   1   3
ATOM      3  C   UNL     1      88.831  68.629  86.796  0.00  0.00    +0.000 A 
ATOM      4  C   UNL     1      87.782  67.944  87.423  0.00  0.00    +0.000 A 
ATOM      5  C   UNL     1      87.835  66.551  87.523  0.00  0.00    +0.000 A 
ATOM      6  C   UNL     1      88.922  65.856  86.988  0.00  0.00    +0.000 A 
ATOM      7  C   UNL     1      89.957  66.539  86.348  0.00  0.00    +0.000 A 
ATOM      8  C   UNL     1      89.911  67.930  86.245  0.00  0.00    +0.000 A 
ATOM      9 CL   UNL     1      88.980  64.141  87.114  0.00  0.00    +0.000 Cl
ENDBRANCH   1   3
BRANCH   1  10
ATOM     10  C   UNL     1      87.836  70.595  85.927  0.00  0.00    +0.000 C 
BRANCH  10  16
ATOM     11  C   UNL     1      86.277  71.378  87.775  0.00  0.00    +0.000 A 
ATOM     12  C   UNL     1      85.086  72.011  88.146  0.00  0.00    +0.000 A 
ATOM     13  C   UNL     1      84.235  72.521  87.168  0.00  0.00    +0.000 A 
ATOM     14  C   UNL     1      84.561  72.397  85.819  0.00  0.00    +0.000 A 
ATOM     15  C   UNL     1      85.751  71.763  85.449  0.00  0.00    +0.000 A 
ATOM     16  C   UNL     1      86.620  71.260  86.426  0.00  0.00    +0.000 A 
ATOM     17 CL   UNL     1      82.771  73.297  87.625  0.00  0.00    +0.000 Cl
ENDBRANCH  10  16
ENDBRANCH   1  10
TORSDOF 3
ENDMDL
