MODEL 1
REMARK VINA RESULT:      -5.2      0.000      0.000
REMARK  Name = *****
REMARK  5 active torsions:
REMARK  status: ('A' for Active; 'I' for Inactive)
REMARK    1  A    between atoms: C_4  and  N_17
REMARK    2  A    between atoms: C_5  and  C_7
REMARK    3  A    between atoms: C_8  and  C_9
REMARK    4  A    between atoms: C_12  and  N_15
REMARK    5  A    between atoms: N_15  and  O_16
REMARK                            x       y       z     vdW  Elec       q    Type
REMARK                         _______ _______ _______ _____ _____    ______ ____
ROOT
ATOM      1  C   UNL     1     101.515 126.880  82.437  0.00  0.00    +0.000 C 
ATOM      2  C   UNL     1     102.702 127.094  81.847  0.00  0.00    +0.000 C 
ENDROOT
BRANCH   1   7
ATOM      3  C   UNL     1     100.697 129.978  84.438  0.00  0.00    +0.000 A 
ATOM      4  C   UNL     1      99.316 130.063  84.297  0.00  0.00    +0.000 A 
ATOM      5  C   UNL     1      98.636 129.105  83.543  0.00  0.00    +0.000 A 
ATOM      6  C   UNL     1      99.327 128.051  82.914  0.00  0.00    +0.000 A 
ATOM      7  C   UNL     1     100.726 127.951  83.080  0.00  0.00    +0.000 A 
ATOM      8  C   UNL     1     101.398 128.933  83.833  0.00  0.00    +0.000 A 
BRANCH   6   9
ATOM      9  N   UNL     1      98.631 127.096  82.191  0.00  0.00    +0.000 NA
ATOM     10  O   UNL     1      97.474 126.927  82.597  0.00  0.00    +0.000 OA
ENDBRANCH   6   9
ENDBRANCH   1   7
BRANCH   2  11
ATOM     11  C   UNL     1     103.500 126.032  81.221  0.00  0.00    +0.000 A 
ATOM     12  C   UNL     1     104.241 126.245  80.054  0.00  0.00    +0.000 A 
ATOM     13  C   UNL     1     105.017 125.217  79.504  0.00  0.00    +0.000 A 
ATOM     14  C   UNL     1     105.096 123.968  80.125  0.00  0.00    +0.000 A 
ATOM     15  C   UNL     1     104.341 123.752  81.283  0.00  0.00    +0.000 A 
ATOM     16  C   UNL     1     103.565 124.778  81.835  0.00  0.00    +0.000 A 
BRANCH  14  17
ATOM     17  N   UNL     1     105.811 122.891  79.554  0.00  0.00    +0.000 N 
ATOM     18  H   UNL     1     105.344 122.060  79.310  0.00  0.00    +0.000 HD
BRANCH  17  19
ATOM     19  O   UNL     1     107.182 123.017  79.336  0.00  0.00    +0.000 OA
ATOM     20  H   UNL     1     107.640 122.240  79.693  0.00  0.00    +0.000 HD
ENDBRANCH  17  19
ENDBRANCH  14  17
ENDBRANCH   2  11
TORSDOF 5
ENDMDL
