MODEL 1
REMARK VINA RESULT:      -5.0      0.000      0.000
REMARK  Name = *****
REMARK  6 active torsions:
REMARK  status: ('A' for Active; 'I' for Inactive)
REMARK    1  A    between atoms: C_1  and  C_2
REMARK    2  A    between atoms: C_4  and  C_8
REMARK    3  A    between atoms: C_8  and  O_10
REMARK    4  A    between atoms: O_10  and  C_11
REMARK    5  A    between atoms: C_13  and  C_18
REMARK    6  A    between atoms: C_14  and  C_17
REMARK                            x       y       z     vdW  Elec       q    Type
REMARK                         _______ _______ _______ _____ _____    ______ ____
ROOT
ATOM      1  C   UNL     1      87.851  70.592  85.947  0.00  0.00    +0.000 C 
ATOM      2  O   UNL     1      88.113  70.531  84.755  0.00  0.00    +0.000 OA
ENDROOT
BRANCH   1   6
ATOM      3  C   UNL     1      84.926  72.154  89.767  0.00  0.00    +0.000 C 
ATOM      4  C   UNL     1      85.203  72.031  88.297  0.00  0.00    +0.000 A 
ATOM      5  C   UNL     1      86.374  71.400  87.849  0.00  0.00    +0.000 A 
ATOM      6  C   UNL     1      86.624  71.252  86.476  0.00  0.00    +0.000 A 
ATOM      7  C   UNL     1      85.686  71.731  85.552  0.00  0.00    +0.000 A 
ATOM      8  C   UNL     1      84.514  72.346  85.992  0.00  0.00    +0.000 A 
ATOM      9  C   UNL     1      84.272  72.490  87.358  0.00  0.00    +0.000 A 
ENDBRANCH   1   6
BRANCH   1  10
ATOM     10  O   UNL     1      88.600  70.092  86.996  0.00  0.00    +0.000 OA
BRANCH  10  11
ATOM     11  C   UNL     1      88.723  68.700  87.001  0.00  0.00    +0.000 A 
ATOM     12  C   UNL     1      89.784  68.084  86.337  0.00  0.00    +0.000 A 
ATOM     13  C   UNL     1      89.866  66.684  86.295  0.00  0.00    +0.000 A 
ATOM     14  C   UNL     1      88.860  65.913  86.917  0.00  0.00    +0.000 A 
ATOM     15  C   UNL     1      87.789  66.561  87.559  0.00  0.00    +0.000 A 
ATOM     16  C   UNL     1      87.715  67.952  87.597  0.00  0.00    +0.000 A 
ATOM     17  C   UNL     1      88.906  64.409  86.901  0.00  0.00    +0.000 C 
ATOM     18  C   UNL     1      91.030  66.038  85.595  0.00  0.00    +0.000 C 
ENDBRANCH  10  11
ENDBRANCH   1  10
TORSDOF 3
ENDMDL
