MODEL 1
REMARK VINA RESULT:      -4.7      0.000      0.000
REMARK  Name = *****
REMARK  3 active torsions:
REMARK  status: ('A' for Active; 'I' for Inactive)
REMARK    1  A    between atoms: C_2  and  C_3
REMARK    2  A    between atoms: C_7  and  C_9
REMARK    3  A    between atoms: C_10  and  C_11
REMARK                            x       y       z     vdW  Elec       q    Type
REMARK                         _______ _______ _______ _____ _____    ______ ____
ROOT
ATOM      1  C   UNL     1      99.761 129.035  83.410  0.00  0.00    +0.000 A 
ATOM      2  C   UNL     1      98.636 128.361  82.933  0.00  0.00    +0.000 A 
ATOM      3  C   UNL     1      98.763 127.068  82.425  0.00  0.00    +0.000 A 
ATOM      4  C   UNL     1     100.013 126.447  82.398  0.00  0.00    +0.000 A 
ATOM      5  C   UNL     1     101.149 127.106  82.890  0.00  0.00    +0.000 A 
ATOM      6  C   UNL     1     101.012 128.411  83.383  0.00  0.00    +0.000 A 
ENDROOT
BRANCH   1   8
ATOM      7  C   UNL     1      99.529 131.479  84.358  0.00  0.00    +0.000 C 
ATOM      8  C   UNL     1      99.634 130.364  83.925  0.00  0.00    +0.000 C 
ENDBRANCH   1   8
BRANCH   5   9
ATOM      9  C   UNL     1     102.486 126.500  82.848  0.00  0.00    +0.000 C 
ATOM     10  C   UNL     1     102.895 125.645  81.895  0.00  0.00    +0.000 C 
BRANCH  10  11
ATOM     11  C   UNL     1     104.240 124.972  81.780  0.00  0.00    +0.000 C 
ATOM     12  C   UNL     1     104.425 124.334  80.426  0.00  0.00    +0.000 C 
ATOM     13  C   UNL     1     104.695 123.026  80.566  0.00  0.00    +0.000 C 
ATOM     14  C   UNL     1     104.720 122.692  81.967  0.00  0.00    +0.000 C 
ATOM     15  C   UNL     1     104.463 123.791  82.691  0.00  0.00    +0.000 C 
ENDBRANCH  10  11
ENDBRANCH   5   9
TORSDOF 3
ENDMDL
