MODEL 1
REMARK VINA RESULT:      -4.7      0.000      0.000
REMARK  Name = *****
REMARK  2 active torsions:
REMARK  status: ('A' for Active; 'I' for Inactive)
REMARK    1  A    between atoms: C_4  and  N_7
REMARK    2  A    between atoms: C_8  and  C_9
REMARK                            x       y       z     vdW  Elec       q    Type
REMARK                         _______ _______ _______ _____ _____    ______ ____
ROOT
ATOM      1  N   UNL     1     101.723 125.912  82.366  0.00  0.00    +0.000 NA
ATOM      2  C   UNL     1     102.700 126.219  81.573  0.00  0.00    +0.000 C 
ENDROOT
BRANCH   2   3
ATOM      3  C   UNL     1     103.693 125.219  81.139  0.00  0.00    +0.000 A 
ATOM      4  C   UNL     1     104.407 125.390  79.950  0.00  0.00    +0.000 A 
ATOM      5  C   UNL     1     105.338 124.427  79.569  0.00  0.00    +0.000 A 
ATOM      6  C   UNL     1     105.560 123.301  80.362  0.00  0.00    +0.000 A 
ATOM      7  C   UNL     1     104.846 123.134  81.550  0.00  0.00    +0.000 A 
ATOM      8  C   UNL     1     103.910 124.093  81.941  0.00  0.00    +0.000 A 
ATOM      9 CL   UNL     1     106.223 124.624  78.106  0.00  0.00    +0.000 Cl
ENDBRANCH   2   3
BRANCH   1  13
ATOM     10  C   UNL     1      99.117 129.045  83.390  0.00  0.00    +0.000 A 
ATOM     11  C   UNL     1      98.621 127.904  82.761  0.00  0.00    +0.000 A 
ATOM     12  C   UNL     1      99.487 126.863  82.421  0.00  0.00    +0.000 A 
ATOM     13  C   UNL     1     100.854 126.961  82.697  0.00  0.00    +0.000 A 
ATOM     14  C   UNL     1     101.341 128.101  83.342  0.00  0.00    +0.000 A 
ATOM     15  C   UNL     1     100.476 129.143  83.684  0.00  0.00    +0.000 A 
ENDBRANCH   1  13
TORSDOF 2
ENDMDL
