REMARK  Name = *****
REMARK  2 active torsions:
REMARK  status: ('A' for Active; 'I' for Inactive)
REMARK    1  A    between atoms: C_4  and  C_7
REMARK    2  A    between atoms: C_8  and  C_9
REMARK                            x       y       z     vdW  Elec       q    Type
REMARK                         _______ _______ _______ _____ _____    ______ ____
ROOT
ATOM      1  C   UNL     1      -2.802   0.513  -0.219  0.00  0.00    +0.000 C 
ATOM      2  C   UNL     1      -3.382   1.724  -0.262  0.00  0.00    +0.000 C 
ATOM      3  F   UNL     1      -3.575  -0.598  -0.253  0.00  0.00    +0.000 F 
ENDROOT
BRANCH   2   4
ATOM      4  C   UNL     1      -4.828   1.970  -0.365  0.00  0.00    +0.000 A 
ATOM      5  C   UNL     1      -5.776   1.191   0.313  0.00  0.00    +0.000 A 
ATOM      6  C   UNL     1      -7.140   1.482   0.218  0.00  0.00    +0.000 A 
ATOM      7  C   UNL     1      -7.564   2.566  -0.546  0.00  0.00    +0.000 A 
ATOM      8  C   UNL     1      -6.636   3.363  -1.213  0.00  0.00    +0.000 A 
ATOM      9  C   UNL     1      -5.273   3.068  -1.117  0.00  0.00    +0.000 A 
ATOM     10 BR   UNL     1      -9.407   2.964  -0.674  0.00  0.00    +0.000 Br
ENDBRANCH   2   4
BRANCH   1  14
ATOM     11  C   UNL     1       1.402  -0.262   0.131  0.00  0.00    +0.000 A 
ATOM     12  C   UNL     1       0.466  -1.170   0.619  0.00  0.00    +0.000 A 
ATOM     13  C   UNL     1      -0.899  -0.900   0.497  0.00  0.00    +0.000 A 
ATOM     14  C   UNL     1      -1.349   0.285  -0.105  0.00  0.00    +0.000 A 
ATOM     15  C   UNL     1      -0.393   1.182  -0.604  0.00  0.00    +0.000 A 
ATOM     16  C   UNL     1       0.973   0.912  -0.484  0.00  0.00    +0.000 A 
ENDBRANCH   1  14
TORSDOF 2
