REMARK  Name = *****
REMARK  2 active torsions:
REMARK  status: ('A' for Active; 'I' for Inactive)
REMARK    1  A    between atoms: C_6  and  C_7
REMARK    2  A    between atoms: C_8  and  C_9
REMARK                            x       y       z     vdW  Elec       q    Type
REMARK                         _______ _______ _______ _____ _____    ______ ____
ROOT
ATOM      1  C   UNL     1       1.311   2.616  -0.271  0.00  0.00    +0.000 C 
ATOM      2  C   UNL     1       1.845   3.687  -0.383  0.00  0.00    +0.000 C 
ENDROOT
BRANCH   1   8
ATOM      3  C   UNL     1      -0.721   1.260  -0.087  0.00  0.00    +0.000 A 
ATOM      4  C   UNL     1      -1.342   0.016   0.041  0.00  0.00    +0.000 A 
ATOM      5  C   UNL     1      -0.563  -1.134   0.117  0.00  0.00    +0.000 A 
ATOM      6  C   UNL     1       0.825  -1.064   0.067  0.00  0.00    +0.000 A 
ATOM      7  C   UNL     1       1.447   0.179  -0.061  0.00  0.00    +0.000 A 
ATOM      8  C   UNL     1       0.674   1.342  -0.138  0.00  0.00    +0.000 A 
ATOM      9  F   UNL     1      -1.159  -2.327   0.239  0.00  0.00    +0.000 F 
ENDBRANCH   1   8
BRANCH   2  10
ATOM     10  C   UNL     1       2.479   4.961  -0.518  0.00  0.00    +0.000 A 
ATOM     11  C   UNL     1       1.822   6.115  -0.103  0.00  0.00    +0.000 A 
ATOM     12  C   UNL     1       2.486   7.316  -0.261  0.00  0.00    +0.000 A 
ATOM     13  N   UNL     1       3.722   7.445  -0.786  0.00  0.00    +0.000 NA
ATOM     14  C   UNL     1       4.330   6.306  -1.177  0.00  0.00    +0.000 A 
ATOM     15  C   UNL     1       3.756   5.051  -1.065  0.00  0.00    +0.000 A 
ATOM     16 CL   UNL     1       1.757   8.792   0.219  0.00  0.00    +0.000 Cl
ENDBRANCH   2  10
TORSDOF 2
