MODEL 1
REMARK VINA RESULT:      -4.8      0.000      0.000
REMARK  Name = *****
REMARK  7 active torsions:
REMARK  status: ('A' for Active; 'I' for Inactive)
REMARK    1  A    between atoms: C_1  and  C_2
REMARK    2  A    between atoms: C_4  and  C_19
REMARK    3  A    between atoms: C_5  and  N_9
REMARK    4  A    between atoms: C_6  and  C_8
REMARK    5  A    between atoms: N_9  and  S_10
REMARK    6  A    between atoms: S_10  and  C_12
REMARK    7  A    between atoms: S_10  and  C_13
REMARK                            x       y       z     vdW  Elec       q    Type
REMARK                         _______ _______ _______ _____ _____    ______ ____
ROOT
ATOM      1  N   UNL     1     102.665 126.815  83.274  0.00  0.00    +0.000 NA
ENDROOT
BRANCH   1   6
ATOM      2  C   UNL     1     105.251 122.626  80.286  0.00  0.00    +0.000 C 
ATOM      3  C   UNL     1     104.554 123.722  81.038  0.00  0.00    +0.000 A 
ATOM      4  C   UNL     1     104.161 124.898  80.394  0.00  0.00    +0.000 A 
ATOM      5  C   UNL     1     103.555 125.956  81.101  0.00  0.00    +0.000 A 
ATOM      6  C   UNL     1     103.293 125.803  82.476  0.00  0.00    +0.000 A 
ATOM      7  C   UNL     1     103.715 124.629  83.140  0.00  0.00    +0.000 A 
ATOM      8  C   UNL     1     104.346 123.605  82.413  0.00  0.00    +0.000 A 
ATOM      9  C   UNL     1     103.557 124.459  84.628  0.00  0.00    +0.000 C 
ATOM     10  C   UNL     1     103.230 127.204  80.330  0.00  0.00    +0.000 C 
ENDBRANCH   1   6
BRANCH   1  11
ATOM     11  S   UNL     1     101.133 127.016  83.330  0.00  0.00    +0.000 S 
ATOM     12  O   UNL     1     100.207 126.724  82.252  0.00  0.00    +0.000 OA
ATOM     13  C   UNL     1     100.512 126.193  84.781  0.00  0.00    +0.000 C 
BRANCH  11  14
ATOM     14  C   UNL     1     100.865 128.737  83.754  0.00  0.00    +0.000 A 
ATOM     15  C   UNL     1      99.631 129.343  83.502  0.00  0.00    +0.000 A 
ATOM     16  C   UNL     1      99.446 130.687  83.829  0.00  0.00    +0.000 A 
ATOM     17  C   UNL     1     100.486 131.417  84.406  0.00  0.00    +0.000 A 
ATOM     18  C   UNL     1     101.713 130.804  84.667  0.00  0.00    +0.000 A 
ATOM     19  C   UNL     1     101.906 129.460  84.346  0.00  0.00    +0.000 A 
ENDBRANCH  11  14
ENDBRANCH   1  11
TORSDOF 3
ENDMDL
