MODEL 1
REMARK VINA RESULT:      -5.0      0.000      0.000
REMARK  Name = *****
REMARK  5 active torsions:
REMARK  status: ('A' for Active; 'I' for Inactive)
REMARK    1  A    between atoms: C_1  and  C_2
REMARK    2  A    between atoms: C_5  and  S_8
REMARK    3  A    between atoms: S_8  and  N_10
REMARK    4  A    between atoms: N_10  and  C_11
REMARK    5  A    between atoms: C_12  and  C_18
REMARK                            x       y       z     vdW  Elec       q    Type
REMARK                         _______ _______ _______ _____ _____    ______ ____
ROOT
ATOM      1  N   UNL     1      89.212  63.844  87.747  0.00  0.00    +0.000 N 
ATOM      2  H   UNL     1      90.006  63.941  88.320  0.00  0.00    +0.000 HD
ENDROOT
BRANCH   1   3
ATOM      3  C   UNL     1      88.022  63.358  88.327  0.00  0.00    +0.000 A 
ATOM      4  C   UNL     1      87.843  63.386  89.731  0.00  0.00    +0.000 A 
ATOM      5  C   UNL     1      86.652  62.889  90.292  0.00  0.00    +0.000 A 
ATOM      6  C   UNL     1      85.652  62.360  89.480  0.00  0.00    +0.000 A 
ATOM      7  C   UNL     1      85.821  62.312  88.103  0.00  0.00    +0.000 A 
ATOM      8  C   UNL     1      87.000  62.804  87.535  0.00  0.00    +0.000 A 
ATOM      9 CL   UNL     1      84.203  61.758  90.186  0.00  0.00    +0.000 Cl
ATOM     10  C   UNL     1      88.889  63.952  90.654  0.00  0.00    +0.000 C 
ENDBRANCH   1   3
BRANCH   1  11
ATOM     11  S   UNL     1      89.344  64.264  86.132  0.00  0.00    +0.000 S 
ATOM     12  O   UNL     1      90.782  64.127  85.730  0.00  0.00    +0.000 OA
BRANCH  11  17
ATOM     13  C   UNL     1      88.677  70.246  87.334  0.00  0.00    +0.000 C 
ATOM     14  C   UNL     1      88.826  68.788  87.014  0.00  0.00    +0.000 A 
ATOM     15  C   UNL     1      89.961  68.326  86.336  0.00  0.00    +0.000 A 
ATOM     16  C   UNL     1      90.118  66.965  86.064  0.00  0.00    +0.000 A 
ATOM     17  C   UNL     1      89.150  66.045  86.478  0.00  0.00    +0.000 A 
ATOM     18  C   UNL     1      88.017  66.504  87.160  0.00  0.00    +0.000 A 
ATOM     19  C   UNL     1      87.862  67.865  87.434  0.00  0.00    +0.000 A 
ENDBRANCH  11  17
ENDBRANCH   1  11
TORSDOF 3
ENDMDL
