MODEL 1
REMARK VINA RESULT:      -3.7      0.000      0.000
REMARK  Name = *****
REMARK  3 active torsions:
REMARK  status: ('A' for Active; 'I' for Inactive)
REMARK    1  A    between atoms: P_5  and  C_6
REMARK    2  A    between atoms: C_6  and  C_7
REMARK    3  A    between atoms: C_7  and  C_8
REMARK                            x       y       z     vdW  Elec       q    Type
REMARK                         _______ _______ _______ _____ _____    ______ ____
ROOT
ATOM      1  C   UNL     1      96.712 116.527  81.896  0.00  0.00    +0.000 C 
ENDROOT
BRANCH   1   2
ATOM      2  C   UNL     1      96.747 116.073  80.454  0.00  0.00    +0.000 A 
ATOM      3  C   UNL     1      97.555 116.734  79.518  0.00  0.00    +0.000 A 
ATOM      4  C   UNL     1      97.582 116.315  78.186  0.00  0.00    +0.000 A 
ATOM      5  C   UNL     1      96.805 115.231  77.784  0.00  0.00    +0.000 A 
ATOM      6  C   UNL     1      96.000 114.563  78.703  0.00  0.00    +0.000 A 
ATOM      7  C   UNL     1      95.969 114.984  80.035  0.00  0.00    +0.000 A 
ATOM      8 CL   UNL     1      96.842 114.713  76.145  0.00  0.00    +0.000 Cl
ENDBRANCH   1   2
BRANCH   1   9
ATOM      9  C   UNL     1      95.930 117.832  82.070  0.00  0.00    +0.000 C 
BRANCH   9  14
ATOM     10  C   UNL     1      98.571 118.629  82.779  0.00  0.00    +0.000 C 
ATOM     11  C   UNL     1      98.783 119.464  81.570  0.00  0.00    +0.000 C 
ATOM     12  C   UNL     1      97.872 120.388  81.247  0.00  0.00    +0.000 C 
ATOM     13  C   UNL     1      96.673 120.556  82.103  0.00  0.00    +0.000 C 
ATOM     14  P   UNL     1      96.832 119.056  83.138  0.00  0.00    +0.000 P 
ENDBRANCH   9  14
ENDBRANCH   1   9
TORSDOF 3
ENDMDL
