MODEL 1
REMARK VINA RESULT:      -4.7      0.000      0.000
REMARK  Name = *****
REMARK  2 active torsions:
REMARK  status: ('A' for Active; 'I' for Inactive)
REMARK    1  A    between atoms: C_5  and  C_8
REMARK    2  A    between atoms: C_9  and  C_10
REMARK                            x       y       z     vdW  Elec       q    Type
REMARK                         _______ _______ _______ _____ _____    ______ ____
ROOT
ATOM      1  C   UNL     1      89.260  68.717  87.092  0.00  0.00    +0.000 C 
ATOM      2  C   UNL     1      90.044  68.046  86.230  0.00  0.00    +0.000 C 
ENDROOT
BRANCH   1   7
ATOM      3  C   UNL     1      87.533  71.353  84.754  0.00  0.00    +0.000 C 
ATOM      4  C   UNL     1      86.604  71.254  85.710  0.00  0.00    +0.000 C 
ATOM      5  C   UNL     1      86.806  71.140  87.129  0.00  0.00    +0.000 C 
ATOM      6  C   UNL     1      87.892  70.673  87.761  0.00  0.00    +0.000 C 
ATOM      7  C   UNL     1      89.218  70.220  87.208  0.00  0.00    +0.000 C 
ATOM      8  C   UNL     1      89.676  70.864  85.924  0.00  0.00    +0.000 C 
ATOM      9  C   UNL     1      88.963  71.370  84.909  0.00  0.00    +0.000 C 
ENDBRANCH   1   7
BRANCH   2  10
ATOM     10  C   UNL     1      90.090  66.581  86.118  0.00  0.00    +0.000 A 
ATOM     11  C   UNL     1      89.089  65.756  86.649  0.00  0.00    +0.000 A 
ATOM     12  C   UNL     1      89.152  64.369  86.491  0.00  0.00    +0.000 A 
ATOM     13  C   UNL     1      90.211  63.793  85.792  0.00  0.00    +0.000 A 
ATOM     14  C   UNL     1      91.204  64.603  85.246  0.00  0.00    +0.000 A 
ATOM     15  C   UNL     1      91.140  65.990  85.403  0.00  0.00    +0.000 A 
ENDBRANCH   2  10
TORSDOF 2
ENDMDL
