REMARK  Name = *****
REMARK  3 active torsions:
REMARK  status: ('A' for Active; 'I' for Inactive)
REMARK    1  A    between atoms: C_1  and  C_2
REMARK    2  A    between atoms: C_5  and  C_8
REMARK    3  A    between atoms: C_9  and  C_10
REMARK                            x       y       z     vdW  Elec       q    Type
REMARK                         _______ _______ _______ _____ _____    ______ ____
ROOT
ATOM      1  C   UNL     1       1.164   0.083   0.174  0.00  0.00    +0.000 C 
ATOM      2  C   UNL     1       2.657   0.131   0.040  0.00  0.00    +0.000 A 
ATOM      3  C   UNL     1       3.333   1.355  -0.049  0.00  0.00    +0.000 A 
ATOM      4  C   UNL     1       4.723   1.389  -0.215  0.00  0.00    +0.000 A 
ATOM      5  C   UNL     1       5.452   0.197  -0.299  0.00  0.00    +0.000 A 
ATOM      6  C   UNL     1       4.779  -1.025  -0.196  0.00  0.00    +0.000 A 
ATOM      7  C   UNL     1       3.392  -1.058  -0.029  0.00  0.00    +0.000 A 
ATOM      8 BR   UNL     1       5.553   3.096  -0.336  0.00  0.00    +0.000 Br
ENDROOT
BRANCH   5   9
ATOM      9  C   UNL     1       6.866   0.178  -0.534  0.00  0.00    +0.000 C 
ATOM     10  C   UNL     1       8.040   0.179  -0.790  0.00  0.00    +0.000 C 
BRANCH  10  11
ATOM     11  C   UNL     1       9.421   0.210  -1.159  0.00  0.00    +0.000 A 
ATOM     12  C   UNL     1      10.063   1.436  -1.347  0.00  0.00    +0.000 A 
ATOM     13  C   UNL     1      11.400   1.471  -1.746  0.00  0.00    +0.000 A 
ATOM     14  C   UNL     1      12.097   0.280  -1.955  0.00  0.00    +0.000 A 
ATOM     15  C   UNL     1      11.458  -0.945  -1.762  0.00  0.00    +0.000 A 
ATOM     16  C   UNL     1      10.121  -0.981  -1.364  0.00  0.00    +0.000 A 
ENDBRANCH  10  11
ENDBRANCH   5   9
TORSDOF 2
