MODEL 1
REMARK VINA RESULT:      -4.7      0.000      0.000
REMARK  Name = *****
REMARK  5 active torsions:
REMARK  status: ('A' for Active; 'I' for Inactive)
REMARK    1  A    between atoms: C_1  and  O_2
REMARK    2  A    between atoms: O_2  and  C_3
REMARK    3  A    between atoms: C_6  and  C_9
REMARK    4  A    between atoms: C_9  and  C_10
REMARK    5  A    between atoms: C_10  and  C_11
REMARK                            x       y       z     vdW  Elec       q    Type
REMARK                         _______ _______ _______ _____ _____    ______ ____
ROOT
ATOM      1  C   UNL     1     103.394 127.694  81.696  0.00  0.00    +0.000 C 
ATOM      2 CL   UNL     1     104.683 128.934  81.562  0.00  0.00    +0.000 Cl
ENDROOT
BRANCH   1   6
ATOM      3  C   UNL     1     104.760 123.749  80.489  0.00  0.00    +0.000 A 
ATOM      4  C   UNL     1     104.974 124.859  79.674  0.00  0.00    +0.000 A 
ATOM      5  C   UNL     1     104.541 126.127  80.081  0.00  0.00    +0.000 A 
ATOM      6  C   UNL     1     103.890 126.312  81.313  0.00  0.00    +0.000 A 
ATOM      7  C   UNL     1     103.679 125.186  82.122  0.00  0.00    +0.000 A 
ATOM      8  C   UNL     1     104.114 123.921  81.713  0.00  0.00    +0.000 A 
BRANCH   3  10
ATOM      9  C   UNL     1     104.775 121.472  81.171  0.00  0.00    +0.000 C 
ATOM     10  O   UNL     1     105.123 122.461  80.210  0.00  0.00    +0.000 OA
ENDBRANCH   3  10
ENDBRANCH   1   6
BRANCH   1  11
ATOM     11  C   UNL     1     102.663 127.758  83.053  0.00  0.00    +0.000 C 
BRANCH  11  12
ATOM     12  C   UNL     1     101.151 127.800  83.020  0.00  0.00    +0.000 A 
ATOM     13  C   UNL     1     100.417 126.742  82.467  0.00  0.00    +0.000 A 
ATOM     14  C   UNL     1      99.022 126.791  82.429  0.00  0.00    +0.000 A 
ATOM     15  C   UNL     1      98.347 127.896  82.944  0.00  0.00    +0.000 A 
ATOM     16  C   UNL     1      99.066 128.952  83.499  0.00  0.00    +0.000 A 
ATOM     17  C   UNL     1     100.460 128.904  83.539  0.00  0.00    +0.000 A 
ENDBRANCH  11  12
ENDBRANCH   1  11
TORSDOF 4
ENDMDL
