MODEL 1
REMARK VINA RESULT:      -4.2      0.000      0.000
REMARK  Name = *****
REMARK  6 active torsions:
REMARK  status: ('A' for Active; 'I' for Inactive)
REMARK    1  A    between atoms: C_1  and  C_2
REMARK    2  A    between atoms: C_2  and  O_3
REMARK    3  A    between atoms: O_3  and  S_4
REMARK    4  A    between atoms: S_4  and  N_5
REMARK    5  A    between atoms: S_4  and  C_13
REMARK    6  A    between atoms: N_5  and  C_6
REMARK                            x       y       z     vdW  Elec       q    Type
REMARK                         _______ _______ _______ _____ _____    ______ ____
ROOT
ATOM      1  S   UNL     1     102.544 125.966  82.864  0.00  0.00    +0.000 S 
ATOM      2  O   UNL     1     102.454 125.085  84.009  0.00  0.00    +0.000 OA
ENDROOT
BRANCH   1   3
ATOM      3  C   UNL     1     101.135 127.041  82.951  0.00  0.00    +0.000 A 
ATOM      4  C   UNL     1     101.269 128.293  83.557  0.00  0.00    +0.000 A 
ATOM      5  C   UNL     1     100.160 129.134  83.644  0.00  0.00    +0.000 A 
ATOM      6  C   UNL     1      98.931 128.723  83.124  0.00  0.00    +0.000 A 
ATOM      7  C   UNL     1      98.804 127.472  82.515  0.00  0.00    +0.000 A 
ATOM      8  C   UNL     1      99.909 126.624  82.425  0.00  0.00    +0.000 A 
ENDBRANCH   1   3
BRANCH   1   9
ATOM      9  O   UNL     1     103.840 126.931  83.061  0.00  0.00    +0.000 OA
BRANCH   9  11
ATOM     10  C   UNL     1     106.145 126.384  83.291  0.00  0.00    +0.000 C 
ATOM     11  C   UNL     1     104.820 126.536  84.010  0.00  0.00    +0.000 C 
ENDBRANCH   9  11
ENDBRANCH   1   9
BRANCH   1  12
ATOM     12  N   UNL     1     102.787 125.560  81.408  0.00  0.00    +0.000 NA
BRANCH  12  13
ATOM     13  C   UNL     1     103.893 124.859  80.840  0.00  0.00    +0.000 A 
ATOM     14  C   UNL     1     104.315 123.576  81.195  0.00  0.00    +0.000 A 
ATOM     15  C   UNL     1     105.422 122.992  80.569  0.00  0.00    +0.000 A 
ATOM     16  C   UNL     1     106.115 123.686  79.579  0.00  0.00    +0.000 A 
ATOM     17  C   UNL     1     105.700 124.964  79.212  0.00  0.00    +0.000 A 
ATOM     18  C   UNL     1     104.593 125.542  79.840  0.00  0.00    +0.000 A 
ENDBRANCH  12  13
ENDBRANCH   1  12
TORSDOF 5
ENDMDL
