MODEL 1
REMARK VINA RESULT:      -4.2      0.000      0.000
REMARK  Name = *****
REMARK  4 active torsions:
REMARK  status: ('A' for Active; 'I' for Inactive)
REMARK    1  A    between atoms: C_1  and  C_2
REMARK    2  A    between atoms: C_7  and  S_8
REMARK    3  A    between atoms: S_8  and  N_9
REMARK    4  A    between atoms: N_9  and  C_10
REMARK                            x       y       z     vdW  Elec       q    Type
REMARK                         _______ _______ _______ _____ _____    ______ ____
ROOT
ATOM      1  S   UNL     1      87.191  63.568  86.380  0.00  0.00    +0.000 S 
ENDROOT
BRANCH   1   8
ATOM      2  C   UNL     1      87.793  66.499  87.520  0.00  0.00    +0.000 C 
ATOM      3  C   UNL     1      88.832  65.848  86.648  0.00  0.00    +0.000 A 
ATOM      4  C   UNL     1      90.028  66.539  86.388  0.00  0.00    +0.000 A 
ATOM      5  C   UNL     1      91.024  65.977  85.590  0.00  0.00    +0.000 A 
ATOM      6  C   UNL     1      90.843  64.711  85.042  0.00  0.00    +0.000 A 
ATOM      7  C   UNL     1      89.666  64.006  85.298  0.00  0.00    +0.000 A 
ATOM      8  C   UNL     1      88.659  64.559  86.104  0.00  0.00    +0.000 A 
ENDBRANCH   1   8
BRANCH   1   9
ATOM      9  N   UNL     1      87.724  62.678  87.682  0.00  0.00    +0.000 N 
ATOM     10  H   UNL     1      88.055  61.766  87.520  0.00  0.00    +0.000 HD
BRANCH   9  11
ATOM     11  C   UNL     1      87.724  63.167  89.008  0.00  0.00    +0.000 A 
ATOM     12  C   UNL     1      86.559  63.482  89.722  0.00  0.00    +0.000 A 
ATOM     13  C   UNL     1      86.625  64.029  91.009  0.00  0.00    +0.000 A 
ATOM     14  C   UNL     1      87.860  64.295  91.595  0.00  0.00    +0.000 A 
ATOM     15  C   UNL     1      89.028  64.022  90.890  0.00  0.00    +0.000 A 
ATOM     16  C   UNL     1      88.958  63.474  89.605  0.00  0.00    +0.000 A 
ENDBRANCH   9  11
ENDBRANCH   1   9
TORSDOF 3
ENDMDL
