MODEL 1
REMARK VINA RESULT:      -4.3      0.000      0.000
REMARK  Name = *****
REMARK  4 active torsions:
REMARK  status: ('A' for Active; 'I' for Inactive)
REMARK    1  A    between atoms: C_1  and  S_2
REMARK    2  A    between atoms: S_2  and  C_3
REMARK    3  A    between atoms: C_3  and  C_12
REMARK    4  A    between atoms: C_4  and  C_5
REMARK                            x       y       z     vdW  Elec       q    Type
REMARK                         _______ _______ _______ _____ _____    ______ ____
ROOT
ATOM      1  C   UNL     1     102.642 126.747  82.396  0.00  0.00    +0.000 C 
ATOM      2  C   UNL     1     102.660 125.573  81.736  0.00  0.00    +0.000 C 
ENDROOT
BRANCH   2   3
ATOM      3  C   UNL     1     103.862 124.849  81.305  0.00  0.00    +0.000 A 
ATOM      4  C   UNL     1     104.550 123.954  82.126  0.00  0.00    +0.000 A 
ATOM      5  N   UNL     1     105.662 123.274  81.761  0.00  0.00    +0.000 NA
ATOM      6  C   UNL     1     106.112 123.489  80.508  0.00  0.00    +0.000 A 
ATOM      7  C   UNL     1     105.508 124.353  79.609  0.00  0.00    +0.000 A 
ATOM      8  C   UNL     1     104.368 125.043  80.016  0.00  0.00    +0.000 A 
ATOM      9 CL   UNL     1     104.052 123.610  83.740  0.00  0.00    +0.000 Cl
ENDBRANCH   2   3
BRANCH   1  10
ATOM     10  C   UNL     1     101.348 127.365  82.743  0.00  0.00    +0.000 A 
ATOM     11  C   UNL     1     101.297 128.572  83.452  0.00  0.00    +0.000 A 
ATOM     12  C   UNL     1     100.069 129.148  83.787  0.00  0.00    +0.000 A 
ATOM     13  C   UNL     1      98.881 128.520  83.416  0.00  0.00    +0.000 A 
ATOM     14  C   UNL     1      98.918 127.317  82.713  0.00  0.00    +0.000 A 
ATOM     15  C   UNL     1     100.146 126.741  82.378  0.00  0.00    +0.000 A 
ENDBRANCH   1  10
BRANCH   1  17
ATOM     16  C   UNL     1     104.396 128.572  81.412  0.00  0.00    +0.000 C 
ATOM     17  S   UNL     1     104.068 127.601  82.901  0.00  0.00    +0.000 S 
ENDBRANCH   1  17
TORSDOF 3
ENDMDL
