MODEL 1
REMARK VINA RESULT:      -4.4      0.000      0.000
REMARK  Name = *****
REMARK  5 active torsions:
REMARK  status: ('A' for Active; 'I' for Inactive)
REMARK    1  A    between atoms: C_1  and  O_2
REMARK    2  A    between atoms: O_2  and  N_3
REMARK    3  A    between atoms: C_4  and  C_5
REMARK    4  A    between atoms: C_4  and  C_12
REMARK    5  A    between atoms: C_5  and  C_6
REMARK                            x       y       z     vdW  Elec       q    Type
REMARK                         _______ _______ _______ _____ _____    ______ ____
ROOT
ATOM      1  N   UNL     1      89.888  67.959  83.546  0.00  0.00    +0.000 NA
ATOM      2  C   UNL     1      89.827  68.778  84.560  0.00  0.00    +0.000 C 
ENDROOT
BRANCH   2   3
ATOM      3  C   UNL     1      89.532  70.224  84.274  0.00  0.00    +0.000 A 
ATOM      4  C   UNL     1      90.608  71.107  84.077  0.00  0.00    +0.000 A 
ATOM      5  C   UNL     1      90.380  72.458  83.807  0.00  0.00    +0.000 A 
ATOM      6  C   UNL     1      89.076  72.930  83.738  0.00  0.00    +0.000 A 
ATOM      7  C   UNL     1      87.997  72.077  83.937  0.00  0.00    +0.000 A 
ATOM      8  C   UNL     1      88.223  70.723  84.205  0.00  0.00    +0.000 A 
ATOM      9  F   UNL     1      88.854  74.226  83.479  0.00  0.00    +0.000 F 
ENDBRANCH   2   3
BRANCH   1  11
ATOM     10  C   UNL     1      89.222  65.780  83.313  0.00  0.00    +0.000 C 
ATOM     11  O   UNL     1      90.158  66.644  83.945  0.00  0.00    +0.000 OA
ENDBRANCH   1  11
BRANCH   2  12
ATOM     12  C   UNL     1      90.017  68.344  86.013  0.00  0.00    +0.000 C 
BRANCH  12  13
ATOM     13  C   UNL     1      89.058  68.977  86.998  0.00  0.00    +0.000 A 
ATOM     14  C   UNL     1      87.819  68.363  87.247  0.00  0.00    +0.000 A 
ATOM     15  C   UNL     1      86.923  68.910  88.167  0.00  0.00    +0.000 A 
ATOM     16  C   UNL     1      87.260  70.070  88.861  0.00  0.00    +0.000 A 
ATOM     17  C   UNL     1      88.493  70.677  88.642  0.00  0.00    +0.000 A 
ATOM     18  C   UNL     1      89.390  70.130  87.721  0.00  0.00    +0.000 A 
ENDBRANCH  12  13
ENDBRANCH   2  12
TORSDOF 4
ENDMDL
