REMARK  Name = *****
REMARK  3 active torsions:
REMARK  status: ('A' for Active; 'I' for Inactive)
REMARK    1  A    between atoms: C_4  and  C_7
REMARK    2  A    between atoms: C_7  and  N_8
REMARK    3  A    between atoms: N_8  and  C_9
REMARK                            x       y       z     vdW  Elec       q    Type
REMARK                         _______ _______ _______ _____ _____    ______ ____
ROOT
ATOM      1  N   UNL     1      -3.545  -0.825  -0.484  0.00  0.00    +0.000 N 
ATOM      2  H   UNL     1      -3.072  -1.672  -0.314  0.00  0.00    +0.000 HD
ENDROOT
BRANCH   1   3
ATOM      3  C   UNL     1      -4.949  -0.789  -0.539  0.00  0.00    +0.000 A 
ATOM      4  C   UNL     1      -5.639   0.073  -1.404  0.00  0.00    +0.000 A 
ATOM      5  C   UNL     1      -7.036   0.045  -1.498  0.00  0.00    +0.000 A 
ATOM      6  C   UNL     1      -7.772  -0.866  -0.746  0.00  0.00    +0.000 A 
ATOM      7  C   UNL     1      -7.112  -1.758   0.095  0.00  0.00    +0.000 A 
ATOM      8  C   UNL     1      -5.716  -1.727   0.186  0.00  0.00    +0.000 A 
ATOM      9 CL   UNL     1      -4.948  -2.858   1.250  0.00  0.00    +0.000 Cl
ENDBRANCH   1   3
BRANCH   1  10
ATOM     10  C   UNL     1      -2.799   0.410  -0.683  0.00  0.00    +0.000 C 
BRANCH  10  14
ATOM     11  C   UNL     1       1.333  -0.260   0.367  0.00  0.00    +0.000 A 
ATOM     12  C   UNL     1       0.800  -0.847  -0.779  0.00  0.00    +0.000 A 
ATOM     13  C   UNL     1      -0.536  -0.628  -1.118  0.00  0.00    +0.000 A 
ATOM     14  C   UNL     1      -1.351   0.185  -0.315  0.00  0.00    +0.000 A 
ATOM     15  C   UNL     1      -0.805   0.762   0.840  0.00  0.00    +0.000 A 
ATOM     16  C   UNL     1       0.532   0.542   1.177  0.00  0.00    +0.000 A 
ENDBRANCH  10  14
ENDBRANCH   1  10
TORSDOF 3
