REMARK  Name = *****
REMARK  4 active torsions:
REMARK  status: ('A' for Active; 'I' for Inactive)
REMARK    1  A    between atoms: C_1  and  C_2
REMARK    2  A    between atoms: C_5  and  C_8
REMARK    3  A    between atoms: C_8  and  C_9
REMARK    4  A    between atoms: C_9  and  C_11
REMARK                            x       y       z     vdW  Elec       q    Type
REMARK                         _______ _______ _______ _____ _____    ______ ____
ROOT
ATOM      1  C   UNL     1      -2.800   2.335   0.521  0.00  0.00    +0.000 C 
ATOM      2  O   UNL     1      -2.451   2.896   1.555  0.00  0.00    +0.000 OA
ENDROOT
BRANCH   1   3
ATOM      3  C   UNL     1      -4.226   2.323   0.116  0.00  0.00    +0.000 C 
ATOM      4  C   UNL     1      -4.790   3.032  -1.103  0.00  0.00    +0.000 C 
ATOM      5  C   UNL     1      -5.138   3.519   0.276  0.00  0.00    +0.000 C 
ATOM      6  C   UNL     1      -4.747   4.995   0.254  0.00  0.00    +0.000 C 
ATOM      7  C   UNL     1      -5.810   5.717  -0.610  0.00  0.00    +0.000 C 
ATOM      8  C   UNL     1      -5.476   5.217  -2.039  0.00  0.00    +0.000 C 
ATOM      9  C   UNL     1      -4.260   4.285  -1.799  0.00  0.00    +0.000 C 
ATOM     10  C   UNL     1      -3.545   5.072  -0.697  0.00  0.00    +0.000 C 
ENDBRANCH   1   3
BRANCH   1  11
ATOM     11  C   UNL     1      -1.861   1.523  -0.343  0.00  0.00    +0.000 C 
BRANCH  11  16
ATOM     12  C   UNL     1      -1.750  -4.073   1.280  0.00  0.00    +0.000 C 
ATOM     13  C   UNL     1      -1.740  -2.637   0.849  0.00  0.00    +0.000 A 
ATOM     14  C   UNL     1      -2.139  -2.282  -0.445  0.00  0.00    +0.000 A 
ATOM     15  C   UNL     1      -2.171  -0.940  -0.836  0.00  0.00    +0.000 A 
ATOM     16  C   UNL     1      -1.815   0.071   0.065  0.00  0.00    +0.000 A 
ATOM     17  C   UNL     1      -1.416  -0.288   1.360  0.00  0.00    +0.000 A 
ATOM     18  C   UNL     1      -1.389  -1.628   1.751  0.00  0.00    +0.000 A 
ENDBRANCH  11  16
ENDBRANCH   1  11
TORSDOF 3
