MODEL 1
REMARK VINA RESULT:      -4.4      0.000      0.000
REMARK  Name = *****
REMARK  1 active torsions:
REMARK  status: ('A' for Active; 'I' for Inactive)
REMARK    1  A    between atoms: P_9  and  C_11
REMARK                            x       y       z     vdW  Elec       q    Type
REMARK                         _______ _______ _______ _____ _____    ______ ____
ROOT
ATOM      1  C   UNL     1     104.952 123.680  80.680  0.00  0.00    +0.000 C 
ATOM      2  C   UNL     1     104.332 123.527  82.066  0.00  0.00    +0.000 C 
ATOM      3  C   UNL     1     104.814 124.557  83.085  0.00  0.00    +0.000 C 
ATOM      4  C   UNL     1     104.225 125.931  82.906  0.00  0.00    +0.000 C 
ATOM      5  C   UNL     1     104.324 126.668  81.788  0.00  0.00    +0.000 C 
ATOM      6  C   UNL     1     105.041 126.238  80.536  0.00  0.00    +0.000 C 
ATOM      7  C   UNL     1     104.522 124.938  79.928  0.00  0.00    +0.000 C 
ATOM      8  C   UNL     1     103.721 128.034  81.768  0.00  0.00    +0.000 C 
ATOM      9  P   UNL     1     103.056 128.146  83.457  0.00  0.00    +0.000 P 
ATOM     10  C   UNL     1     103.515 126.505  84.089  0.00  0.00    +0.000 C 
ENDROOT
BRANCH   9  11
ATOM     11  C   UNL     1     101.264 127.980  83.182  0.00  0.00    +0.000 A 
ATOM     12  C   UNL     1     100.676 126.863  82.572  0.00  0.00    +0.000 A 
ATOM     13  C   UNL     1      99.292 126.795  82.388  0.00  0.00    +0.000 A 
ATOM     14  C   UNL     1      98.478 127.842  82.811  0.00  0.00    +0.000 A 
ATOM     15  C   UNL     1      99.045 128.959  83.416  0.00  0.00    +0.000 A 
ATOM     16  C   UNL     1     100.430 129.026  83.601  0.00  0.00    +0.000 A 
ENDBRANCH   9  11
TORSDOF 1
ENDMDL
