MODEL 1
REMARK VINA RESULT:      -4.6      0.000      0.000
REMARK  Name = *****
REMARK  3 active torsions:
REMARK  status: ('A' for Active; 'I' for Inactive)
REMARK    1  A    between atoms: C_4  and  C_7
REMARK    2  A    between atoms: C_7  and  O_8
REMARK    3  A    between atoms: O_8  and  C_9
REMARK                            x       y       z     vdW  Elec       q    Type
REMARK                         _______ _______ _______ _____ _____    ______ ____
ROOT
ATOM      1  O   UNL     1     101.560 125.903  82.387  0.00  0.00    +0.000 OA
ENDROOT
BRANCH   1   2
ATOM      2  C   UNL     1     100.799 126.983  82.742  0.00  0.00    +0.000 A 
ATOM      3  C   UNL     1      99.423 127.149  82.551  0.00  0.00    +0.000 A 
ATOM      4  C   UNL     1      98.776 128.312  82.966  0.00  0.00    +0.000 A 
ATOM      5  C   UNL     1      99.512 129.316  83.575  0.00  0.00    +0.000 A 
ATOM      6  C   UNL     1     100.880 129.179  83.775  0.00  0.00    +0.000 A 
ATOM      7  C   UNL     1     101.522 128.012  83.357  0.00  0.00    +0.000 A 
ATOM      8  F   UNL     1      98.895 130.436  83.976  0.00  0.00    +0.000 F 
ATOM      9  F   UNL     1      98.677 126.202  81.965  0.00  0.00    +0.000 F 
ENDBRANCH   1   2
BRANCH   1  10
ATOM     10  C   UNL     1     102.746 126.154  81.632  0.00  0.00    +0.000 C 
BRANCH  10  14
ATOM     11  C   UNL     1     105.239 122.625  81.611  0.00  0.00    +0.000 A 
ATOM     12  C   UNL     1     105.019 123.329  80.429  0.00  0.00    +0.000 A 
ATOM     13  C   UNL     1     104.207 124.465  80.433  0.00  0.00    +0.000 A 
ATOM     14  C   UNL     1     103.598 124.904  81.618  0.00  0.00    +0.000 A 
ATOM     15  C   UNL     1     103.835 124.192  82.803  0.00  0.00    +0.000 A 
ATOM     16  C   UNL     1     104.649 123.057  82.798  0.00  0.00    +0.000 A 
ENDBRANCH  10  14
ENDBRANCH   1  10
TORSDOF 3
ENDMDL
