REMARK  Name = *****
REMARK  5 active torsions:
REMARK  status: ('A' for Active; 'I' for Inactive)
REMARK    1  A    between atoms: C_1  and  C_2
REMARK    2  A    between atoms: C_2  and  C_3
REMARK    3  A    between atoms: C_2  and  C_11
REMARK    4  A    between atoms: C_2  and  O_18
REMARK    5  A    between atoms: C_3  and  C_4
REMARK                            x       y       z     vdW  Elec       q    Type
REMARK                         _______ _______ _______ _____ _____    ______ ____
ROOT
ATOM      1  C   UNL     1       0.884  -0.055  -0.352  0.00  0.00    +0.000 C 
ATOM      2  C   UNL     1       2.398  -0.131  -0.091  0.00  0.00    +0.000 C 
ENDROOT
BRANCH   2   3
ATOM      3  C   UNL     1       2.927  -1.559   0.072  0.00  0.00    +0.000 A 
ATOM      4  C   UNL     1       4.258  -1.863  -0.278  0.00  0.00    +0.000 A 
ATOM      5  C   UNL     1       4.778  -3.149  -0.112  0.00  0.00    +0.000 A 
ATOM      6  C   UNL     1       3.976  -4.154   0.416  0.00  0.00    +0.000 A 
ATOM      7  C   UNL     1       2.661  -3.882   0.780  0.00  0.00    +0.000 A 
ATOM      8  C   UNL     1       2.142  -2.594   0.610  0.00  0.00    +0.000 A 
ATOM      9 CL   UNL     1       4.614  -5.738   0.629  0.00  0.00    +0.000 Cl
ENDBRANCH   2   3
BRANCH   2  10
ATOM     10  O   UNL     1       3.017   0.407  -1.281  0.00  0.00    +0.000 OA
ATOM     11  H   UNL     1       2.709   1.315  -1.424  0.00  0.00    +0.000 HD
ENDBRANCH   2  10
BRANCH   2  12
ATOM     12  C   UNL     1       2.834   0.780   1.092  0.00  0.00    +0.000 C 
BRANCH  12  13
ATOM     13  C   UNL     1       2.249   0.460   2.449  0.00  0.00    +0.000 A 
ATOM     14  C   UNL     1       2.883  -0.462   3.296  0.00  0.00    +0.000 A 
ATOM     15  C   UNL     1       2.340  -0.768   4.546  0.00  0.00    +0.000 A 
ATOM     16  C   UNL     1       1.164  -0.148   4.959  0.00  0.00    +0.000 A 
ATOM     17  C   UNL     1       0.527   0.776   4.134  0.00  0.00    +0.000 A 
ATOM     18  C   UNL     1       1.069   1.081   2.883  0.00  0.00    +0.000 A 
ATOM     19 CL   UNL     1       0.493  -0.525   6.498  0.00  0.00    +0.000 Cl
ENDBRANCH  12  13
ENDBRANCH   2  12
TORSDOF 4
