REMARK  Name = *****
REMARK  6 active torsions:
REMARK  status: ('A' for Active; 'I' for Inactive)
REMARK    1  A    between atoms: C_1  and  O_2
REMARK    2  A    between atoms: O_2  and  C_3
REMARK    3  A    between atoms: C_6  and  C_9
REMARK    4  A    between atoms: C_9  and  N_10
REMARK    5  A    between atoms: N_10  and  C_11
REMARK    6  A    between atoms: N_10  and  N_17
REMARK                            x       y       z     vdW  Elec       q    Type
REMARK                         _______ _______ _______ _____ _____    ______ ____
ROOT
ATOM      1  C   UNL     1       5.836  -3.230   3.123  0.00  0.00    +0.000 C 
ENDROOT
BRANCH   1   5
ATOM      2  C   UNL     1       2.510  -1.106   1.321  0.00  0.00    +0.000 A 
ATOM      3  C   UNL     1       2.699  -1.071   2.701  0.00  0.00    +0.000 A 
ATOM      4  C   UNL     1       3.774  -1.754   3.284  0.00  0.00    +0.000 A 
ATOM      5  C   UNL     1       4.676  -2.480   2.493  0.00  0.00    +0.000 A 
ATOM      6  C   UNL     1       4.475  -2.515   1.107  0.00  0.00    +0.000 A 
ATOM      7  C   UNL     1       3.403  -1.831   0.530  0.00  0.00    +0.000 A 
BRANCH   2   9
ATOM      8  C   UNL     1       0.555   0.245   1.392  0.00  0.00    +0.000 C 
ATOM      9  O   UNL     1       1.507  -0.485   0.629  0.00  0.00    +0.000 OA
ENDBRANCH   2   9
ENDBRANCH   1   5
BRANCH   1  10
ATOM     10  N   UNL     1       5.560  -4.679   3.257  0.00  0.00    +0.000 N 
BRANCH  10  11
ATOM     11  C   UNL     1       4.667  -5.035   4.311  0.00  0.00    +0.000 A 
ATOM     12  C   UNL     1       4.733  -4.448   5.588  0.00  0.00    +0.000 A 
ATOM     13  C   UNL     1       3.853  -4.820   6.612  0.00  0.00    +0.000 A 
ATOM     14  C   UNL     1       2.890  -5.797   6.386  0.00  0.00    +0.000 A 
ATOM     15  C   UNL     1       2.812  -6.410   5.141  0.00  0.00    +0.000 A 
ATOM     16  C   UNL     1       3.695  -6.038   4.121  0.00  0.00    +0.000 A 
ENDBRANCH  10  11
BRANCH  10  17
ATOM     17  N   UNL     1       5.898  -5.612   2.323  0.00  0.00    +0.000 NA
ATOM     18  O   UNL     1       6.674  -5.198   1.456  0.00  0.00    +0.000 OA
ENDBRANCH  10  17
ENDBRANCH   1  10
TORSDOF 5
