MODEL 1
REMARK VINA RESULT:      -4.7      0.000      0.000
REMARK  Name = *****
REMARK  4 active torsions:
REMARK  status: ('A' for Active; 'I' for Inactive)
REMARK    1  A    between atoms: C_4  and  O_10
REMARK    2  A    between atoms: C_5  and  C_7
REMARK    3  A    between atoms: O_10  and  C_11
REMARK    4  A    between atoms: C_11  and  C_12
REMARK                            x       y       z     vdW  Elec       q    Type
REMARK                         _______ _______ _______ _____ _____    ______ ____
ROOT
ATOM      1  C   UNL     1      99.936 130.778  84.167  0.00  0.00    +0.000 A 
ATOM      2  C   UNL     1     101.208 130.376  84.560  0.00  0.00    +0.000 A 
ATOM      3  C   UNL     1     101.575 129.027  84.495  0.00  0.00    +0.000 A 
ATOM      4  C   UNL     1     100.668 128.061  84.042  0.00  0.00    +0.000 A 
ATOM      5  C   UNL     1      99.375 128.471  83.671  0.00  0.00    +0.000 A 
ATOM      6  C   UNL     1      99.020 129.830  83.719  0.00  0.00    +0.000 A 
ENDROOT
BRANCH   5   7
ATOM      7  C   UNL     1      98.338 127.513  83.198  0.00  0.00    +0.000 C 
ATOM      8  O   UNL     1      98.326 127.271  81.990  0.00  0.00    +0.000 OA
ATOM      9 CL   UNL     1      97.162 126.879  84.325  0.00  0.00    +0.000 Cl
ENDBRANCH   5   7
BRANCH   4  10
ATOM     10  O   UNL     1     100.965 126.733  83.903  0.00  0.00    +0.000 OA
BRANCH  10  11
ATOM     11  C   UNL     1     102.327 126.325  84.037  0.00  0.00    +0.000 C 
BRANCH  11  12
ATOM     12  C   UNL     1     102.924 126.033  82.679  0.00  0.00    +0.000 A 
ATOM     13  C   UNL     1     102.884 127.018  81.681  0.00  0.00    +0.000 A 
ATOM     14  C   UNL     1     103.397 126.752  80.414  0.00  0.00    +0.000 A 
ATOM     15  C   UNL     1     103.947 125.514  80.108  0.00  0.00    +0.000 A 
ATOM     16  C   UNL     1     103.981 124.522  81.084  0.00  0.00    +0.000 A 
ATOM     17  C   UNL     1     103.466 124.778  82.359  0.00  0.00    +0.000 A 
ATOM     18  F   UNL     1     103.353 127.705  79.474  0.00  0.00    +0.000 F 
ENDBRANCH  11  12
ENDBRANCH  10  11
ENDBRANCH   4  10
TORSDOF 4
ENDMDL
