MODEL 1
REMARK VINA RESULT:      -4.1      0.000      0.000
REMARK  Name = *****
REMARK  0 active torsions:
REMARK  status: ('A' for Active; 'I' for Inactive)
REMARK                            x       y       z     vdW  Elec       q    Type
REMARK                         _______ _______ _______ _____ _____    ______ ____
ROOT
ATOM      1  C   UNL     1     102.304 128.941  84.981  0.00  0.00    +0.000 C 
ATOM      2  C   UNL     1     101.019 128.501  84.331  0.00  0.00    +0.000 A 
ATOM      3  C   UNL     1     100.252 129.473  83.657  0.00  0.00    +0.000 A 
ATOM      4  C   UNL     1      99.049 129.141  83.037  0.00  0.00    +0.000 A 
ATOM      5  C   UNL     1      98.589 127.831  83.081  0.00  0.00    +0.000 A 
ATOM      6  C   UNL     1      99.340 126.854  83.737  0.00  0.00    +0.000 A 
ATOM      7  C   UNL     1     100.564 127.169  84.353  0.00  0.00    +0.000 A 
ATOM      8  S   UNL     1     101.400 125.792  85.147  0.00  0.00    +0.000 S 
ATOM      9  C   UNL     1     103.119 125.924  84.540  0.00  0.00    +0.000 C 
ATOM     10  C   UNL     1     103.250 126.357  83.104  0.00  0.00    +0.000 A 
ATOM     11  C   UNL     1     103.089 125.379  82.101  0.00  0.00    +0.000 A 
ATOM     12  C   UNL     1     103.202 125.705  80.750  0.00  0.00    +0.000 A 
ATOM     13  C   UNL     1     103.479 127.014  80.378  0.00  0.00    +0.000 A 
ATOM     14  C   UNL     1     103.634 127.996  81.357  0.00  0.00    +0.000 A 
ATOM     15  C   UNL     1     103.507 127.689  82.723  0.00  0.00    +0.000 A 
ATOM     16  S   UNL     1     103.731 129.072  83.846  0.00  0.00    +0.000 S 
ENDROOT
TORSDOF 0
ENDMDL
