MODEL 1
REMARK VINA RESULT:      -4.8      0.000      0.000
REMARK  Name = *****
REMARK  3 active torsions:
REMARK  status: ('A' for Active; 'I' for Inactive)
REMARK    1  A    between atoms: C_1  and  C_2
REMARK    2  A    between atoms: C_5  and  C_8
REMARK    3  A    between atoms: C_9  and  C_10
REMARK                            x       y       z     vdW  Elec       q    Type
REMARK                         _______ _______ _______ _____ _____    ______ ____
ROOT
ATOM      1  C   UNL     1     102.846 125.396  82.095  0.00  0.00    +0.000 C 
ATOM      2  C   UNL     1     101.976 126.176  82.374  0.00  0.00    +0.000 C 
ENDROOT
BRANCH   1   7
ATOM      3  C   UNL     1     107.012 121.685  80.760  0.00  0.00    +0.000 C 
ATOM      4  C   UNL     1     105.903 122.635  81.102  0.00  0.00    +0.000 A 
ATOM      5  C   UNL     1     105.348 123.464  80.119  0.00  0.00    +0.000 A 
ATOM      6  C   UNL     1     104.337 124.372  80.445  0.00  0.00    +0.000 A 
ATOM      7  C   UNL     1     103.879 124.466  81.761  0.00  0.00    +0.000 A 
ATOM      8  C   UNL     1     104.438 123.655  82.750  0.00  0.00    +0.000 A 
ATOM      9  C   UNL     1     105.449 122.746  82.422  0.00  0.00    +0.000 A 
ENDBRANCH   1   7
BRANCH   2  10
ATOM     10  C   UNL     1     100.943 127.107  82.707  0.00  0.00    +0.000 A 
ATOM     11  C   UNL     1     101.259 128.295  83.368  0.00  0.00    +0.000 A 
ATOM     12  C   UNL     1     100.244 129.197  83.688  0.00  0.00    +0.000 A 
ATOM     13  C   UNL     1      98.918 128.923  83.354  0.00  0.00    +0.000 A 
ATOM     14  C   UNL     1      98.603 127.735  82.694  0.00  0.00    +0.000 A 
ATOM     15  C   UNL     1      99.615 126.827  82.370  0.00  0.00    +0.000 A 
ATOM     16 BR   UNL     1     100.669 130.808  84.583  0.00  0.00    +0.000 Br
ENDBRANCH   2  10
TORSDOF 2
ENDMDL
