MODEL 1
REMARK VINA RESULT:      -4.8      0.000      0.000
REMARK  Name = *****
REMARK  5 active torsions:
REMARK  status: ('A' for Active; 'I' for Inactive)
REMARK    1  A    between atoms: C_1  and  C_2
REMARK    2  A    between atoms: C_5  and  N_8
REMARK    3  A    between atoms: N_8  and  O_9
REMARK    4  A    between atoms: O_9  and  C_10
REMARK    5  A    between atoms: C_10  and  C_12
REMARK                            x       y       z     vdW  Elec       q    Type
REMARK                         _______ _______ _______ _____ _____    ______ ____
ROOT
ATOM      1  N   UNL     1     100.819 126.116  82.194  0.00  0.00    +0.000 N 
ATOM      2  H   UNL     1     100.427 125.401  81.643  0.00  0.00    +0.000 HD
ENDROOT
BRANCH   1   7
ATOM      3  C   UNL     1     105.836 128.514  80.797  0.00  0.00    +0.000 C 
ATOM      4  C   UNL     1     104.531 127.869  81.157  0.00  0.00    +0.000 A 
ATOM      5  C   UNL     1     104.078 126.731  80.483  0.00  0.00    +0.000 A 
ATOM      6  C   UNL     1     102.859 126.139  80.832  0.00  0.00    +0.000 A 
ATOM      7  C   UNL     1     102.083 126.653  81.875  0.00  0.00    +0.000 A 
ATOM      8  C   UNL     1     102.524 127.814  82.522  0.00  0.00    +0.000 A 
ATOM      9  C   UNL     1     103.742 128.408  82.179  0.00  0.00    +0.000 A 
ENDBRANCH   1   7
BRANCH   1  10
ATOM     10  O   UNL     1     100.126 126.618  83.311  0.00  0.00    +0.000 OA
BRANCH  10  11
ATOM     11  C   UNL     1      99.045 127.370  82.947  0.00  0.00    +0.000 C 
ATOM     12  O   UNL     1      98.268 127.086  82.044  0.00  0.00    +0.000 OA
BRANCH  11  13
ATOM     13  C   UNL     1      98.939 128.592  83.790  0.00  0.00    +0.000 A 
ATOM     14  C   UNL     1      99.459 129.790  83.279  0.00  0.00    +0.000 A 
ATOM     15  C   UNL     1      99.384 130.964  84.030  0.00  0.00    +0.000 A 
ATOM     16  C   UNL     1      98.794 130.949  85.293  0.00  0.00    +0.000 A 
ATOM     17  C   UNL     1      98.275 129.762  85.807  0.00  0.00    +0.000 A 
ATOM     18  C   UNL     1      98.345 128.583  85.060  0.00  0.00    +0.000 A 
ENDBRANCH  11  13
ENDBRANCH  10  11
ENDBRANCH   1  10
TORSDOF 4
ENDMDL
