MODEL 1
REMARK VINA RESULT:      -4.6      0.000      0.000
REMARK  Name = *****
REMARK  2 active torsions:
REMARK  status: ('A' for Active; 'I' for Inactive)
REMARK    1  A    between atoms: C_4  and  N_7
REMARK    2  A    between atoms: C_8  and  C_9
REMARK                            x       y       z     vdW  Elec       q    Type
REMARK                         _______ _______ _______ _____ _____    ______ ____
ROOT
ATOM      1  N   UNL     1     102.845 126.045  81.313  0.00  0.00    +0.000 NA
ATOM      2  C   UNL     1     102.073 125.912  82.348  0.00  0.00    +0.000 C 
ENDROOT
BRANCH   2   3
ATOM      3  C   UNL     1     101.058 126.936  82.693  0.00  0.00    +0.000 A 
ATOM      4  C   UNL     1     101.406 128.147  83.314  0.00  0.00    +0.000 A 
ATOM      5  C   UNL     1     100.393 129.075  83.613  0.00  0.00    +0.000 A 
ATOM      6  C   UNL     1      99.058 128.799  83.296  0.00  0.00    +0.000 A 
ATOM      7  C   UNL     1      98.718 127.597  82.681  0.00  0.00    +0.000 A 
ATOM      8  C   UNL     1      99.714 126.670  82.381  0.00  0.00    +0.000 A 
ATOM      9 CL   UNL     1     100.717 130.595  84.377  0.00  0.00    +0.000 Cl
ATOM     10 CL   UNL     1     103.056 128.507  83.718  0.00  0.00    +0.000 Cl
ENDBRANCH   2   3
BRANCH   1  14
ATOM     11  C   UNL     1     105.612 122.944  80.691  0.00  0.00    +0.000 A 
ATOM     12  C   UNL     1     105.471 123.954  79.739  0.00  0.00    +0.000 A 
ATOM     13  C   UNL     1     104.552 124.984  79.945  0.00  0.00    +0.000 A 
ATOM     14  C   UNL     1     103.761 125.006  81.097  0.00  0.00    +0.000 A 
ATOM     15  C   UNL     1     103.918 123.999  82.054  0.00  0.00    +0.000 A 
ATOM     16  C   UNL     1     104.837 122.969  81.850  0.00  0.00    +0.000 A 
ENDBRANCH   1  14
TORSDOF 2
ENDMDL
