MODEL 1
REMARK VINA RESULT:      -4.2      0.000      0.000
REMARK  Name = *****
REMARK  6 active torsions:
REMARK  status: ('A' for Active; 'I' for Inactive)
REMARK    1  A    between atoms: C_1  and  C_2
REMARK    2  A    between atoms: C_7  and  C_8
REMARK    3  A    between atoms: C_7  and  C_9
REMARK    4  A    between atoms: C_9  and  O_10
REMARK    5  A    between atoms: O_10  and  C_11
REMARK    6  A    between atoms: C_11  and  C_12
REMARK                            x       y       z     vdW  Elec       q    Type
REMARK                         _______ _______ _______ _____ _____    ______ ____
ROOT
ATOM      1  C   UNL     1     104.687 127.731  82.411  0.00  0.00    +0.000 C 
ENDROOT
BRANCH   1   8
ATOM      2  C   UNL     1     104.593 124.825  82.813  0.00  0.00    +0.000 C 
ATOM      3  C   UNL     1     103.994 125.414  81.523  0.00  0.00    +0.000 C 
ATOM      4  C   UNL     1     104.194 124.416  80.364  0.00  0.00    +0.000 C 
ATOM      5  C   UNL     1     105.662 124.281  79.951  0.00  0.00    +0.000 C 
ATOM      6  C   UNL     1     106.392 125.589  79.932  0.00  0.00    +0.000 C 
ATOM      7  C   UNL     1     105.900 126.725  80.448  0.00  0.00    +0.000 C 
ATOM      8  C   UNL     1     104.549 126.837  81.144  0.00  0.00    +0.000 C 
ATOM      9  C   UNL     1     103.581 127.525  80.152  0.00  0.00    +0.000 C 
ENDBRANCH   1   8
BRANCH   1  10
ATOM     10  O   UNL     1     103.560 128.603  82.554  0.00  0.00    +0.000 OA
BRANCH  10  11
ATOM     11  C   UNL     1     102.783 128.280  83.706  0.00  0.00    +0.000 C 
BRANCH  11  12
ATOM     12  C   UNL     1     101.332 128.120  83.324  0.00  0.00    +0.000 A 
ATOM     13  C   UNL     1     100.875 126.951  82.695  0.00  0.00    +0.000 A 
ATOM     14  C   UNL     1      99.524 126.794  82.382  0.00  0.00    +0.000 A 
ATOM     15  C   UNL     1      98.612 127.796  82.703  0.00  0.00    +0.000 A 
ATOM     16  C   UNL     1      99.050 128.956  83.338  0.00  0.00    +0.000 A 
ATOM     17  C   UNL     1     100.402 129.116  83.652  0.00  0.00    +0.000 A 
ENDBRANCH  11  12
ENDBRANCH  10  11
ENDBRANCH   1  10
TORSDOF 4
ENDMDL
