MODEL 1
REMARK VINA RESULT:      -4.6      0.000      0.000
REMARK  Name = *****
REMARK  4 active torsions:
REMARK  status: ('A' for Active; 'I' for Inactive)
REMARK    1  A    between atoms: C_1  and  C_2
REMARK    2  A    between atoms: C_6  and  C_20
REMARK    3  A    between atoms: C_8  and  C_10
REMARK    4  A    between atoms: C_11  and  C_12
REMARK                            x       y       z     vdW  Elec       q    Type
REMARK                         _______ _______ _______ _____ _____    ______ ____
ROOT
ATOM      1  C   UNL     1     106.156 123.869  83.750  0.00  0.00    +0.000 C 
ATOM      2  C   UNL     1     104.817 123.787  83.013  0.00  0.00    +0.000 C 
ATOM      3  C   UNL     1     104.346 122.334  82.798  0.00  0.00    +0.000 C 
ATOM      4  C   UNL     1     105.123 121.608  81.697  0.00  0.00    +0.000 C 
ATOM      5  C   UNL     1     105.180 122.429  80.405  0.00  0.00    +0.000 C 
ATOM      6  C   UNL     1     105.690 123.845  80.694  0.00  0.00    +0.000 C 
ATOM      7  N   UNL     1     104.837 124.495  81.712  0.00  0.00    +0.000 N 
ATOM      8  C   UNL     1     103.672 125.149  81.293  0.00  0.00    +0.000 C 
ATOM      9  O   UNL     1     103.214 125.107  80.155  0.00  0.00    +0.000 OA
ATOM     10  C   UNL     1     105.921 124.651  79.413  0.00  0.00    +0.000 C 
ENDROOT
BRANCH   8  11
ATOM     11  C   UNL     1     103.018 125.994  82.330  0.00  0.00    +0.000 C 
ATOM     12  C   UNL     1     102.333 127.087  81.963  0.00  0.00    +0.000 C 
BRANCH  12  13
ATOM     13  C   UNL     1     101.653 127.950  82.941  0.00  0.00    +0.000 A 
ATOM     14  C   UNL     1     102.348 128.933  83.673  0.00  0.00    +0.000 A 
ATOM     15  C   UNL     1     101.681 129.744  84.598  0.00  0.00    +0.000 A 
ATOM     16  C   UNL     1     100.313 129.592  84.809  0.00  0.00    +0.000 A 
ATOM     17  C   UNL     1      99.607 128.627  84.094  0.00  0.00    +0.000 A 
ATOM     18  C   UNL     1     100.271 127.813  83.169  0.00  0.00    +0.000 A 
ATOM     19 CL   UNL     1      99.318 126.629  82.334  0.00  0.00    +0.000 Cl
ATOM     20 CL   UNL     1     104.046 129.203  83.467  0.00  0.00    +0.000 Cl
ENDBRANCH  12  13
ENDBRANCH   8  11
TORSDOF 2
ENDMDL
