MODEL 1
REMARK VINA RESULT:      -4.1      0.000      0.000
REMARK  Name = *****
REMARK  2 active torsions:
REMARK  status: ('A' for Active; 'I' for Inactive)
REMARK    1  A    between atoms: C_4  and  S_8
REMARK    2  A    between atoms: S_8  and  C_9
REMARK                            x       y       z     vdW  Elec       q    Type
REMARK                         _______ _______ _______ _____ _____    ______ ____
ROOT
ATOM      1  C   UNL     1      99.139 128.780  83.571  0.00  0.00    +0.000 C 
ATOM      2  C   UNL     1      98.630 127.741  82.570  0.00  0.00    +0.000 C 
ATOM      3  C   UNL     1      99.864 126.820  82.440  0.00  0.00    +0.000 C 
ATOM      4  C   UNL     1     100.412 126.765  83.902  0.00  0.00    +0.000 C 
ATOM      5  C   UNL     1      99.452 127.732  84.648  0.00  0.00    +0.000 C 
ATOM      6  C   UNL     1      98.097 127.053  84.698  0.00  0.00    +0.000 C 
ATOM      7  C   UNL     1      97.611 127.049  83.447  0.00  0.00    +0.000 C 
ENDROOT
BRANCH   4   8
ATOM      8  S   UNL     1     102.152 127.325  84.035  0.00  0.00    +0.000 S 
BRANCH   8   9
ATOM      9  C   UNL     1     102.831 126.623  82.541  0.00  0.00    +0.000 A 
ATOM     10  C   UNL     1     103.088 127.462  81.452  0.00  0.00    +0.000 A 
ATOM     11  C   UNL     1     103.624 126.943  80.272  0.00  0.00    +0.000 A 
ATOM     12  C   UNL     1     103.915 125.583  80.177  0.00  0.00    +0.000 A 
ATOM     13  C   UNL     1     103.677 124.744  81.264  0.00  0.00    +0.000 A 
ATOM     14  C   UNL     1     103.141 125.263  82.445  0.00  0.00    +0.000 A 
ENDBRANCH   8   9
ENDBRANCH   4   8
TORSDOF 2
ENDMDL
