MODEL 1
REMARK VINA RESULT:      -4.7      0.000      0.000
REMARK  Name = *****
REMARK  3 active torsions:
REMARK  status: ('A' for Active; 'I' for Inactive)
REMARK    1  A    between atoms: N_2  and  C_3
REMARK    2  A    between atoms: C_6  and  C_9
REMARK    3  A    between atoms: C_10  and  C_11
REMARK                            x       y       z     vdW  Elec       q    Type
REMARK                         _______ _______ _______ _____ _____    ______ ____
ROOT
ATOM      1  C   UNL     1     105.858 122.992  81.046  0.00  0.00    +0.000 A 
ATOM      2  C   UNL     1     105.509 123.770  79.945  0.00  0.00    +0.000 A 
ATOM      3  C   UNL     1     104.477 124.704  80.071  0.00  0.00    +0.000 A 
ATOM      4  C   UNL     1     103.792 124.851  81.288  0.00  0.00    +0.000 A 
ATOM      5  C   UNL     1     104.176 124.066  82.387  0.00  0.00    +0.000 A 
ATOM      6  C   UNL     1     105.206 123.130  82.268  0.00  0.00    +0.000 A 
ENDROOT
BRANCH   1   8
ATOM      7  C   UNL     1     107.751 121.284  80.824  0.00  0.00    +0.000 C 
ATOM      8  N   UNL     1     106.884 122.066  80.925  0.00  0.00    +0.000 NA
ENDBRANCH   1   8
BRANCH   4   9
ATOM      9  C   UNL     1     102.723 125.844  81.466  0.00  0.00    +0.000 C 
ATOM     10  C   UNL     1     102.011 125.979  82.597  0.00  0.00    +0.000 C 
BRANCH  10  11
ATOM     11  C   UNL     1     100.955 126.985  82.782  0.00  0.00    +0.000 A 
ATOM     12  C   UNL     1      99.626 126.750  82.403  0.00  0.00    +0.000 A 
ATOM     13  C   UNL     1      98.643 127.719  82.623  0.00  0.00    +0.000 A 
ATOM     14  C   UNL     1      98.976 128.926  83.234  0.00  0.00    +0.000 A 
ATOM     15  C   UNL     1     100.290 129.163  83.630  0.00  0.00    +0.000 A 
ATOM     16  C   UNL     1     101.273 128.195  83.410  0.00  0.00    +0.000 A 
ENDBRANCH  10  11
ENDBRANCH   4   9
TORSDOF 3
ENDMDL
