MODEL 1
REMARK VINA RESULT:      -4.7      0.000      0.000
REMARK  Name = *****
REMARK  4 active torsions:
REMARK  status: ('A' for Active; 'I' for Inactive)
REMARK    1  A    between atoms: C_4  and  C_7
REMARK    2  A    between atoms: C_7  and  C_8
REMARK    3  A    between atoms: C_8  and  C_9
REMARK    4  A    between atoms: C_12  and  N_15
REMARK                            x       y       z     vdW  Elec       q    Type
REMARK                         _______ _______ _______ _____ _____    ______ ____
ROOT
ATOM      1  C   UNL     1     103.889 126.368  81.503  0.00  0.00    +0.000 A 
ATOM      2  C   UNL     1     104.077 125.359  82.456  0.00  0.00    +0.000 A 
ATOM      3  C   UNL     1     104.572 124.108  82.075  0.00  0.00    +0.000 A 
ATOM      4  C   UNL     1     104.874 123.840  80.734  0.00  0.00    +0.000 A 
ATOM      5  C   UNL     1     104.711 124.858  79.788  0.00  0.00    +0.000 A 
ATOM      6  C   UNL     1     104.218 126.111  80.167  0.00  0.00    +0.000 A 
ENDROOT
BRANCH   4   7
ATOM      7  N   UNL     1     105.400 122.594  80.356  0.00  0.00    +0.000 NA
ATOM      8  C   UNL     1     104.755 121.704  80.768  0.00  0.00    +0.000 C 
ATOM      9  O   UNL     1     104.116 120.805  81.177  0.00  0.00    +0.000 OA
ENDBRANCH   4   7
BRANCH   1  10
ATOM     10  C   UNL     1     103.372 127.725  81.917  0.00  0.00    +0.000 C 
BRANCH  10  11
ATOM     11  C   UNL     1     102.666 127.674  83.276  0.00  0.00    +0.000 C 
BRANCH  11  15
ATOM     12  C   UNL     1      98.385 127.947  82.830  0.00  0.00    +0.000 A 
ATOM     13  C   UNL     1      99.062 126.815  82.381  0.00  0.00    +0.000 A 
ATOM     14  C   UNL     1     100.446 126.724  82.530  0.00  0.00    +0.000 A 
ATOM     15  C   UNL     1     101.167 127.765  83.131  0.00  0.00    +0.000 A 
ATOM     16  C   UNL     1     100.477 128.900  83.576  0.00  0.00    +0.000 A 
ATOM     17  C   UNL     1      99.092 128.989  83.427  0.00  0.00    +0.000 A 
ENDBRANCH  11  15
ENDBRANCH  10  11
ENDBRANCH   1  10
TORSDOF 4
ENDMDL
