REMARK  Name = *****
REMARK  2 active torsions:
REMARK  status: ('A' for Active; 'I' for Inactive)
REMARK    1  A    between atoms: C_6  and  C_7
REMARK    2  A    between atoms: C_8  and  C_9
REMARK                            x       y       z     vdW  Elec       q    Type
REMARK                         _______ _______ _______ _____ _____    ______ ____
ROOT
ATOM      1  C   UNL     1       3.889   0.047   0.095  0.00  0.00    +0.000 C 
ATOM      2  C   UNL     1       4.656   1.146   0.002  0.00  0.00    +0.000 C 
ENDROOT
BRANCH   1   8
ATOM      3  C   UNL     1       1.659   1.069   0.649  0.00  0.00    +0.000 A 
ATOM      4  C   UNL     1       0.262   1.038   0.590  0.00  0.00    +0.000 A 
ATOM      5  C   UNL     1      -0.380  -0.001  -0.078  0.00  0.00    +0.000 A 
ATOM      6  C   UNL     1       0.361  -1.012  -0.684  0.00  0.00    +0.000 A 
ATOM      7  C   UNL     1       1.758  -0.979  -0.625  0.00  0.00    +0.000 A 
ATOM      8  C   UNL     1       2.421   0.068   0.030  0.00  0.00    +0.000 A 
ATOM      9 CL   UNL     1      -2.098  -0.040  -0.149  0.00  0.00    +0.000 Cl
ENDBRANCH   1   8
BRANCH   2  10
ATOM     10  C   UNL     1       6.125   1.128   0.067  0.00  0.00    +0.000 A 
ATOM     11  C   UNL     1       6.890   0.118  -0.519  0.00  0.00    +0.000 A 
ATOM     12  C   UNL     1       8.271   0.199  -0.436  0.00  0.00    +0.000 A 
ATOM     13  N   UNL     1       8.930   1.206   0.174  0.00  0.00    +0.000 NA
ATOM     14  C   UNL     1       8.173   2.180   0.720  0.00  0.00    +0.000 A 
ATOM     15  C   UNL     1       6.787   2.189   0.688  0.00  0.00    +0.000 A 
ENDBRANCH   2  10
TORSDOF 2
