MODEL 1
REMARK VINA RESULT:      -5.0      0.000      0.000
REMARK  Name = *****
REMARK  4 active torsions:
REMARK  status: ('A' for Active; 'I' for Inactive)
REMARK    1  A    between atoms: C_4  and  C_7
REMARK    2  A    between atoms: C_7  and  C_8
REMARK    3  A    between atoms: C_8  and  C_9
REMARK    4  A    between atoms: C_9  and  C_11
REMARK                            x       y       z     vdW  Elec       q    Type
REMARK                         _______ _______ _______ _____ _____    ______ ____
ROOT
ATOM      1  C   UNL     1     100.579 126.547  83.103  0.00  0.00    +0.000 C 
ENDROOT
BRANCH   1   2
ATOM      2  C   UNL     1     101.750 126.993  82.224  0.00  0.00    +0.000 C 
ATOM      3 CL   UNL     1     102.626 128.362  82.994  0.00  0.00    +0.000 Cl
BRANCH   2   7
ATOM      4  C   UNL     1     104.556 123.763  81.554  0.00  0.00    +0.000 A 
ATOM      5  C   UNL     1     104.066 124.018  82.833  0.00  0.00    +0.000 A 
ATOM      6  C   UNL     1     103.156 125.056  83.039  0.00  0.00    +0.000 A 
ATOM      7  C   UNL     1     102.722 125.855  81.969  0.00  0.00    +0.000 A 
ATOM      8  C   UNL     1     103.226 125.583  80.685  0.00  0.00    +0.000 A 
ATOM      9  C   UNL     1     104.136 124.543  80.481  0.00  0.00    +0.000 A 
ENDBRANCH   2   7
ENDBRANCH   1   2
BRANCH   1  10
ATOM     10  C   UNL     1      99.351 127.406  82.878  0.00  0.00    +0.000 C 
ATOM     11  O   UNL     1      98.542 127.168  81.984  0.00  0.00    +0.000 OA
BRANCH  10  12
ATOM     12  C   UNL     1      99.096 128.548  83.803  0.00  0.00    +0.000 A 
ATOM     13  C   UNL     1      99.481 129.832  83.395  0.00  0.00    +0.000 A 
ATOM     14  C   UNL     1      99.260 130.932  84.227  0.00  0.00    +0.000 A 
ATOM     15  C   UNL     1      98.647 130.754  85.466  0.00  0.00    +0.000 A 
ATOM     16  C   UNL     1      98.251 129.481  85.873  0.00  0.00    +0.000 A 
ATOM     17  C   UNL     1      98.473 128.378  85.044  0.00  0.00    +0.000 A 
ENDBRANCH  10  12
ENDBRANCH   1  10
TORSDOF 4
ENDMDL
