MODEL 1
REMARK VINA RESULT:      -3.7      0.000      0.000
REMARK  Name = *****
REMARK  3 active torsions:
REMARK  status: ('A' for Active; 'I' for Inactive)
REMARK    1  A    between atoms: C_4  and  O_7
REMARK    2  A    between atoms: O_7  and  C_8
REMARK    3  A    between atoms: C_8  and  C_10
REMARK                            x       y       z     vdW  Elec       q    Type
REMARK                         _______ _______ _______ _____ _____    ______ ____
ROOT
ATOM      1  C   UNL     1     102.745 127.586  82.277  0.00  0.00    +0.000 C 
ATOM      2  O   UNL     1     103.414 128.591  82.453  0.00  0.00    +0.000 OA
ENDROOT
BRANCH   1   3
ATOM      3  C   UNL     1     103.310 126.291  81.808  0.00  0.00    +0.000 A 
ATOM      4  C   UNL     1     103.482 125.266  82.748  0.00  0.00    +0.000 A 
ATOM      5  C   UNL     1     104.009 124.031  82.359  0.00  0.00    +0.000 A 
ATOM      6  C   UNL     1     104.367 123.820  81.028  0.00  0.00    +0.000 A 
ATOM      7  C   UNL     1     104.201 124.833  80.084  0.00  0.00    +0.000 A 
ATOM      8  C   UNL     1     103.674 126.069  80.472  0.00  0.00    +0.000 A 
ATOM      9 CL   UNL     1     105.015 122.302  80.547  0.00  0.00    +0.000 Cl
ENDBRANCH   1   3
BRANCH   1  10
ATOM     10  O   UNL     1     101.411 127.480  82.473  0.00  0.00    +0.000 OA
BRANCH  10  14
ATOM     11  C   UNL     1      98.695 126.385  84.792  0.00  0.00    +0.000 C 
ATOM     12  C   UNL     1     100.176 126.086  84.989  0.00  0.00    +0.000 C 
ATOM     13  S   UNL     1     101.194 127.587  85.146  0.00  0.00    +0.000 S 
ATOM     14  C   UNL     1     100.875 128.331  83.499  0.00  0.00    +0.000 C 
ATOM     15  C   UNL     1      99.378 128.617  83.282  0.00  0.00    +0.000 C 
ATOM     16  S   UNL     1      98.319 127.125  83.171  0.00  0.00    +0.000 S 
ENDBRANCH  10  14
ENDBRANCH   1  10
TORSDOF 3
ENDMDL
