MODEL 1
REMARK VINA RESULT:      -4.9      0.000      0.000
REMARK  Name = *****
REMARK  3 active torsions:
REMARK  status: ('A' for Active; 'I' for Inactive)
REMARK    1  A    between atoms: C_1  and  C_2
REMARK    2  A    between atoms: C_9  and  C_11
REMARK    3  A    between atoms: C_14  and  C_17
REMARK                            x       y       z     vdW  Elec       q    Type
REMARK                         _______ _______ _______ _____ _____    ______ ____
ROOT
ATOM      1  C   UNL     1     106.285 121.011  81.465  0.00  0.00    +0.000 C 
ATOM      2  C   UNL     1     105.546 122.296  81.216  0.00  0.00    +0.000 A 
ATOM      3  C   UNL     1     104.672 122.808  82.190  0.00  0.00    +0.000 A 
ATOM      4  C   UNL     1     104.046 124.010  81.877  0.00  0.00    +0.000 A 
ATOM      5  C   UNL     1     104.228 124.713  80.699  0.00  0.00    +0.000 A 
ATOM      6  C   UNL     1     105.101 124.201  79.733  0.00  0.00    +0.000 A 
ATOM      7  C   UNL     1     105.756 122.989  80.009  0.00  0.00    +0.000 A 
ATOM      8  N   UNL     1     103.467 125.854  80.715  0.00  0.00    +0.000 NA
ATOM      9  C   UNL     1     102.860 125.811  81.889  0.00  0.00    +0.000 A 
ATOM     10  O   UNL     1     103.166 124.708  82.649  0.00  0.00    +0.000 OA
ENDROOT
BRANCH   9  11
ATOM     11  C   UNL     1     101.935 126.778  82.478  0.00  0.00    +0.000 A 
ATOM     12  C   UNL     1     102.441 127.909  83.134  0.00  0.00    +0.000 A 
ATOM     13  C   UNL     1     101.583 128.843  83.723  0.00  0.00    +0.000 A 
ATOM     14  C   UNL     1     100.195 128.662  83.676  0.00  0.00    +0.000 A 
ATOM     15  C   UNL     1      99.683 127.543  83.007  0.00  0.00    +0.000 A 
ATOM     16  C   UNL     1     100.545 126.610  82.417  0.00  0.00    +0.000 A 
BRANCH  14  17
ATOM     17  C   UNL     1      99.271 129.666  84.307  0.00  0.00    +0.000 C 
ATOM     18 CL   UNL     1      99.429 131.245  83.515  0.00  0.00    +0.000 Cl
ENDBRANCH  14  17
ENDBRANCH   9  11
TORSDOF 2
ENDMDL
