REMARK  Name = *****
REMARK  3 active torsions:
REMARK  status: ('A' for Active; 'I' for Inactive)
REMARK    1  A    between atoms: C_4  and  C_7
REMARK    2  A    between atoms: C_4  and  C_16
REMARK    3  A    between atoms: C_8  and  C_9
REMARK                            x       y       z     vdW  Elec       q    Type
REMARK                         _______ _______ _______ _____ _____    ______ ____
ROOT
ATOM      1  C   UNL     1       1.244   0.421  -2.232  0.00  0.00    +0.000 C 
ATOM      2  C   UNL     1       1.098  -0.215  -3.407  0.00  0.00    +0.000 C 
ENDROOT
BRANCH   2   3
ATOM      3  C   UNL     1       1.826   0.203  -4.615  0.00  0.00    +0.000 A 
ATOM      4  C   UNL     1       3.227   0.127  -4.629  0.00  0.00    +0.000 A 
ATOM      5  C   UNL     1       3.951   0.500  -5.764  0.00  0.00    +0.000 A 
ATOM      6  C   UNL     1       3.283   0.951  -6.900  0.00  0.00    +0.000 A 
ATOM      7  C   UNL     1       1.890   1.028  -6.904  0.00  0.00    +0.000 A 
ATOM      8  C   UNL     1       1.163   0.652  -5.770  0.00  0.00    +0.000 A 
ATOM      9 CL   UNL     1      -0.562   0.777  -5.842  0.00  0.00    +0.000 Cl
ENDBRANCH   2   3
BRANCH   1  13
ATOM     10  C   UNL     1      -2.012  -0.073   0.658  0.00  0.00    +0.000 C 
ATOM     11  C   UNL     1      -1.113   1.153   0.767  0.00  0.00    +0.000 C 
ATOM     12  C   UNL     1      -0.272   1.359  -0.496  0.00  0.00    +0.000 C 
ATOM     13  C   UNL     1       0.545   0.109  -0.907  0.00  0.00    +0.000 C 
ATOM     14  C   UNL     1      -0.391  -1.124  -0.967  0.00  0.00    +0.000 C 
ATOM     15  C   UNL     1      -1.214  -1.323   0.309  0.00  0.00    +0.000 C 
BRANCH  13  16
ATOM     16  C   UNL     1       1.622  -0.138   0.093  0.00  0.00    +0.000 C 
ATOM     17  N   UNL     1       2.459  -0.325   0.876  0.00  0.00    +0.000 NA
ENDBRANCH  13  16
ENDBRANCH   1  13
TORSDOF 3
