MODEL 1
REMARK VINA RESULT:      -4.4      0.000      0.000
REMARK  Name = *****
REMARK  5 active torsions:
REMARK  status: ('A' for Active; 'I' for Inactive)
REMARK    1  A    between atoms: C_1  and  O_2
REMARK    2  A    between atoms: O_2  and  C_3
REMARK    3  A    between atoms: C_3  and  C_4
REMARK    4  A    between atoms: C_3  and  S_10
REMARK    5  A    between atoms: S_10  and  C_11
REMARK                            x       y       z     vdW  Elec       q    Type
REMARK                         _______ _______ _______ _____ _____    ______ ____
ROOT
ATOM      1  C   UNL     1      89.909  66.888  86.388  0.00  0.00    +0.000 C 
ENDROOT
BRANCH   1   2
ATOM      2  C   UNL     1      89.804  68.346  85.950  0.00  0.00    +0.000 A 
ATOM      3  C   UNL     1      89.942  68.769  84.617  0.00  0.00    +0.000 A 
ATOM      4  C   UNL     1      89.862  70.123  84.282  0.00  0.00    +0.000 A 
ATOM      5  C   UNL     1      89.657  71.080  85.273  0.00  0.00    +0.000 A 
ATOM      6  C   UNL     1      89.537  70.684  86.602  0.00  0.00    +0.000 A 
ATOM      7  C   UNL     1      89.614  69.331  86.939  0.00  0.00    +0.000 A 
ENDBRANCH   1   2
BRANCH   1   9
ATOM      8  C   UNL     1      91.027  65.133  85.164  0.00  0.00    +0.000 C 
ATOM      9  O   UNL     1      91.149  66.285  85.987  0.00  0.00    +0.000 OA
ENDBRANCH   1   9
BRANCH   1  10
ATOM     10  S   UNL     1      88.439  65.851  86.013  0.00  0.00    +0.000 S 
BRANCH  10  11
ATOM     11  C   UNL     1      88.016  65.238  87.634  0.00  0.00    +0.000 A 
ATOM     12  C   UNL     1      88.734  64.145  88.141  0.00  0.00    +0.000 A 
ATOM     13  C   UNL     1      88.451  63.641  89.412  0.00  0.00    +0.000 A 
ATOM     14  C   UNL     1      87.459  64.237  90.179  0.00  0.00    +0.000 A 
ATOM     15  C   UNL     1      86.749  65.330  89.703  0.00  0.00    +0.000 A 
ATOM     16  C   UNL     1      87.031  65.836  88.431  0.00  0.00    +0.000 A 
ATOM     17  F   UNL     1      87.189  63.754  91.399  0.00  0.00    +0.000 F 
ENDBRANCH  10  11
ENDBRANCH   1  10
TORSDOF 4
ENDMDL
