MODEL 1
REMARK VINA RESULT:      -4.9      0.000      0.000
REMARK  Name = *****
REMARK  5 active torsions:
REMARK  status: ('A' for Active; 'I' for Inactive)
REMARK    1  A    between atoms: C_1  and  C_2
REMARK    2  A    between atoms: C_7  and  O_8
REMARK    3  A    between atoms: O_8  and  C_9
REMARK    4  A    between atoms: C_9  and  C_11
REMARK    5  A    between atoms: C_11  and  C_12
REMARK                            x       y       z     vdW  Elec       q    Type
REMARK                         _______ _______ _______ _____ _____    ______ ____
ROOT
ATOM      1  C   UNL     1     102.802 125.335  83.257  0.00  0.00    +0.000 C 
ATOM      2  O   UNL     1     102.422 125.115  84.400  0.00  0.00    +0.000 OA
ENDROOT
BRANCH   1   3
ATOM      3  O   UNL     1     104.098 125.153  82.770  0.00  0.00    +0.000 OA
BRANCH   3  10
ATOM      4  C   UNL     1     104.618 124.807  79.988  0.00  0.00    +0.000 C 
ATOM      5  C   UNL     1     104.623 123.659  80.952  0.00  0.00    +0.000 A 
ATOM      6  C   UNL     1     104.859 122.353  80.503  0.00  0.00    +0.000 A 
ATOM      7  C   UNL     1     104.856 121.282  81.400  0.00  0.00    +0.000 A 
ATOM      8  C   UNL     1     104.612 121.499  82.756  0.00  0.00    +0.000 A 
ATOM      9  C   UNL     1     104.375 122.791  83.220  0.00  0.00    +0.000 A 
ATOM     10  C   UNL     1     104.400 123.859  82.321  0.00  0.00    +0.000 A 
ENDBRANCH   3  10
ENDBRANCH   1   3
BRANCH   1  11
ATOM     11  C   UNL     1     101.964 125.922  82.141  0.00  0.00    +0.000 C 
BRANCH  11  12
ATOM     12  C   UNL     1     100.982 126.971  82.604  0.00  0.00    +0.000 A 
ATOM     13  C   UNL     1     101.437 128.136  83.239  0.00  0.00    +0.000 A 
ATOM     14  C   UNL     1     100.532 129.111  83.661  0.00  0.00    +0.000 A 
ATOM     15  C   UNL     1      99.165 128.935  83.445  0.00  0.00    +0.000 A 
ATOM     16  C   UNL     1      98.704 127.786  82.805  0.00  0.00    +0.000 A 
ATOM     17  C   UNL     1      99.608 126.809  82.383  0.00  0.00    +0.000 A 
ENDBRANCH  11  12
ENDBRANCH   1  11
TORSDOF 4
ENDMDL
