MODEL 1
REMARK VINA RESULT:      -4.4      0.000      0.000
REMARK  Name = *****
REMARK  3 active torsions:
REMARK  status: ('A' for Active; 'I' for Inactive)
REMARK    1  A    between atoms: C_1  and  C_2
REMARK    2  A    between atoms: C_7  and  N_8
REMARK    3  A    between atoms: C_9  and  C_10
REMARK                            x       y       z     vdW  Elec       q    Type
REMARK                         _______ _______ _______ _____ _____    ______ ____
ROOT
ATOM      1  N   UNL     1     102.878 125.261  82.469  0.00  0.00    +0.000 NA
ATOM      2  C   UNL     1     102.336 126.266  81.850  0.00  0.00    +0.000 C 
ENDROOT
BRANCH   1   9
ATOM      3  C   UNL     1     104.273 123.044  83.736  0.00  0.00    +0.000 C 
ATOM      4  C   UNL     1     104.554 123.478  82.324  0.00  0.00    +0.000 A 
ATOM      5  C   UNL     1     105.532 122.812  81.569  0.00  0.00    +0.000 A 
ATOM      6  C   UNL     1     105.802 123.200  80.256  0.00  0.00    +0.000 A 
ATOM      7  C   UNL     1     105.098 124.256  79.684  0.00  0.00    +0.000 A 
ATOM      8  C   UNL     1     104.130 124.929  80.429  0.00  0.00    +0.000 A 
ATOM      9  C   UNL     1     103.862 124.560  81.752  0.00  0.00    +0.000 A 
ENDBRANCH   1   9
BRANCH   2  10
ATOM     10  C   UNL     1     101.288 127.095  82.486  0.00  0.00    +0.000 A 
ATOM     11  C   UNL     1      99.948 126.695  82.371  0.00  0.00    +0.000 A 
ATOM     12  C   UNL     1      98.930 127.452  82.955  0.00  0.00    +0.000 A 
ATOM     13  C   UNL     1      99.244 128.613  83.659  0.00  0.00    +0.000 A 
ATOM     14  C   UNL     1     100.575 129.016  83.779  0.00  0.00    +0.000 A 
ATOM     15  C   UNL     1     101.600 128.262  83.194  0.00  0.00    +0.000 A 
ATOM     16 CL   UNL     1     103.216 128.839  83.397  0.00  0.00    +0.000 Cl
ENDBRANCH   2  10
TORSDOF 2
ENDMDL
