MODEL 1
REMARK VINA RESULT:      -3.9      0.000      0.000
REMARK  Name = *****
REMARK  2 active torsions:
REMARK  status: ('A' for Active; 'I' for Inactive)
REMARK    1  A    between atoms: C_4  and  C_7
REMARK    2  A    between atoms: C_7  and  C_9
REMARK                            x       y       z     vdW  Elec       q    Type
REMARK                         _______ _______ _______ _____ _____    ______ ____
ROOT
ATOM      1  C   UNL     1     102.680 127.359  82.849  0.00  0.00    +0.000 C 
ATOM      2  O   UNL     1     103.434 128.275  82.545  0.00  0.00    +0.000 OA
ENDROOT
BRANCH   1   6
ATOM      3  C   UNL     1      98.430 127.923  82.968  0.00  0.00    +0.000 A 
ATOM      4  C   UNL     1      99.263 128.908  83.498  0.00  0.00    +0.000 A 
ATOM      5  C   UNL     1     100.651 128.742  83.470  0.00  0.00    +0.000 A 
ATOM      6  C   UNL     1     101.209 127.589  82.904  0.00  0.00    +0.000 A 
ATOM      7  C   UNL     1     100.363 126.596  82.390  0.00  0.00    +0.000 A 
ATOM      8  C   UNL     1      98.978 126.766  82.418  0.00  0.00    +0.000 A 
ENDBRANCH   1   6
BRANCH   1   9
ATOM      9  C   UNL     1     103.176 126.026  83.281  0.00  0.00    +0.000 C 
ATOM     10  C   UNL     1     103.705 125.086  82.483  0.00  0.00    +0.000 C 
ATOM     11  S   UNL     1     103.842 125.209  80.749  0.00  0.00    +0.000 S 
ATOM     12  C   UNL     1     104.582 123.656  80.588  0.00  0.00    +0.000 C 
ATOM     13  C   UNL     1     104.769 122.925  81.690  0.00  0.00    +0.000 C 
ATOM     14  S   UNL     1     104.258 123.583  83.205  0.00  0.00    +0.000 S 
ENDBRANCH   1   9
TORSDOF 2
ENDMDL
