MODEL 1
REMARK VINA RESULT:      -4.4      0.000      0.000
REMARK  Name = *****
REMARK  2 active torsions:
REMARK  status: ('A' for Active; 'I' for Inactive)
REMARK    1  A    between atoms: C_9  and  C_10
REMARK    2  A    between atoms: C_10  and  C_12
REMARK                            x       y       z     vdW  Elec       q    Type
REMARK                         _______ _______ _______ _____ _____    ______ ____
ROOT
ATOM      1  C   UNL     1     101.788 127.998  83.505  0.00  0.00    +0.000 C 
ATOM      2  C   UNL     1     103.256 128.415  83.457  0.00  0.00    +0.000 C 
ATOM      3  C   UNL     1     104.207 127.240  83.666  0.00  0.00    +0.000 C 
ATOM      4  C   UNL     1     104.600 126.503  82.390  0.00  0.00    +0.000 C 
ATOM      5  C   UNL     1     103.470 126.170  81.429  0.00  0.00    +0.000 C 
ATOM      6  C   UNL     1     102.114 125.895  82.053  0.00  0.00    +0.000 C 
ATOM      7  C   UNL     1     101.311 127.170  82.317  0.00  0.00    +0.000 C 
ATOM      8  C   UNL     1     103.505 126.825  80.062  0.00  0.00    +0.000 C 
ATOM      9  C   UNL     1     103.822 125.357  80.174  0.00  0.00    +0.000 C 
ENDROOT
BRANCH   9  10
ATOM     10  C   UNL     1     105.209 124.868  79.919  0.00  0.00    +0.000 C 
ATOM     11  O   UNL     1     106.007 125.567  79.308  0.00  0.00    +0.000 OA
BRANCH  10  12
ATOM     12  C   UNL     1     105.593 123.510  80.401  0.00  0.00    +0.000 A 
ATOM     13  C   UNL     1     104.589 122.667  80.894  0.00  0.00    +0.000 A 
ATOM     14  C   UNL     1     104.906 121.388  81.356  0.00  0.00    +0.000 A 
ATOM     15  C   UNL     1     106.228 120.944  81.326  0.00  0.00    +0.000 A 
ATOM     16  C   UNL     1     107.231 121.776  80.833  0.00  0.00    +0.000 A 
ATOM     17  C   UNL     1     106.919 123.057  80.370  0.00  0.00    +0.000 A 
ENDBRANCH  10  12
ENDBRANCH   9  10
TORSDOF 2
ENDMDL
