REMARK  Name = *****
REMARK  3 active torsions:
REMARK  status: ('A' for Active; 'I' for Inactive)
REMARK    1  A    between atoms: C_4  and  O_7
REMARK    2  A    between atoms: O_7  and  C_8
REMARK    3  A    between atoms: C_8  and  C_9
REMARK                            x       y       z     vdW  Elec       q    Type
REMARK                         _______ _______ _______ _____ _____    ______ ____
ROOT
ATOM      1  C   UNL     1      -3.626  -0.649  -0.305  0.00  0.00    +0.000 C 
ENDROOT
BRANCH   1   2
ATOM      2  C   UNL     1      -5.027  -0.095  -0.426  0.00  0.00    +0.000 A 
ATOM      3  C   UNL     1      -5.337   0.827  -1.439  0.00  0.00    +0.000 A 
ATOM      4  C   UNL     1      -6.633   1.331  -1.566  0.00  0.00    +0.000 A 
ATOM      5  C   UNL     1      -7.619   0.912  -0.681  0.00  0.00    +0.000 A 
ATOM      6  C   UNL     1      -7.334   0.000   0.328  0.00  0.00    +0.000 A 
ATOM      7  C   UNL     1      -6.039  -0.505   0.457  0.00  0.00    +0.000 A 
ATOM      8  F   UNL     1      -8.862   1.395  -0.803  0.00  0.00    +0.000 F 
ENDBRANCH   1   2
BRANCH   1   9
ATOM      9  O   UNL     1      -2.724   0.436  -0.096  0.00  0.00    +0.000 OA
BRANCH   9  13
ATOM     10  C   UNL     1       1.373  -0.214   0.270  0.00  0.00    +0.000 A 
ATOM     11  C   UNL     1       0.547  -1.316   0.056  0.00  0.00    +0.000 A 
ATOM     12  C   UNL     1      -0.835  -1.147  -0.074  0.00  0.00    +0.000 A 
ATOM     13  C   UNL     1      -1.396   0.129   0.012  0.00  0.00    +0.000 A 
ATOM     14  C   UNL     1      -0.561   1.229   0.228  0.00  0.00    +0.000 A 
ATOM     15  C   UNL     1       0.819   1.061   0.357  0.00  0.00    +0.000 A 
ENDBRANCH   9  13
ENDBRANCH   1   9
TORSDOF 3
