MODEL 1
REMARK VINA RESULT:      -4.4      0.000      0.000
REMARK  Name = *****
REMARK  5 active torsions:
REMARK  status: ('A' for Active; 'I' for Inactive)
REMARK    1  A    between atoms: C_1  and  C_2
REMARK    2  A    between atoms: C_2  and  C_3
REMARK    3  A    between atoms: C_2  and  N_9
REMARK    4  A    between atoms: N_9  and  C_10
REMARK    5  A    between atoms: N_9  and  C_11
REMARK                            x       y       z     vdW  Elec       q    Type
REMARK                         _______ _______ _______ _____ _____    ______ ____
ROOT
ATOM      1  C   UNL     1      89.926  70.842  85.556  0.00  0.00    +0.000 C 
ATOM      2  C   UNL     1      88.681  70.282  86.261  0.00  0.00    +0.000 C 
ENDROOT
BRANCH   2   3
ATOM      3  C   UNL     1      88.825  68.785  86.526  0.00  0.00    +0.000 A 
ATOM      4  C   UNL     1      87.841  68.026  87.180  0.00  0.00    +0.000 A 
ATOM      5  C   UNL     1      88.000  66.651  87.371  0.00  0.00    +0.000 A 
ATOM      6  C   UNL     1      89.139  66.004  86.902  0.00  0.00    +0.000 A 
ATOM      7  C   UNL     1      90.119  66.731  86.234  0.00  0.00    +0.000 A 
ATOM      8  C   UNL     1      89.960  68.106  86.044  0.00  0.00    +0.000 A 
ENDBRANCH   2   3
BRANCH   2   9
ATOM      9  N   UNL     1      87.445  70.678  85.548  0.00  0.00    +0.000 N 
ATOM     10  C   UNL     1      87.116  70.092  84.252  0.00  0.00    +0.000 C 
BRANCH   9  11
ATOM     11  C   UNL     1      86.387  71.288  86.230  0.00  0.00    +0.000 A 
ATOM     12  C   UNL     1      86.353  71.303  87.637  0.00  0.00    +0.000 A 
ATOM     13  C   UNL     1      85.304  71.897  88.352  0.00  0.00    +0.000 A 
ATOM     14  C   UNL     1      84.253  72.497  87.671  0.00  0.00    +0.000 A 
ATOM     15  C   UNL     1      84.255  72.497  86.283  0.00  0.00    +0.000 A 
ATOM     16  C   UNL     1      85.306  71.896  85.578  0.00  0.00    +0.000 A 
ENDBRANCH   9  11
ENDBRANCH   2   9
TORSDOF 3
ENDMDL
