MODEL 1
REMARK VINA RESULT:      -4.0      0.000      0.000
REMARK  Name = *****
REMARK  4 active torsions:
REMARK  status: ('A' for Active; 'I' for Inactive)
REMARK    1  A    between atoms: C_4  and  C_7
REMARK    2  A    between atoms: C_7  and  O_8
REMARK    3  A    between atoms: O_8  and  C_9
REMARK    4  A    between atoms: C_14  and  C_15
REMARK                            x       y       z     vdW  Elec       q    Type
REMARK                         _______ _______ _______ _____ _____    ______ ____
ROOT
ATOM      1  O   UNL     1      88.263  69.808  87.321  0.00  0.00    +0.000 OA
ENDROOT
BRANCH   1   2
ATOM      2  C   UNL     1      88.702  68.550  87.005  0.00  0.00    +0.000 A 
ATOM      3  C   UNL     1      89.857  68.274  86.265  0.00  0.00    +0.000 A 
ATOM      4  C   UNL     1      90.227  66.954  85.997  0.00  0.00    +0.000 A 
ATOM      5  C   UNL     1      89.449  65.901  86.465  0.00  0.00    +0.000 A 
ATOM      6  C   UNL     1      88.300  66.165  87.208  0.00  0.00    +0.000 A 
ATOM      7  C   UNL     1      87.919  67.488  87.493  0.00  0.00    +0.000 A 
BRANCH   7   8
ATOM      8  C   UNL     1      86.660  67.738  88.280  0.00  0.00    +0.000 C 
ATOM      9 CL   UNL     1      85.278  67.980  87.187  0.00  0.00    +0.000 Cl
ENDBRANCH   7   8
ENDBRANCH   1   2
BRANCH   1  10
ATOM     10  C   UNL     1      87.910  70.674  86.246  0.00  0.00    +0.000 C 
BRANCH  10  14
ATOM     11  C   UNL     1      84.129  72.504  87.225  0.00  0.00    +0.000 A 
ATOM     12  C   UNL     1      84.970  72.058  88.243  0.00  0.00    +0.000 A 
ATOM     13  C   UNL     1      86.196  71.468  87.929  0.00  0.00    +0.000 A 
ATOM     14  C   UNL     1      86.595  71.327  86.593  0.00  0.00    +0.000 A 
ATOM     15  C   UNL     1      85.733  71.765  85.577  0.00  0.00    +0.000 A 
ATOM     16  C   UNL     1      84.509  72.355  85.892  0.00  0.00    +0.000 A 
ENDBRANCH  10  14
ENDBRANCH   1  10
TORSDOF 4
ENDMDL
