MODEL 1
REMARK VINA RESULT:      -4.7      0.000      0.000
REMARK  Name = *****
REMARK  3 active torsions:
REMARK  status: ('A' for Active; 'I' for Inactive)
REMARK    1  A    between atoms: C_2  and  C_3
REMARK    2  A    between atoms: C_2  and  C_10
REMARK    3  A    between atoms: C_3  and  C_4
REMARK                            x       y       z     vdW  Elec       q    Type
REMARK                         _______ _______ _______ _____ _____    ______ ____
ROOT
ATOM      1  C   UNL     1     103.441 127.403  80.309  0.00  0.00    +0.000 C 
ATOM      2  C   UNL     1     103.403 126.754  81.485  0.00  0.00    +0.000 C 
ENDROOT
BRANCH   2   3
ATOM      3  C   UNL     1     103.877 125.361  81.543  0.00  0.00    +0.000 A 
ATOM      4  C   UNL     1     104.353 124.730  80.387  0.00  0.00    +0.000 A 
ATOM      5  C   UNL     1     104.796 123.407  80.439  0.00  0.00    +0.000 A 
ATOM      6  C   UNL     1     104.762 122.707  81.644  0.00  0.00    +0.000 A 
ATOM      7  C   UNL     1     104.283 123.327  82.798  0.00  0.00    +0.000 A 
ATOM      8  C   UNL     1     103.838 124.649  82.747  0.00  0.00    +0.000 A 
ENDBRANCH   2   3
BRANCH   2   9
ATOM      9  C   UNL     1     102.954 127.388  82.780  0.00  0.00    +0.000 C 
BRANCH   9  10
ATOM     10  C   UNL     1     101.451 127.547  82.875  0.00  0.00    +0.000 C 
ATOM     11  C   UNL     1     100.608 126.617  82.388  0.00  0.00    +0.000 C 
ATOM     12  C   UNL     1      99.112 126.738  82.431  0.00  0.00    +0.000 C 
ATOM     13  C   UNL     1      98.633 128.143  82.796  0.00  0.00    +0.000 C 
ATOM     14  C   UNL     1      99.459 128.722  83.938  0.00  0.00    +0.000 C 
ATOM     15  C   UNL     1     100.943 128.792  83.567  0.00  0.00    +0.000 C 
ENDBRANCH   9  10
ENDBRANCH   2   9
TORSDOF 3
ENDMDL
