MODEL 1
REMARK VINA RESULT:      -4.7      0.000      0.000
REMARK  Name = *****
REMARK  3 active torsions:
REMARK  status: ('A' for Active; 'I' for Inactive)
REMARK    1  A    between atoms: C_1  and  C_2
REMARK    2  A    between atoms: C_5  and  N_8
REMARK    3  A    between atoms: C_9  and  C_10
REMARK                            x       y       z     vdW  Elec       q    Type
REMARK                         _______ _______ _______ _____ _____    ______ ____
ROOT
ATOM      1  C   UNL     1     106.654 122.282  80.459  0.00  0.00    +0.000 C 
ATOM      2  C   UNL     1     105.637 123.366  80.683  0.00  0.00    +0.000 A 
ATOM      3  C   UNL     1     105.400 124.370  79.732  0.00  0.00    +0.000 A 
ATOM      4  C   UNL     1     104.446 125.364  79.965  0.00  0.00    +0.000 A 
ATOM      5  C   UNL     1     103.719 125.376  81.154  0.00  0.00    +0.000 A 
ATOM      6  C   UNL     1     103.934 124.371  82.098  0.00  0.00    +0.000 A 
ATOM      7  C   UNL     1     104.888 123.375  81.869  0.00  0.00    +0.000 A 
ATOM      8 CL   UNL     1     106.271 124.423  78.240  0.00  0.00    +0.000 Cl
ENDROOT
BRANCH   5   9
ATOM      9  N   UNL     1     102.750 126.363  81.380  0.00  0.00    +0.000 NA
ATOM     10  C   UNL     1     101.900 126.115  82.328  0.00  0.00    +0.000 C 
BRANCH  10  11
ATOM     11  C   UNL     1     100.824 127.062  82.681  0.00  0.00    +0.000 A 
ATOM     12  C   UNL     1     101.112 128.262  83.338  0.00  0.00    +0.000 A 
ATOM     13  C   UNL     1     100.078 129.140  83.661  0.00  0.00    +0.000 A 
ATOM     14  C   UNL     1      98.760 128.820  83.328  0.00  0.00    +0.000 A 
ATOM     15  C   UNL     1      98.475 127.622  82.672  0.00  0.00    +0.000 A 
ATOM     16  C   UNL     1      99.506 126.740  82.347  0.00  0.00    +0.000 A 
ENDBRANCH  10  11
ENDBRANCH   5   9
TORSDOF 2
ENDMDL
