MODEL 1
REMARK VINA RESULT:      -4.9      0.000      0.000
REMARK  Name = *****
REMARK  8 active torsions:
REMARK  status: ('A' for Active; 'I' for Inactive)
REMARK    1  A    between atoms: C_1  and  C_2
REMARK    2  A    between atoms: C_3  and  C_19
REMARK    3  A    between atoms: C_4  and  C_18
REMARK    4  A    between atoms: C_5  and  C_10
REMARK    5  A    between atoms: C_6  and  C_9
REMARK    6  A    between atoms: C_7  and  C_8
REMARK    7  A    between atoms: C_10  and  S_11
REMARK    8  A    between atoms: S_11  and  C_12
REMARK                            x       y       z     vdW  Elec       q    Type
REMARK                         _______ _______ _______ _____ _____    ______ ____
ROOT
ATOM      1  C   UNL     1      84.948  71.964  89.527  0.00  0.00    +0.000 C 
ATOM      2  C   UNL     1      85.801  71.610  88.327  0.00  0.00    +0.000 A 
ATOM      3  C   UNL     1      85.353  71.978  87.032  0.00  0.00    +0.000 A 
ATOM      4  C   UNL     1      86.105  71.609  85.885  0.00  0.00    +0.000 A 
ATOM      5  C   UNL     1      87.382  71.003  86.040  0.00  0.00    +0.000 A 
ATOM      6  C   UNL     1      87.883  70.750  87.350  0.00  0.00    +0.000 A 
ATOM      7  C   UNL     1      87.053  70.964  88.482  0.00  0.00    +0.000 A 
ATOM      8  C   UNL     1      87.510  70.535  89.861  0.00  0.00    +0.000 C 
ATOM      9  C   UNL     1      89.287  70.216  87.542  0.00  0.00    +0.000 C 
ATOM     10  C   UNL     1      85.560  71.951  84.512  0.00  0.00    +0.000 C 
ATOM     11  C   UNL     1      84.037  72.713  86.863  0.00  0.00    +0.000 C 
ENDROOT
BRANCH   5  12
ATOM     12  C   UNL     1      88.220  70.635  84.818  0.00  0.00    +0.000 C 
BRANCH  12  13
ATOM     13  S   UNL     1      87.639  69.088  84.045  0.00  0.00    +0.000 S 
BRANCH  13  14
ATOM     14  C   UNL     1      88.408  67.886  85.113  0.00  0.00    +0.000 A 
ATOM     15  C   UNL     1      89.767  67.634  84.961  0.00  0.00    +0.000 A 
ATOM     16  C   UNL     1      90.375  66.695  85.793  0.00  0.00    +0.000 A 
ATOM     17  C   UNL     1      89.611  66.040  86.749  0.00  0.00    +0.000 A 
ATOM     18  C   UNL     1      88.266  66.353  86.834  0.00  0.00    +0.000 A 
ATOM     19  N   UNL     1      87.650  67.258  86.041  0.00  0.00    +0.000 NA
ENDBRANCH  13  14
ENDBRANCH  12  13
ENDBRANCH   5  12
TORSDOF 3
ENDMDL
