REMARK  Name = *****
REMARK  3 active torsions:
REMARK  status: ('A' for Active; 'I' for Inactive)
REMARK    1  A    between atoms: C_4  and  C_8
REMARK    2  A    between atoms: C_8  and  O_9
REMARK    3  A    between atoms: O_9  and  C_10
REMARK                            x       y       z     vdW  Elec       q    Type
REMARK                         _______ _______ _______ _____ _____    ______ ____
ROOT
ATOM      1  C   UNL     1       1.272  -1.477  -1.860  0.00  0.00    +0.000 C 
ENDROOT
BRANCH   1   5
ATOM      2  C   UNL     1      -0.146  -0.024   1.330  0.00  0.00    +0.000 C 
ATOM      3  C   UNL     1       0.055   1.131   0.344  0.00  0.00    +0.000 C 
ATOM      4  C   UNL     1       1.316   0.670  -0.422  0.00  0.00    +0.000 C 
ATOM      5  C   UNL     1       1.145  -0.880  -0.460  0.00  0.00    +0.000 C 
ATOM      6  C   UNL     1      -0.235  -1.083   0.223  0.00  0.00    +0.000 C 
ATOM      7  C   UNL     1      -1.318  -0.441  -0.616  0.00  0.00    +0.000 C 
ATOM      8  C   UNL     1      -1.139   0.887  -0.549  0.00  0.00    +0.000 C 
ENDBRANCH   1   5
BRANCH   1   9
ATOM      9  O   UNL     1       1.078  -2.888  -1.759  0.00  0.00    +0.000 OA
BRANCH   9  10
ATOM     10  C   UNL     1       1.115  -3.607  -2.922  0.00  0.00    +0.000 A 
ATOM     11  C   UNL     1       1.387  -3.101  -4.193  0.00  0.00    +0.000 A 
ATOM     12  C   UNL     1       1.393  -3.954  -5.302  0.00  0.00    +0.000 A 
ATOM     13  C   UNL     1       1.130  -5.314  -5.144  0.00  0.00    +0.000 A 
ATOM     14  C   UNL     1       0.861  -5.824  -3.877  0.00  0.00    +0.000 A 
ATOM     15  C   UNL     1       0.855  -4.972  -2.771  0.00  0.00    +0.000 A 
ENDBRANCH   9  10
ENDBRANCH   1   9
TORSDOF 3
