MODEL 1
REMARK VINA RESULT:      -5.0      0.000      0.000
REMARK  Name = *****
REMARK  3 active torsions:
REMARK  status: ('A' for Active; 'I' for Inactive)
REMARK    1  A    between atoms: C_4  and  C_7
REMARK    2  A    between atoms: C_8  and  C_9
REMARK    3  A    between atoms: C_9  and  C_11
REMARK                            x       y       z     vdW  Elec       q    Type
REMARK                         _______ _______ _______ _____ _____    ______ ____
ROOT
ATOM      1  C   UNL     1      89.022  64.521  86.678  0.00  0.00    +0.000 C 
ATOM      2  O   UNL     1      89.816  63.819  86.060  0.00  0.00    +0.000 OA
ENDROOT
BRANCH   1   3
ATOM      3  C   UNL     1      88.255  63.940  87.810  0.00  0.00    +0.000 A 
ATOM      4  C   UNL     1      87.314  62.920  87.634  0.00  0.00    +0.000 A 
ATOM      5  C   UNL     1      86.641  62.411  88.743  0.00  0.00    +0.000 A 
ATOM      6  C   UNL     1      86.888  62.891  90.021  0.00  0.00    +0.000 A 
ATOM      7  C   UNL     1      87.835  63.890  90.187  0.00  0.00    +0.000 A 
ATOM      8  C   UNL     1      88.524  64.416  89.100  0.00  0.00    +0.000 A 
ATOM      9  F   UNL     1      88.089  64.357  91.417  0.00  0.00    +0.000 F 
ATOM     10  F   UNL     1      85.739  61.436  88.569  0.00  0.00    +0.000 F 
ENDBRANCH   1   3
BRANCH   1  12
ATOM     11  C   UNL     1      89.880  66.790  86.380  0.00  0.00    +0.000 C 
ATOM     12  C   UNL     1      88.826  65.961  86.361  0.00  0.00    +0.000 C 
BRANCH  11  16
ATOM     13  C   UNL     1      89.702  70.956  85.433  0.00  0.00    +0.000 A 
ATOM     14  C   UNL     1      89.528  70.545  86.753  0.00  0.00    +0.000 A 
ATOM     15  C   UNL     1      89.579  69.186  87.076  0.00  0.00    +0.000 A 
ATOM     16  C   UNL     1      89.793  68.224  86.080  0.00  0.00    +0.000 A 
ATOM     17  C   UNL     1      89.984  68.652  84.759  0.00  0.00    +0.000 A 
ATOM     18  C   UNL     1      89.933  70.010  84.436  0.00  0.00    +0.000 A 
ENDBRANCH  11  16
ENDBRANCH   1  12
TORSDOF 3
ENDMDL
