MODEL 1
REMARK VINA RESULT:      -4.2      0.000      0.000
REMARK  Name = *****
REMARK  2 active torsions:
REMARK  status: ('A' for Active; 'I' for Inactive)
REMARK    1  A    between atoms: C_4  and  C_6
REMARK    2  A    between atoms: C_7  and  C_8
REMARK                            x       y       z     vdW  Elec       q    Type
REMARK                         _______ _______ _______ _____ _____    ______ ____
ROOT
ATOM      1  C   UNL     1     103.027 126.030  82.059  0.00  0.00    +0.000 C 
ATOM      2  C   UNL     1     101.710 125.979  82.317  0.00  0.00    +0.000 C 
ENDROOT
BRANCH   2   3
ATOM      3  C   UNL     1     100.923 127.147  82.739  0.00  0.00    +0.000 A 
ATOM      4  C   UNL     1      99.533 127.211  82.563  0.00  0.00    +0.000 A 
ATOM      5  C   UNL     1      98.814 128.325  83.006  0.00  0.00    +0.000 A 
ATOM      6  C   UNL     1      99.483 129.368  83.634  0.00  0.00    +0.000 A 
ATOM      7  C   UNL     1     100.857 129.316  83.833  0.00  0.00    +0.000 A 
ATOM      8  C   UNL     1     101.575 128.203  83.391  0.00  0.00    +0.000 A 
ATOM      9  F   UNL     1      98.794 130.434  84.061  0.00  0.00    +0.000 F 
ENDBRANCH   2   3
BRANCH   1  13
ATOM     10  C   UNL     1     104.945 123.239  80.452  0.00  0.00    +0.000 A 
ATOM     11  C   UNL     1     105.051 122.749  81.731  0.00  0.00    +0.000 A 
ATOM     12  S   UNL     1     104.276 123.758  82.868  0.00  0.00    +0.000 S 
ATOM     13  C   UNL     1     103.776 124.884  81.656  0.00  0.00    +0.000 A 
ATOM     14  C   UNL     1     104.214 124.463  80.410  0.00  0.00    +0.000 A 
ENDBRANCH   1  13
TORSDOF 2
ENDMDL
