MODEL 1
REMARK VINA RESULT:      -4.2      0.000      0.000
REMARK  Name = *****
REMARK  5 active torsions:
REMARK  status: ('A' for Active; 'I' for Inactive)
REMARK    1  A    between atoms: C_4  and  C_7
REMARK    2  A    between atoms: C_7  and  N_8
REMARK    3  A    between atoms: N_8  and  C_9
REMARK    4  A    between atoms: N_8  and  C_16
REMARK    5  A    between atoms: C_9  and  C_10
REMARK                            x       y       z     vdW  Elec       q    Type
REMARK                         _______ _______ _______ _____ _____    ______ ____
ROOT
ATOM      1  N   UNL     1     103.585 128.024  82.026  0.00  0.00    +0.000 N 
ENDROOT
BRANCH   1   2
ATOM      2  C   UNL     1     104.384 129.112  82.351  0.00  0.00    +0.000 C 
ATOM      3  S   UNL     1     104.573 129.851  83.836  0.00  0.00    +0.000 S 
ENDBRANCH   1   2
BRANCH   1   4
ATOM      4  C   UNL     1     102.839 127.353  83.096  0.00  0.00    +0.000 C 
BRANCH   4   8
ATOM      5  C   UNL     1      98.592 128.105  82.902  0.00  0.00    +0.000 A 
ATOM      6  C   UNL     1      99.442 129.056  83.462  0.00  0.00    +0.000 A 
ATOM      7  C   UNL     1     100.814 128.816  83.526  0.00  0.00    +0.000 A 
ATOM      8  C   UNL     1     101.353 127.616  83.036  0.00  0.00    +0.000 A 
ATOM      9  C   UNL     1     100.487 126.668  82.470  0.00  0.00    +0.000 A 
ATOM     10  C   UNL     1      99.114 126.912  82.405  0.00  0.00    +0.000 A 
ENDBRANCH   4   8
ENDBRANCH   1   4
BRANCH   1  11
ATOM     11  C   UNL     1     103.445 127.481  80.663  0.00  0.00    +0.000 C 
BRANCH  11  12
ATOM     12  C   UNL     1     104.310 126.263  80.430  0.00  0.00    +0.000 A 
ATOM     13  C   UNL     1     103.787 124.974  80.605  0.00  0.00    +0.000 A 
ATOM     14  C   UNL     1     104.588 123.851  80.393  0.00  0.00    +0.000 A 
ATOM     15  C   UNL     1     105.917 124.003  80.004  0.00  0.00    +0.000 A 
ATOM     16  C   UNL     1     106.447 125.280  79.824  0.00  0.00    +0.000 A 
ATOM     17  C   UNL     1     105.648 126.405  80.034  0.00  0.00    +0.000 A 
ENDBRANCH  11  12
ENDBRANCH   1  11
TORSDOF 5
ENDMDL
