MODEL 1
REMARK VINA RESULT:      -4.2      0.000      0.000
REMARK  Name = *****
REMARK  4 active torsions:
REMARK  status: ('A' for Active; 'I' for Inactive)
REMARK    1  A    between atoms: C_1  and  C_2
REMARK    2  A    between atoms: C_7  and  O_8
REMARK    3  A    between atoms: O_8  and  C_9
REMARK    4  A    between atoms: C_9  and  C_11
REMARK                            x       y       z     vdW  Elec       q    Type
REMARK                         _______ _______ _______ _____ _____    ______ ____
ROOT
ATOM      1  O   UNL     1      88.122  69.583  86.731  0.00  0.00    +0.000 OA
ENDROOT
BRANCH   1   8
ATOM      2  C   UNL     1      89.512  67.044  86.522  0.00  0.00    +0.000 C 
ATOM      3  C   UNL     1      89.972  68.316  85.808  0.00  0.00    +0.000 C 
ATOM      4  C   UNL     1      89.432  68.338  84.370  0.00  0.00    +0.000 C 
ATOM      5  C   UNL     1      89.855  69.606  83.631  0.00  0.00    +0.000 C 
ATOM      6  C   UNL     1      89.461  70.866  84.394  0.00  0.00    +0.000 C 
ATOM      7  C   UNL     1      89.992  70.845  85.827  0.00  0.00    +0.000 C 
ATOM      8  C   UNL     1      89.557  69.583  86.584  0.00  0.00    +0.000 C 
ENDBRANCH   1   8
BRANCH   1   9
ATOM      9  C   UNL     1      87.625  70.249  87.802  0.00  0.00    +0.000 C 
ATOM     10  O   UNL     1      88.068  70.213  88.939  0.00  0.00    +0.000 OA
BRANCH   9  11
ATOM     11  C   UNL     1      86.440  71.057  87.405  0.00  0.00    +0.000 A 
ATOM     12  C   UNL     1      86.220  71.282  86.039  0.00  0.00    +0.000 A 
ATOM     13  C   UNL     1      85.120  72.031  85.616  0.00  0.00    +0.000 A 
ATOM     14  C   UNL     1      84.236  72.560  86.554  0.00  0.00    +0.000 A 
ATOM     15  C   UNL     1      84.447  72.343  87.915  0.00  0.00    +0.000 A 
ATOM     16  C   UNL     1      85.546  71.593  88.342  0.00  0.00    +0.000 A 
ENDBRANCH   9  11
ENDBRANCH   1   9
TORSDOF 3
ENDMDL
