MODEL 1
REMARK VINA RESULT:      -4.6      0.000      0.000
REMARK  Name = *****
REMARK  4 active torsions:
REMARK  status: ('A' for Active; 'I' for Inactive)
REMARK    1  A    between atoms: C_3  and  C_17
REMARK    2  A    between atoms: C_6  and  C_7
REMARK    3  A    between atoms: C_8  and  C_9
REMARK    4  A    between atoms: C_12  and  C_15
REMARK                            x       y       z     vdW  Elec       q    Type
REMARK                         _______ _______ _______ _____ _____    ______ ____
ROOT
ATOM      1  C   UNL     1      85.675  61.364  90.090  0.00  0.00    +0.000 C 
ATOM      2  C   UNL     1      86.339  61.475  88.928  0.00  0.00    +0.000 C 
ENDROOT
BRANCH   1   8
ATOM      3  C   UNL     1      85.731  58.962  90.825  0.00  0.00    +0.000 A 
ATOM      4  C   UNL     1      85.063  57.797  91.216  0.00  0.00    +0.000 A 
ATOM      5  C   UNL     1      83.671  57.793  91.310  0.00  0.00    +0.000 A 
ATOM      6  C   UNL     1      82.940  58.944  91.010  0.00  0.00    +0.000 A 
ATOM      7  C   UNL     1      83.612  60.107  90.619  0.00  0.00    +0.000 A 
ATOM      8  C   UNL     1      85.013  60.130  90.536  0.00  0.00    +0.000 A 
BRANCH   5   9
ATOM      9  C   UNL     1      82.957  56.567  91.721  0.00  0.00    +0.000 C 
ATOM     10  O   UNL     1      82.936  55.560  91.024  0.00  0.00    +0.000 OA
ENDBRANCH   5   9
ENDBRANCH   1   8
BRANCH   2  11
ATOM     11  C   UNL     1      86.999  62.708  88.478  0.00  0.00    +0.000 A 
ATOM     12  C   UNL     1      87.808  63.477  89.328  0.00  0.00    +0.000 A 
ATOM     13  C   UNL     1      88.441  64.630  88.856  0.00  0.00    +0.000 A 
ATOM     14  C   UNL     1      88.279  65.016  87.523  0.00  0.00    +0.000 A 
ATOM     15  C   UNL     1      87.492  64.251  86.660  0.00  0.00    +0.000 A 
ATOM     16  C   UNL     1      86.861  63.099  87.139  0.00  0.00    +0.000 A 
BRANCH  14  17
ATOM     17  C   UNL     1      88.944  66.232  87.015  0.00  0.00    +0.000 C 
ATOM     18  O   UNL     1      90.023  66.192  86.436  0.00  0.00    +0.000 OA
ENDBRANCH  14  17
ENDBRANCH   2  11
TORSDOF 4
ENDMDL
