MODEL 1
REMARK VINA RESULT:      -4.5      0.000      0.000
REMARK  Name = *****
REMARK  6 active torsions:
REMARK  status: ('A' for Active; 'I' for Inactive)
REMARK    1  A    between atoms: C_1  and  C_2
REMARK    2  A    between atoms: C_4  and  C_17
REMARK    3  A    between atoms: C_5  and  C_8
REMARK    4  A    between atoms: C_8  and  C_10
REMARK    5  A    between atoms: C_10  and  C_11
REMARK    6  A    between atoms: C_11  and  C_12
REMARK                            x       y       z     vdW  Elec       q    Type
REMARK                         _______ _______ _______ _____ _____    ______ ____
ROOT
ATOM      1  C   UNL     1      88.801  70.344  85.805  0.00  0.00    +0.000 C 
ATOM      2  O   UNL     1      89.802  71.046  85.687  0.00  0.00    +0.000 OA
ENDROOT
BRANCH   1   7
ATOM      3  C   UNL     1      83.899  72.557  87.971  0.00  0.00    +0.000 C 
ATOM      4  C   UNL     1      85.161  71.964  87.416  0.00  0.00    +0.000 A 
ATOM      5  C   UNL     1      86.140  71.450  88.277  0.00  0.00    +0.000 A 
ATOM      6  C   UNL     1      87.345  70.922  87.781  0.00  0.00    +0.000 A 
ATOM      7  C   UNL     1      87.557  70.914  86.390  0.00  0.00    +0.000 A 
ATOM      8  C   UNL     1      86.582  71.433  85.526  0.00  0.00    +0.000 A 
ATOM      9  C   UNL     1      85.396  71.962  86.037  0.00  0.00    +0.000 A 
ATOM     10  C   UNL     1      88.352  70.367  88.750  0.00  0.00    +0.000 C 
ENDBRANCH   1   7
BRANCH   1  11
ATOM     11  C   UNL     1      88.780  68.897  85.348  0.00  0.00    +0.000 C 
BRANCH  11  12
ATOM     12  C   UNL     1      89.996  68.145  85.881  0.00  0.00    +0.000 C 
BRANCH  12  13
ATOM     13  C   UNL     1      89.608  66.960  86.767  0.00  0.00    +0.000 C 
ATOM     14  C   UNL     1      89.722  65.598  86.081  0.00  0.00    +0.000 C 
ATOM     15  C   UNL     1      88.788  64.678  86.866  0.00  0.00    +0.000 C 
ATOM     16  C   UNL     1      87.892  65.587  87.706  0.00  0.00    +0.000 C 
ATOM     17  C   UNL     1      88.141  66.995  87.185  0.00  0.00    +0.000 C 
ENDBRANCH  12  13
ENDBRANCH  11  12
ENDBRANCH   1  11
TORSDOF 4
ENDMDL
