MODEL 1
REMARK VINA RESULT:      -4.0      0.000      0.000
REMARK  Name = *****
REMARK  3 active torsions:
REMARK  status: ('A' for Active; 'I' for Inactive)
REMARK    1  A    between atoms: C_4  and  O_7
REMARK    2  A    between atoms: O_7  and  S_8
REMARK    3  A    between atoms: S_8  and  C_9
REMARK                            x       y       z     vdW  Elec       q    Type
REMARK                         _______ _______ _______ _____ _____    ______ ____
ROOT
ATOM      1  O   UNL     1     103.123 125.899  83.305  0.00  0.00    +0.000 OA
ENDROOT
BRANCH   1   5
ATOM      2  C   UNL     1     104.756 123.091  80.588  0.00  0.00    +0.000 C 
ATOM      3  C   UNL     1     104.603 124.533  80.109  0.00  0.00    +0.000 C 
ATOM      4  C   UNL     1     103.666 125.328  81.012  0.00  0.00    +0.000 C 
ATOM      5  C   UNL     1     104.110 125.276  82.477  0.00  0.00    +0.000 C 
ATOM      6  C   UNL     1     104.251 123.824  82.947  0.00  0.00    +0.000 C 
ATOM      7  C   UNL     1     105.190 123.026  82.049  0.00  0.00    +0.000 C 
ENDBRANCH   1   5
BRANCH   1   8
ATOM      8  S   UNL     1     103.028 127.559  83.177  0.00  0.00    +0.000 S 
BRANCH   8   9
ATOM      9  C   UNL     1     101.253 127.735  83.057  0.00  0.00    +0.000 A 
ATOM     10  C   UNL     1     100.591 128.873  83.532  0.00  0.00    +0.000 A 
ATOM     11  C   UNL     1      99.202 128.978  83.428  0.00  0.00    +0.000 A 
ATOM     12  C   UNL     1      98.466 127.942  82.855  0.00  0.00    +0.000 A 
ATOM     13  C   UNL     1      99.116 126.802  82.388  0.00  0.00    +0.000 A 
ATOM     14  C   UNL     1     100.504 126.698  82.491  0.00  0.00    +0.000 A 
ENDBRANCH   8   9
ENDBRANCH   1   8
TORSDOF 3
ENDMDL
