REMARK  Name = *****
REMARK  6 active torsions:
REMARK  status: ('A' for Active; 'I' for Inactive)
REMARK    1  A    between atoms: C_1  and  C_2
REMARK    2  A    between atoms: C_2  and  O_3
REMARK    3  A    between atoms: O_3  and  C_4
REMARK    4  A    between atoms: C_7  and  C_17
REMARK    5  A    between atoms: C_8  and  C_9
REMARK    6  A    between atoms: C_10  and  C_11
REMARK                            x       y       z     vdW  Elec       q    Type
REMARK                         _______ _______ _______ _____ _____    ______ ____
ROOT
ATOM      1  C   UNL     1       4.533  -1.451   1.330  0.00  0.00    +0.000 A 
ATOM      2  N   UNL     1       5.265  -0.338   1.445  0.00  0.00    +0.000 NA
ATOM      3  O   UNL     1       6.579  -0.779   1.533  0.00  0.00    +0.000 OA
ATOM      4  C   UNL     1       6.608  -2.141   1.469  0.00  0.00    +0.000 A 
ATOM      5  C   UNL     1       5.324  -2.613   1.339  0.00  0.00    +0.000 A 
ATOM      6  C   UNL     1       7.935  -2.777   1.549  0.00  0.00    +0.000 C 
ENDROOT
BRANCH   5   7
ATOM      7  C   UNL     1       4.926  -3.974   1.240  0.00  0.00    +0.000 C 
ATOM      8  C   UNL     1       4.591  -5.124   1.157  0.00  0.00    +0.000 C 
BRANCH   8   9
ATOM      9  C   UNL     1       4.188  -6.493   1.058  0.00  0.00    +0.000 A 
ATOM     10  C   UNL     1       5.020  -7.505   1.542  0.00  0.00    +0.000 A 
ATOM     11  C   UNL     1       4.624  -8.841   1.444  0.00  0.00    +0.000 A 
ATOM     12  C   UNL     1       3.399  -9.165   0.863  0.00  0.00    +0.000 A 
ATOM     13  C   UNL     1       2.567  -8.155   0.378  0.00  0.00    +0.000 A 
ATOM     14  C   UNL     1       2.961  -6.819   0.476  0.00  0.00    +0.000 A 
ENDBRANCH   8   9
ENDBRANCH   5   7
BRANCH   1  15
ATOM     15  O   UNL     1       3.184  -1.406   1.217  0.00  0.00    +0.000 OA
BRANCH  15  17
ATOM     16  C   UNL     1       1.122  -0.217   1.127  0.00  0.00    +0.000 C 
ATOM     17  C   UNL     1       2.629  -0.092   1.259  0.00  0.00    +0.000 C 
ENDBRANCH  15  17
ENDBRANCH   1  15
TORSDOF 4
