REMARK  Name = *****
REMARK  1 active torsions:
REMARK  status: ('A' for Active; 'I' for Inactive)
REMARK    1  A    between atoms: C_8  and  C_9
REMARK                            x       y       z     vdW  Elec       q    Type
REMARK                         _______ _______ _______ _____ _____    ______ ____
ROOT
ATOM      1  C   UNL     1      -2.645  -0.678   0.383  0.00  0.00    +0.000 C 
ATOM      2  C   UNL     1      -2.652   0.674  -0.300  0.00  0.00    +0.000 C 
ATOM      3  S   UNL     1      -1.292   1.705   0.292  0.00  0.00    +0.000 S 
ATOM      4  C   UNL     1       0.092   0.667   0.104  0.00  0.00    +0.000 C 
ATOM      5  C   UNL     1       0.092  -0.666  -0.085  0.00  0.00    +0.000 C 
ATOM      6  S   UNL     1      -1.294  -1.709  -0.230  0.00  0.00    +0.000 S 
ATOM      7  S   UNL     1       1.645  -1.453  -0.236  0.00  0.00    +0.000 S 
ATOM      8  C   UNL     1       2.592   0.008  -0.045  0.00  0.00    +0.000 C 
ATOM      9  S   UNL     1       1.647   1.460   0.206  0.00  0.00    +0.000 S 
ENDROOT
BRANCH   8  10
ATOM     10  C   UNL     1       3.954   0.013  -0.089  0.00  0.00    +0.000 C 
ATOM     11  C   UNL     1       4.746   1.247   0.073  0.00  0.00    +0.000 C 
ATOM     12  C   UNL     1       6.085   1.188   0.017  0.00  0.00    +0.000 C 
ATOM     13  O   UNL     1       6.801   0.026  -0.185  0.00  0.00    +0.000 OA
ATOM     14  C   UNL     1       6.083  -1.142  -0.337  0.00  0.00    +0.000 C 
ATOM     15  C   UNL     1       4.744  -1.214  -0.302  0.00  0.00    +0.000 C 
ENDBRANCH   8  10
TORSDOF 1
