MODEL 1
REMARK VINA RESULT:      -4.0      0.000      0.000
REMARK  Name = *****
REMARK  4 active torsions:
REMARK  status: ('A' for Active; 'I' for Inactive)
REMARK    1  A    between atoms: C_4  and  C_7
REMARK    2  A    between atoms: C_7  and  S_9
REMARK    3  A    between atoms: S_9  and  C_10
REMARK    4  A    between atoms: C_11  and  C_15
REMARK                            x       y       z     vdW  Elec       q    Type
REMARK                         _______ _______ _______ _____ _____    ______ ____
ROOT
ATOM      1  C   UNL     1      88.432  70.279  87.456  0.00  0.00    +0.000 C 
ATOM      2  O   UNL     1      88.945  70.392  88.563  0.00  0.00    +0.000 OA
ENDROOT
BRANCH   1   6
ATOM      3  C   UNL     1      84.708  72.288  86.676  0.00  0.00    +0.000 A 
ATOM      4  C   UNL     1      85.134  72.044  87.978  0.00  0.00    +0.000 A 
ATOM      5  C   UNL     1      86.350  71.392  88.203  0.00  0.00    +0.000 A 
ATOM      6  C   UNL     1      87.153  70.979  87.128  0.00  0.00    +0.000 A 
ATOM      7  C   UNL     1      86.712  71.232  85.821  0.00  0.00    +0.000 A 
ATOM      8  C   UNL     1      85.494  71.883  85.599  0.00  0.00    +0.000 A 
ENDBRANCH   1   6
BRANCH   1   9
ATOM      9  S   UNL     1      89.202  69.291  86.219  0.00  0.00    +0.000 S 
BRANCH   9  10
ATOM     10  C   UNL     1      88.733  67.681  86.763  0.00  0.00    +0.000 A 
ATOM     11  C   UNL     1      89.413  66.507  86.507  0.00  0.00    +0.000 A 
ATOM     12  S   UNL     1      88.643  65.165  87.253  0.00  0.00    +0.000 S 
ATOM     13  C   UNL     1      87.408  66.147  87.906  0.00  0.00    +0.000 A 
ATOM     14  C   UNL     1      87.578  67.472  87.575  0.00  0.00    +0.000 A 
BRANCH  11  15
ATOM     15  C   UNL     1      90.611  66.257  85.734  0.00  0.00    +0.000 C 
ATOM     16  O   UNL     1      90.732  66.413  84.521  0.00  0.00    +0.000 OA
ENDBRANCH  11  15
ENDBRANCH   9  10
ENDBRANCH   1   9
TORSDOF 4
ENDMDL
