MODEL 1
REMARK VINA RESULT:      -4.8      0.000      0.000
REMARK  Name = *****
REMARK  5 active torsions:
REMARK  status: ('A' for Active; 'I' for Inactive)
REMARK    1  A    between atoms: C_1  and  C_2
REMARK    2  A    between atoms: C_5  and  C_8
REMARK    3  A    between atoms: C_8  and  C_9
REMARK    4  A    between atoms: C_9  and  C_10
REMARK    5  A    between atoms: C_15  and  C_16
REMARK                            x       y       z     vdW  Elec       q    Type
REMARK                         _______ _______ _______ _____ _____    ______ ____
ROOT
ATOM      1  C   UNL     1      88.028  70.449  88.372  0.00  0.00    +0.000 C 
ENDROOT
BRANCH   1   6
ATOM      2  C   UNL     1      83.222  73.076  86.346  0.00  0.00    +0.000 C 
ATOM      3  C   UNL     1      84.436  72.377  86.878  0.00  0.00    +0.000 A 
ATOM      4  C   UNL     1      84.620  72.221  88.256  0.00  0.00    +0.000 A 
ATOM      5  C   UNL     1      85.767  71.596  88.756  0.00  0.00    +0.000 A 
ATOM      6  C   UNL     1      86.755  71.113  87.890  0.00  0.00    +0.000 A 
ATOM      7  C   UNL     1      86.579  71.303  86.511  0.00  0.00    +0.000 A 
ATOM      8  C   UNL     1      85.434  71.927  86.010  0.00  0.00    +0.000 A 
ENDBRANCH   1   6
BRANCH   1   9
ATOM      9  C   UNL     1      89.283  70.546  87.485  0.00  0.00    +0.000 C 
BRANCH   9  10
ATOM     10  C   UNL     1      89.511  69.500  86.405  0.00  0.00    +0.000 A 
ATOM     11  C   UNL     1      89.461  68.124  86.683  0.00  0.00    +0.000 A 
ATOM     12  C   UNL     1      89.664  67.174  85.679  0.00  0.00    +0.000 A 
ATOM     13  C   UNL     1      89.912  67.581  84.375  0.00  0.00    +0.000 A 
ATOM     14  C   UNL     1      89.953  68.939  84.072  0.00  0.00    +0.000 A 
ATOM     15  C   UNL     1      89.746  69.907  85.069  0.00  0.00    +0.000 A 
ATOM     16  C   UNL     1      89.803  71.361  84.682  0.00  0.00    +0.000 C 
ENDBRANCH   9  10
ENDBRANCH   1   9
TORSDOF 3
ENDMDL
