MODEL 1
REMARK VINA RESULT:      -4.9      0.000      0.000
REMARK  Name = *****
REMARK  2 active torsions:
REMARK  status: ('A' for Active; 'I' for Inactive)
REMARK    1  A    between atoms: C_8  and  O_11
REMARK    2  A    between atoms: O_11  and  C_12
REMARK                            x       y       z     vdW  Elec       q    Type
REMARK                         _______ _______ _______ _____ _____    ______ ____
ROOT
ATOM      1  C   UNL     1      98.201 127.910  83.151  0.00  0.00    +0.000 C 
ATOM      2  C   UNL     1      99.285 128.830  83.625  0.00  0.00    +0.000 A 
ATOM      3  C   UNL     1      99.029 130.068  84.219  0.00  0.00    +0.000 A 
ATOM      4  C   UNL     1     100.094 130.854  84.664  0.00  0.00    +0.000 A 
ATOM      5  C   UNL     1     101.410 130.404  84.528  0.00  0.00    +0.000 A 
ATOM      6  C   UNL     1     101.670 129.161  83.949  0.00  0.00    +0.000 A 
ATOM      7  C   UNL     1     100.603 128.378  83.502  0.00  0.00    +0.000 A 
ATOM      8  C   UNL     1     100.748 127.037  82.905  0.00  0.00    +0.000 C 
ATOM      9  N   UNL     1      99.821 126.411  82.245  0.00  0.00    +0.000 NA
ATOM     10  O   UNL     1      98.666 127.200  81.994  0.00  0.00    +0.000 OA
ENDROOT
BRANCH   8  11
ATOM     11  O   UNL     1     101.989 126.508  83.222  0.00  0.00    +0.000 OA
BRANCH  11  12
ATOM     12  C   UNL     1     102.846 126.152  82.167  0.00  0.00    +0.000 A 
ATOM     13  C   UNL     1     103.328 124.852  82.036  0.00  0.00    +0.000 A 
ATOM     14  C   UNL     1     104.124 124.528  80.938  0.00  0.00    +0.000 A 
ATOM     15  C   UNL     1     104.414 125.497  79.975  0.00  0.00    +0.000 A 
ATOM     16  C   UNL     1     103.906 126.792  80.106  0.00  0.00    +0.000 A 
ATOM     17  C   UNL     1     103.112 127.122  81.203  0.00  0.00    +0.000 A 
ENDBRANCH  11  12
ENDBRANCH   8  11
TORSDOF 2
ENDMDL
