MODEL 1
REMARK VINA RESULT:      -5.2      0.000      0.000
REMARK  Name = *****
REMARK  1 active torsions:
REMARK  status: ('A' for Active; 'I' for Inactive)
REMARK    1  A    between atoms: C_6  and  C_7
REMARK                            x       y       z     vdW  Elec       q    Type
REMARK                         _______ _______ _______ _____ _____    ______ ____
ROOT
ATOM      1  C   UNL     1     102.917 125.654  81.722  0.00  0.00    +0.000 C 
ATOM      2  O   UNL     1     103.066 125.731  80.502  0.00  0.00    +0.000 OA
ATOM      3  N   UNL     1     103.537 124.577  82.379  0.00  0.00    +0.000 N 
ATOM      4  C   UNL     1     104.382 123.600  81.870  0.00  0.00    +0.000 A 
ATOM      5  C   UNL     1     104.651 122.794  82.971  0.00  0.00    +0.000 A 
ATOM      6  C   UNL     1     105.493 121.682  82.837  0.00  0.00    +0.000 A 
ATOM      7  C   UNL     1     106.042 121.420  81.579  0.00  0.00    +0.000 A 
ATOM      8  C   UNL     1     105.766 122.236  80.481  0.00  0.00    +0.000 A 
ATOM      9  C   UNL     1     104.926 123.350  80.602  0.00  0.00    +0.000 A 
ATOM     10 CL   UNL     1     107.082 120.062  81.381  0.00  0.00    +0.000 Cl
ATOM     11  N   UNL     1     103.991 123.273  84.064  0.00  0.00    +0.000 NA
ATOM     12  N   UNL     1     103.309 124.347  83.698  0.00  0.00    +0.000 NA
ENDROOT
BRANCH   1  18
ATOM     13  C   UNL     1     102.631 127.851  82.953  0.00  0.00    +0.000 A 
ATOM     14  C   UNL     1     101.795 128.808  83.536  0.00  0.00    +0.000 A 
ATOM     15  C   UNL     1     100.419 128.618  83.531  0.00  0.00    +0.000 A 
ATOM     16  C   UNL     1      99.855 127.490  82.947  0.00  0.00    +0.000 A 
ATOM     17  C   UNL     1     100.685 126.530  82.365  0.00  0.00    +0.000 A 
ATOM     18  C   UNL     1     102.079 126.697  82.378  0.00  0.00    +0.000 A 
ATOM     19  F   UNL     1      99.623 129.540  84.087  0.00  0.00    +0.000 F 
ENDBRANCH   1  18
TORSDOF 1
ENDMDL
