REMARK  Name = *****
REMARK  3 active torsions:
REMARK  status: ('A' for Active; 'I' for Inactive)
REMARK    1  A    between atoms: C_4  and  O_7
REMARK    2  A    between atoms: O_7  and  C_8
REMARK    3  A    between atoms: C_8  and  C_10
REMARK                            x       y       z     vdW  Elec       q    Type
REMARK                         _______ _______ _______ _____ _____    ______ ____
ROOT
ATOM      1  C   UNL     1      -3.716  -0.946  -0.247  0.00  0.00    +0.000 C 
ATOM      2  S   UNL     1      -3.000  -2.108  -1.206  0.00  0.00    +0.000 S 
ENDROOT
BRANCH   1   3
ATOM      3  C   UNL     1      -5.153  -0.568  -0.206  0.00  0.00    +0.000 A 
ATOM      4  C   UNL     1      -5.963  -0.693  -1.346  0.00  0.00    +0.000 A 
ATOM      5  C   UNL     1      -7.316  -0.340  -1.295  0.00  0.00    +0.000 A 
ATOM      6  C   UNL     1      -7.866   0.138  -0.107  0.00  0.00    +0.000 A 
ATOM      7  C   UNL     1      -7.075   0.266   1.032  0.00  0.00    +0.000 A 
ATOM      8  C   UNL     1      -5.723  -0.087   0.985  0.00  0.00    +0.000 A 
ATOM      9 CL   UNL     1      -9.529   0.572  -0.048  0.00  0.00    +0.000 Cl
ENDBRANCH   1   3
BRANCH   1  10
ATOM     10  O   UNL     1      -3.015  -0.121   0.638  0.00  0.00    +0.000 OA
BRANCH  10  14
ATOM     11  C   UNL     1       1.071  -0.376   1.463  0.00  0.00    +0.000 A 
ATOM     12  C   UNL     1       0.603   0.556   0.531  0.00  0.00    +0.000 A 
ATOM     13  C   UNL     1      -0.759   0.634   0.246  0.00  0.00    +0.000 A 
ATOM     14  C   UNL     1      -1.632  -0.238   0.892  0.00  0.00    +0.000 A 
ATOM     15  C   UNL     1      -1.186  -1.157   1.838  0.00  0.00    +0.000 A 
ATOM     16  C   UNL     1       0.178  -1.229   2.117  0.00  0.00    +0.000 A 
ENDBRANCH  10  14
ENDBRANCH   1  10
TORSDOF 3
