MODEL 1
REMARK VINA RESULT:      -4.8      0.000      0.000
REMARK  Name = *****
REMARK  3 active torsions:
REMARK  status: ('A' for Active; 'I' for Inactive)
REMARK    1  A    between atoms: C_3  and  C_8
REMARK    2  A    between atoms: C_8  and  N_10
REMARK    3  A    between atoms: N_10  and  C_11
REMARK                            x       y       z     vdW  Elec       q    Type
REMARK                         _______ _______ _______ _____ _____    ______ ____
ROOT
ATOM      1  C   UNL     1     103.201 126.372  81.754  0.00  0.00    +0.000 C 
ATOM      2  S   UNL     1     103.634 127.284  80.416  0.00  0.00    +0.000 S 
ENDROOT
BRANCH   1   5
ATOM      3  C   UNL     1     104.332 123.133  83.342  0.00  0.00    +0.000 A 
ATOM      4  C   UNL     1     103.812 124.419  83.180  0.00  0.00    +0.000 A 
ATOM      5  C   UNL     1     103.735 124.986  81.900  0.00  0.00    +0.000 A 
ATOM      6  C   UNL     1     104.185 124.275  80.783  0.00  0.00    +0.000 A 
ATOM      7  C   UNL     1     104.700 122.997  80.962  0.00  0.00    +0.000 A 
ATOM      8  C   UNL     1     104.777 122.422  82.228  0.00  0.00    +0.000 A 
ATOM      9  F   UNL     1     105.137 122.309  79.901  0.00  0.00    +0.000 F 
ENDBRANCH   1   5
BRANCH   1  10
ATOM     10  N   UNL     1     102.410 126.728  82.841  0.00  0.00    +0.000 N 
ATOM     11  H   UNL     1     102.813 126.507  83.712  0.00  0.00    +0.000 HD
BRANCH  10  12
ATOM     12  C   UNL     1     101.141 127.346  82.939  0.00  0.00    +0.000 A 
ATOM     13  C   UNL     1     100.898 128.621  83.448  0.00  0.00    +0.000 A 
ATOM     14  C   UNL     1      99.598 129.135  83.474  0.00  0.00    +0.000 A 
ATOM     15  C   UNL     1      98.526 128.392  82.985  0.00  0.00    +0.000 A 
ATOM     16  C   UNL     1      98.757 127.126  82.458  0.00  0.00    +0.000 A 
ATOM     17  C   UNL     1     100.055 126.612  82.431  0.00  0.00    +0.000 A 
ATOM     18 CL   UNL     1      99.315 130.714  84.100  0.00  0.00    +0.000 Cl
ENDBRANCH  10  12
ENDBRANCH   1  10
TORSDOF 3
ENDMDL
