MODEL 1
REMARK VINA RESULT:      -5.0      0.000      0.000
REMARK  Name = *****
REMARK  6 active torsions:
REMARK  status: ('A' for Active; 'I' for Inactive)
REMARK    1  A    between atoms: C_1  and  C_2
REMARK    2  A    between atoms: C_4  and  C_8
REMARK    3  A    between atoms: C_9  and  C_10
REMARK    4  A    between atoms: C_12  and  C_16
REMARK    5  A    between atoms: C_16  and  O_18
REMARK    6  A    between atoms: O_18  and  C_19
REMARK                            x       y       z     vdW  Elec       q    Type
REMARK                         _______ _______ _______ _____ _____    ______ ____
ROOT
ATOM      1  C   UNL     1     104.016 124.916  80.819  0.00  0.00    +0.000 A 
ATOM      2  C   UNL     1     104.269 123.622  81.283  0.00  0.00    +0.000 A 
ATOM      3  C   UNL     1     105.286 122.854  80.700  0.00  0.00    +0.000 A 
ATOM      4  C   UNL     1     106.045 123.395  79.651  0.00  0.00    +0.000 A 
ATOM      5  C   UNL     1     105.790 124.688  79.190  0.00  0.00    +0.000 A 
ATOM      6  C   UNL     1     104.776 125.447  79.775  0.00  0.00    +0.000 A 
ENDROOT
BRANCH   1   8
ATOM      7  C   UNL     1     102.104 126.355  81.915  0.00  0.00    +0.000 C 
ATOM      8  C   UNL     1     102.977 125.698  81.415  0.00  0.00    +0.000 C 
BRANCH   7  12
ATOM      9  C   UNL     1     100.699 130.330  84.544  0.00  0.00    +0.000 C 
ATOM     10  C   UNL     1     100.364 129.065  83.810  0.00  0.00    +0.000 A 
ATOM     11  C   UNL     1     101.377 128.298  83.218  0.00  0.00    +0.000 A 
ATOM     12  C   UNL     1     101.063 127.136  82.508  0.00  0.00    +0.000 A 
ATOM     13  C   UNL     1      99.731 126.741  82.375  0.00  0.00    +0.000 A 
ATOM     14  C   UNL     1      98.715 127.507  82.947  0.00  0.00    +0.000 A 
ATOM     15  C   UNL     1      99.031 128.666  83.657  0.00  0.00    +0.000 A 
ENDBRANCH   7  12
ENDBRANCH   1   8
BRANCH   3  16
ATOM     16  C   UNL     1     105.602 121.473  81.152  0.00  0.00    +0.000 C 
ATOM     17  O   UNL     1     106.734 121.017  81.189  0.00  0.00    +0.000 OA
BRANCH  16  18
ATOM     18  O   UNL     1     104.470 120.813  81.508  0.00  0.00    +0.000 OA
ATOM     19  C   UNL     1     104.471 120.349  82.859  0.00  0.00    +0.000 C 
ENDBRANCH  16  18
ENDBRANCH   3  16
TORSDOF 4
ENDMDL
