MODEL 1
REMARK VINA RESULT:      -4.5      0.000      0.000
REMARK  Name = *****
REMARK  6 active torsions:
REMARK  status: ('A' for Active; 'I' for Inactive)
REMARK    1  A    between atoms: C_1  and  C_2
REMARK    2  A    between atoms: C_4  and  C_9
REMARK    3  A    between atoms: C_5  and  C_8
REMARK    4  A    between atoms: C_9  and  C_10
REMARK    5  A    between atoms: C_10  and  C_11
REMARK    6  A    between atoms: C_11  and  C_13
REMARK                            x       y       z     vdW  Elec       q    Type
REMARK                         _______ _______ _______ _____ _____    ______ ____
ROOT
ATOM      1  C   UNL     1      89.673  68.753  86.448  0.00  0.00    +0.000 C 
ENDROOT
BRANCH   1   2
ATOM      2  C   UNL     1      88.532  67.800  86.141  0.00  0.00    +0.000 C 
ATOM      3  O   UNL     1      87.957  67.803  85.052  0.00  0.00    +0.000 OA
BRANCH   2   4
ATOM      4  C   UNL     1      88.086  66.828  87.181  0.00  0.00    +0.000 A 
ATOM      5  C   UNL     1      88.789  65.619  87.304  0.00  0.00    +0.000 A 
ATOM      6  C   UNL     1      88.413  64.669  88.260  0.00  0.00    +0.000 A 
ATOM      7  C   UNL     1      87.333  64.919  89.103  0.00  0.00    +0.000 A 
ATOM      8  C   UNL     1      86.630  66.116  88.992  0.00  0.00    +0.000 A 
ATOM      9  C   UNL     1      87.008  67.062  88.037  0.00  0.00    +0.000 A 
ATOM     10  F   UNL     1      86.299  68.198  87.982  0.00  0.00    +0.000 F 
ENDBRANCH   2   4
ENDBRANCH   1   2
BRANCH   1  11
ATOM     11  C   UNL     1      89.289  70.205  86.151  0.00  0.00    +0.000 C 
BRANCH  11  15
ATOM     12  C   UNL     1      87.749  71.092  90.850  0.00  0.00    +0.000 C 
ATOM     13  C   UNL     1      87.460  71.083  89.378  0.00  0.00    +0.000 A 
ATOM     14  C   UNL     1      88.435  70.672  88.464  0.00  0.00    +0.000 A 
ATOM     15  C   UNL     1      88.194  70.690  87.077  0.00  0.00    +0.000 A 
ATOM     16  C   UNL     1      86.943  71.130  86.602  0.00  0.00    +0.000 A 
ATOM     17  C   UNL     1      85.977  71.561  87.524  0.00  0.00    +0.000 A 
ATOM     18  C   UNL     1      86.233  71.541  88.896  0.00  0.00    +0.000 A 
ATOM     19  C   UNL     1      86.622  71.187  85.133  0.00  0.00    +0.000 C 
ENDBRANCH  11  15
ENDBRANCH   1  11
TORSDOF 4
ENDMDL
