MODEL 1
REMARK VINA RESULT:      -4.7      0.000      0.000
REMARK  Name = *****
REMARK  3 active torsions:
REMARK  status: ('A' for Active; 'I' for Inactive)
REMARK    1  A    between atoms: C_1  and  C_2
REMARK    2  A    between atoms: C_3  and  C_12
REMARK    3  A    between atoms: N_4  and  C_5
REMARK                            x       y       z     vdW  Elec       q    Type
REMARK                         _______ _______ _______ _____ _____    ______ ____
ROOT
ATOM      1  C   UNL     1     103.623 127.577  80.109  0.00  0.00    +0.000 C 
ATOM      2  C   UNL     1     104.076 126.623  81.159  0.00  0.00    +0.000 C 
ATOM      3  C   UNL     1     103.273 126.340  82.429  0.00  0.00    +0.000 C 
ATOM      4  N   UNL     1     103.351 125.375  81.326  0.00  0.00    +0.000 N 
ENDROOT
BRANCH   4   5
ATOM      5  C   UNL     1     104.072 124.170  81.503  0.00  0.00    +0.000 A 
ATOM      6  C   UNL     1     104.724 123.557  80.423  0.00  0.00    +0.000 A 
ATOM      7  C   UNL     1     105.469 122.388  80.609  0.00  0.00    +0.000 A 
ATOM      8  C   UNL     1     105.581 121.836  81.882  0.00  0.00    +0.000 A 
ATOM      9  C   UNL     1     104.965 122.446  82.971  0.00  0.00    +0.000 A 
ATOM     10  C   UNL     1     104.221 123.614  82.781  0.00  0.00    +0.000 A 
ATOM     11 CL   UNL     1     106.499 120.399  82.113  0.00  0.00    +0.000 Cl
ENDBRANCH   4   5
BRANCH   3  12
ATOM     12  C   UNL     1     101.953 127.019  82.693  0.00  0.00    +0.000 A 
ATOM     13  C   UNL     1     100.729 126.445  82.308  0.00  0.00    +0.000 A 
ATOM     14  C   UNL     1      99.511 127.075  82.572  0.00  0.00    +0.000 A 
ATOM     15  C   UNL     1      99.491 128.299  83.234  0.00  0.00    +0.000 A 
ATOM     16  C   UNL     1     100.686 128.889  83.632  0.00  0.00    +0.000 A 
ATOM     17  C   UNL     1     101.901 128.253  83.366  0.00  0.00    +0.000 A 
ENDBRANCH   3  12
TORSDOF 2
ENDMDL
