MODEL 1
REMARK VINA RESULT:      -3.9      0.000      0.000
REMARK  Name = *****
REMARK  6 active torsions:
REMARK  status: ('A' for Active; 'I' for Inactive)
REMARK    1  A    between atoms: C_1  and  C_2
REMARK    2  A    between atoms: C_2  and  N_4
REMARK    3  A    between atoms: N_4  and  C_5
REMARK    4  A    between atoms: N_4  and  C_12
REMARK    5  A    between atoms: C_5  and  C_6
REMARK    6  A    between atoms: C_12  and  C_13
REMARK                            x       y       z     vdW  Elec       q    Type
REMARK                         _______ _______ _______ _____ _____    ______ ____
ROOT
ATOM      1  N   UNL     1      87.282  64.274  86.603  0.00  0.00    +0.000 N 
ENDROOT
BRANCH   1   3
ATOM      2  C   UNL     1      88.565  62.739  85.111  0.00  0.00    +0.000 C 
ATOM      3  C   UNL     1      88.454  64.053  85.869  0.00  0.00    +0.000 C 
ATOM      4  S   UNL     1      89.752  65.124  85.750  0.00  0.00    +0.000 S 
ENDBRANCH   1   3
BRANCH   1   5
ATOM      5  C   UNL     1      87.147  65.367  87.576  0.00  0.00    +0.000 C 
BRANCH   5   6
ATOM      6  C   UNL     1      87.426  64.980  89.015  0.00  0.00    +0.000 A 
ATOM      7  C   UNL     1      88.570  64.272  89.412  0.00  0.00    +0.000 A 
ATOM      8  C   UNL     1      88.762  63.917  90.750  0.00  0.00    +0.000 A 
ATOM      9  C   UNL     1      87.809  64.256  91.708  0.00  0.00    +0.000 A 
ATOM     10  C   UNL     1      86.662  64.948  91.329  0.00  0.00    +0.000 A 
ATOM     11  C   UNL     1      86.471  65.305  89.993  0.00  0.00    +0.000 A 
ENDBRANCH   5   6
ENDBRANCH   1   5
BRANCH   1  12
ATOM     12  C   UNL     1      86.058  63.478  86.386  0.00  0.00    +0.000 C 
BRANCH  12  13
ATOM     13  C   UNL     1      85.540  62.771  87.622  0.00  0.00    +0.000 A 
ATOM     14  C   UNL     1      86.326  61.881  88.368  0.00  0.00    +0.000 A 
ATOM     15  C   UNL     1      85.823  61.280  89.524  0.00  0.00    +0.000 A 
ATOM     16  C   UNL     1      84.531  61.568  89.957  0.00  0.00    +0.000 A 
ATOM     17  C   UNL     1      83.741  62.459  89.235  0.00  0.00    +0.000 A 
ATOM     18  C   UNL     1      84.244  63.060  88.081  0.00  0.00    +0.000 A 
ENDBRANCH  12  13
ENDBRANCH   1  12
TORSDOF 5
ENDMDL
