MODEL 1
REMARK VINA RESULT:      -4.5      0.000      0.000
REMARK  Name = *****
REMARK  5 active torsions:
REMARK  status: ('A' for Active; 'I' for Inactive)
REMARK    1  A    between atoms: C_1  and  C_2
REMARK    2  A    between atoms: C_3  and  C_9
REMARK    3  A    between atoms: C_9  and  C_10
REMARK    4  A    between atoms: C_10  and  C_11
REMARK    5  A    between atoms: C_15  and  C_17
REMARK                            x       y       z     vdW  Elec       q    Type
REMARK                         _______ _______ _______ _____ _____    ______ ____
ROOT
ATOM      1  C   UNL     1      96.274 115.445  77.425  0.00  0.00    +0.000 C 
ENDROOT
BRANCH   1   4
ATOM      2  C   UNL     1      94.260 117.560  78.398  0.00  0.00    +0.000 C 
ATOM      3  C   UNL     1      94.901 117.556  77.032  0.00  0.00    +0.000 C 
ATOM      4  C   UNL     1      95.815 116.646  76.630  0.00  0.00    +0.000 C 
ATOM      5  C   UNL     1      96.462 116.799  75.279  0.00  0.00    +0.000 C 
ATOM      6  O   UNL     1      97.318 115.998  74.903  0.00  0.00    +0.000 OA
ATOM      7  C   UNL     1      96.115 118.005  74.438  0.00  0.00    +0.000 C 
ATOM      8  C   UNL     1      94.679 118.430  74.670  0.00  0.00    +0.000 C 
ATOM      9  C   UNL     1      94.425 118.689  76.148  0.00  0.00    +0.000 C 
ENDBRANCH   1   4
BRANCH   1  10
ATOM     10  C   UNL     1      97.624 115.691  78.106  0.00  0.00    +0.000 C 
BRANCH  10  11
ATOM     11  C   UNL     1      97.452 116.353  79.451  0.00  0.00    +0.000 A 
ATOM     12  C   UNL     1      96.796 115.682  80.490  0.00  0.00    +0.000 A 
ATOM     13  C   UNL     1      96.624 116.297  81.729  0.00  0.00    +0.000 A 
ATOM     14  C   UNL     1      97.095 117.593  81.938  0.00  0.00    +0.000 A 
ATOM     15  C   UNL     1      97.732 118.290  80.906  0.00  0.00    +0.000 A 
ATOM     16  C   UNL     1      97.918 117.658  79.668  0.00  0.00    +0.000 A 
ATOM     17  C   UNL     1      98.265 119.672  81.138  0.00  0.00    +0.000 C 
ENDBRANCH  10  11
ENDBRANCH   1  10
TORSDOF 3
ENDMDL
