MODEL 1
REMARK VINA RESULT:      -4.8      0.000      0.000
REMARK  Name = *****
REMARK  5 active torsions:
REMARK  status: ('A' for Active; 'I' for Inactive)
REMARK    1  A    between atoms: C_1  and  C_2
REMARK    2  A    between atoms: C_5  and  N_8
REMARK    3  A    between atoms: C_9  and  C_10
REMARK    4  A    between atoms: C_11  and  C_17
REMARK    5  A    between atoms: C_13  and  C_16
REMARK                            x       y       z     vdW  Elec       q    Type
REMARK                         _______ _______ _______ _____ _____    ______ ____
ROOT
ATOM      1  N   UNL     1     102.850 126.820  81.955  0.00  0.00    +0.000 NA
ATOM      2  C   UNL     1     102.098 126.836  83.013  0.00  0.00    +0.000 C 
ENDROOT
BRANCH   2   3
ATOM      3  C   UNL     1     101.354 128.047  83.431  0.00  0.00    +0.000 A 
ATOM      4  C   UNL     1      99.969 128.164  83.213  0.00  0.00    +0.000 A 
ATOM      5  C   UNL     1      99.317 129.338  83.637  0.00  0.00    +0.000 A 
ATOM      6  C   UNL     1     100.021 130.382  84.252  0.00  0.00    +0.000 A 
ATOM      7  C   UNL     1     101.393 130.241  84.472  0.00  0.00    +0.000 A 
ATOM      8  C   UNL     1     102.056 129.085  84.060  0.00  0.00    +0.000 A 
ATOM      9  C   UNL     1      99.298 131.609  84.726  0.00  0.00    +0.000 C 
ATOM     10  C   UNL     1      99.160 127.085  82.550  0.00  0.00    +0.000 C 
ENDBRANCH   2   3
BRANCH   1  15
ATOM     11  C   UNL     1     105.538 121.894  80.877  0.00  0.00    +0.000 C 
ATOM     12  C   UNL     1     104.804 123.174  81.150  0.00  0.00    +0.000 A 
ATOM     13  C   UNL     1     104.664 124.139  80.146  0.00  0.00    +0.000 A 
ATOM     14  C   UNL     1     104.013 125.346  80.412  0.00  0.00    +0.000 A 
ATOM     15  C   UNL     1     103.493 125.605  81.682  0.00  0.00    +0.000 A 
ATOM     16  C   UNL     1     103.659 124.657  82.693  0.00  0.00    +0.000 A 
ATOM     17  C   UNL     1     104.311 123.449  82.432  0.00  0.00    +0.000 A 
ENDBRANCH   1  15
TORSDOF 2
ENDMDL
