REMARK  Name = *****
REMARK  3 active torsions:
REMARK  status: ('A' for Active; 'I' for Inactive)
REMARK    1  A    between atoms: C_3  and  N_4
REMARK    2  A    between atoms: N_4  and  C_5
REMARK    3  A    between atoms: C_12  and  C_14
REMARK                            x       y       z     vdW  Elec       q    Type
REMARK                         _______ _______ _______ _____ _____    ______ ____
ROOT
ATOM      1  N   UNL     1      -1.430  -0.805  -1.475  0.00  0.00    +0.000 N 
ATOM      2  C   UNL     1      -2.779  -0.396  -1.488  0.00  0.00    +0.000 C 
ATOM      3  O   UNL     1      -3.329   0.184  -0.549  0.00  0.00    +0.000 OA
ENDROOT
BRANCH   1   4
ATOM      4  C   UNL     1      -0.668  -1.138  -2.644  0.00  0.00    +0.000 A 
ATOM      5  C   UNL     1      -0.846  -0.434  -3.846  0.00  0.00    +0.000 A 
ATOM      6  C   UNL     1      -0.085  -0.741  -4.979  0.00  0.00    +0.000 A 
ATOM      7  C   UNL     1       0.874  -1.749  -4.929  0.00  0.00    +0.000 A 
ATOM      8  C   UNL     1       1.078  -2.447  -3.742  0.00  0.00    +0.000 A 
ATOM      9  C   UNL     1       0.318  -2.137  -2.614  0.00  0.00    +0.000 A 
ATOM     10  F   UNL     1       0.522  -2.871  -1.509  0.00  0.00    +0.000 F 
ENDBRANCH   1   4
BRANCH   2  11
ATOM     11  C   UNL     1      -3.652  -0.753  -2.636  0.00  0.00    +0.000 A 
ATOM     12  C   UNL     1      -3.674  -2.054  -3.155  0.00  0.00    +0.000 A 
ATOM     13  C   UNL     1      -4.524  -2.362  -4.219  0.00  0.00    +0.000 A 
ATOM     14  C   UNL     1      -5.364  -1.381  -4.749  0.00  0.00    +0.000 A 
ATOM     15  C   UNL     1      -5.367  -0.093  -4.211  0.00  0.00    +0.000 A 
ATOM     16  C   UNL     1      -4.519   0.220  -3.148  0.00  0.00    +0.000 A 
ENDBRANCH   2  11
BRANCH   1  19
ATOM     17  C   UNL     1      -0.625   0.337   0.707  0.00  0.00    +0.000 C 
ATOM     18  C   UNL     1       0.591  -0.250   0.068  0.00  0.00    +0.000 C 
ATOM     19  C   UNL     1      -0.763  -0.877  -0.183  0.00  0.00    +0.000 C 
ENDBRANCH   1  19
TORSDOF 3
