MODEL 1
REMARK VINA RESULT:      -4.1      0.000      0.000
REMARK  Name = *****
REMARK  3 active torsions:
REMARK  status: ('A' for Active; 'I' for Inactive)
REMARK    1  A    between atoms: C_4  and  C_5
REMARK    2  A    between atoms: C_5  and  C_6
REMARK    3  A    between atoms: C_6  and  C_7
REMARK                            x       y       z     vdW  Elec       q    Type
REMARK                         _______ _______ _______ _____ _____    ______ ____
ROOT
ATOM      1  C   UNL     1      89.111  70.247  86.859  0.00  0.00    +0.000 C 
ENDROOT
BRANCH   1   5
ATOM      2  C   UNL     1      87.950  65.954  87.737  0.00  0.00    +0.000 C 
ATOM      3  C   UNL     1      87.839  67.407  87.279  0.00  0.00    +0.000 C 
ATOM      4  C   UNL     1      89.153  67.720  86.619  0.00  0.00    +0.000 C 
ATOM      5  C   UNL     1      89.707  68.929  86.450  0.00  0.00    +0.000 C 
ATOM      6  S   UNL     1      89.981  66.277  86.081  0.00  0.00    +0.000 S 
ATOM      7  C   UNL     1      88.641  65.175  86.629  0.00  0.00    +0.000 C 
ENDBRANCH   1   5
BRANCH   1   8
ATOM      8  C   UNL     1      88.123  70.759  85.806  0.00  0.00    +0.000 C 
BRANCH   8   9
ATOM      9  C   UNL     1      86.850  71.267  86.437  0.00  0.00    +0.000 A 
ATOM     10  C   UNL     1      85.820  71.787  85.642  0.00  0.00    +0.000 A 
ATOM     11  C   UNL     1      84.652  72.274  86.229  0.00  0.00    +0.000 A 
ATOM     12  C   UNL     1      84.503  72.251  87.615  0.00  0.00    +0.000 A 
ATOM     13  C   UNL     1      85.524  71.740  88.414  0.00  0.00    +0.000 A 
ATOM     14  C   UNL     1      86.693  71.252  87.830  0.00  0.00    +0.000 A 
ENDBRANCH   8   9
ENDBRANCH   1   8
TORSDOF 3
ENDMDL
