MODEL 1
REMARK VINA RESULT:      -4.4      0.000      0.000
REMARK  Name = *****
REMARK  4 active torsions:
REMARK  status: ('A' for Active; 'I' for Inactive)
REMARK    1  A    between atoms: C_4  and  C_7
REMARK    2  A    between atoms: C_7  and  C_8
REMARK    3  A    between atoms: C_8  and  C_9
REMARK    4  A    between atoms: C_9  and  C_10
REMARK                            x       y       z     vdW  Elec       q    Type
REMARK                         _______ _______ _______ _____ _____    ______ ____
ROOT
ATOM      1  C   UNL     1      88.812  72.653  84.016  0.00  0.00    +0.000 C 
ATOM      2 CL   UNL     1      89.072  74.064  82.927  0.00  0.00    +0.000 Cl
ENDROOT
BRANCH   1   3
ATOM      3  C   UNL     1      87.565  71.868  83.572  0.00  0.00    +0.000 C 
BRANCH   3   7
ATOM      4  C   UNL     1      84.186  72.377  86.210  0.00  0.00    +0.000 A 
ATOM      5  C   UNL     1      84.105  72.796  84.884  0.00  0.00    +0.000 A 
ATOM      6  C   UNL     1      85.194  72.630  84.027  0.00  0.00    +0.000 A 
ATOM      7  C   UNL     1      86.378  72.041  84.492  0.00  0.00    +0.000 A 
ATOM      8  C   UNL     1      86.451  71.625  85.829  0.00  0.00    +0.000 A 
ATOM      9  C   UNL     1      85.359  71.792  86.683  0.00  0.00    +0.000 A 
ENDBRANCH   3   7
ENDBRANCH   1   3
BRANCH   1  10
ATOM     10  C   UNL     1      90.051  71.739  83.995  0.00  0.00    +0.000 C 
BRANCH  10  11
ATOM     11  C   UNL     1      89.916  70.505  84.856  0.00  0.00    +0.000 A 
ATOM     12  C   UNL     1      89.777  70.620  86.247  0.00  0.00    +0.000 A 
ATOM     13  C   UNL     1      89.659  69.479  87.043  0.00  0.00    +0.000 A 
ATOM     14  C   UNL     1      89.680  68.215  86.458  0.00  0.00    +0.000 A 
ATOM     15  C   UNL     1      89.818  68.089  85.078  0.00  0.00    +0.000 A 
ATOM     16  C   UNL     1      89.936  69.228  84.280  0.00  0.00    +0.000 A 
ENDBRANCH  10  11
ENDBRANCH   1  10
TORSDOF 4
ENDMDL
