MODEL 1
REMARK VINA RESULT:      -4.6      0.000      0.000
REMARK  Name = *****
REMARK  5 active torsions:
REMARK  status: ('A' for Active; 'I' for Inactive)
REMARK    1  A    between atoms: C_1  and  C_2
REMARK    2  A    between atoms: C_7  and  C_8
REMARK    3  A    between atoms: C_8  and  C_9
REMARK    4  A    between atoms: C_9  and  C_10
REMARK    5  A    between atoms: C_10  and  C_12
REMARK                            x       y       z     vdW  Elec       q    Type
REMARK                         _______ _______ _______ _____ _____    ______ ____
ROOT
ATOM      1  C   UNL     1      88.324  67.559  86.436  0.00  0.00    +0.000 C 
ATOM      2  O   UNL     1      87.559  67.708  85.485  0.00  0.00    +0.000 OA
ENDROOT
BRANCH   1   3
ATOM      3  C   UNL     1      88.023  66.480  87.400  0.00  0.00    +0.000 A 
ATOM      4  C   UNL     1      87.005  66.568  88.357  0.00  0.00    +0.000 A 
ATOM      5  C   UNL     1      86.787  65.502  89.234  0.00  0.00    +0.000 A 
ATOM      6  C   UNL     1      87.577  64.362  89.140  0.00  0.00    +0.000 A 
ATOM      7  C   UNL     1      88.575  64.254  88.180  0.00  0.00    +0.000 A 
ATOM      8  C   UNL     1      88.795  65.312  87.300  0.00  0.00    +0.000 A 
ATOM      9  F   UNL     1      87.365  63.345  89.986  0.00  0.00    +0.000 F 
ATOM     10 CL   UNL     1      85.960  67.933  88.487  0.00  0.00    +0.000 Cl
ENDBRANCH   1   3
BRANCH   1  11
ATOM     11  C   UNL     1      89.546  68.445  86.621  0.00  0.00    +0.000 C 
BRANCH  11  12
ATOM     12  C   UNL     1      89.296  69.957  86.572  0.00  0.00    +0.000 C 
BRANCH  12  19
ATOM     13  C   UNL     1      86.685  71.153  85.673  0.00  0.00    +0.000 C 
ATOM     14  C   UNL     1      87.060  71.067  87.129  0.00  0.00    +0.000 A 
ATOM     15  C   UNL     1      86.146  71.548  88.081  0.00  0.00    +0.000 A 
ATOM     16  C   UNL     1      86.441  71.510  89.442  0.00  0.00    +0.000 A 
ATOM     17  C   UNL     1      87.659  70.998  89.869  0.00  0.00    +0.000 A 
ATOM     18  C   UNL     1      88.574  70.508  88.938  0.00  0.00    +0.000 A 
ATOM     19  C   UNL     1      88.285  70.506  87.560  0.00  0.00    +0.000 A 
ENDBRANCH  12  19
ENDBRANCH  11  12
ENDBRANCH   1  11
TORSDOF 4
ENDMDL
