REMARK  Name = *****
REMARK  2 active torsions:
REMARK  status: ('A' for Active; 'I' for Inactive)
REMARK    1  A    between atoms: C_3  and  C_8
REMARK    2  A    between atoms: C_9  and  C_10
REMARK                            x       y       z     vdW  Elec       q    Type
REMARK                         _______ _______ _______ _____ _____    ______ ____
ROOT
ATOM      1  C   UNL     1      -1.929   2.503   0.014  0.00  0.00    +0.000 C 
ATOM      2  C   UNL     1      -1.349   3.714   0.047  0.00  0.00    +0.000 C 
ENDROOT
BRANCH   1   5
ATOM      3  C   UNL     1      -1.050  -1.076  -0.773  0.00  0.00    +0.000 A 
ATOM      4  C   UNL     1      -1.710   0.157  -0.741  0.00  0.00    +0.000 A 
ATOM      5  C   UNL     1      -1.183   1.237  -0.015  0.00  0.00    +0.000 A 
ATOM      6  C   UNL     1       0.005   1.050   0.701  0.00  0.00    +0.000 A 
ATOM      7  C   UNL     1       0.654  -0.180   0.663  0.00  0.00    +0.000 A 
ATOM      8  C   UNL     1       0.140  -1.243  -0.069  0.00  0.00    +0.000 A 
ATOM      9  F   UNL     1       1.793  -0.345   1.349  0.00  0.00    +0.000 F 
ENDBRANCH   1   5
BRANCH   2  10
ATOM     10  C   UNL     1      -2.098   4.979   0.058  0.00  0.00    +0.000 A 
ATOM     11  C   UNL     1      -3.282   5.141   0.790  0.00  0.00    +0.000 A 
ATOM     12  C   UNL     1      -3.950   6.369   0.801  0.00  0.00    +0.000 A 
ATOM     13  C   UNL     1      -3.430   7.446   0.088  0.00  0.00    +0.000 A 
ATOM     14  C   UNL     1      -2.246   7.307  -0.631  0.00  0.00    +0.000 A 
ATOM     15  C   UNL     1      -1.579   6.078  -0.641  0.00  0.00    +0.000 A 
ATOM     16 CL   UNL     1      -4.251   8.958   0.101  0.00  0.00    +0.000 Cl
ENDBRANCH   2  10
TORSDOF 2
