MODEL 1
REMARK VINA RESULT:      -4.2      0.000      0.000
REMARK  Name = *****
REMARK  5 active torsions:
REMARK  status: ('A' for Active; 'I' for Inactive)
REMARK    1  A    between atoms: C_1  and  O_2
REMARK    2  A    between atoms: O_2  and  C_3
REMARK    3  A    between atoms: C_6  and  C_9
REMARK    4  A    between atoms: C_9  and  C_10
REMARK    5  A    between atoms: C_10  and  C_11
REMARK                            x       y       z     vdW  Elec       q    Type
REMARK                         _______ _______ _______ _____ _____    ______ ____
ROOT
ATOM      1  C   UNL     1      88.741  68.807  86.938  0.00  0.00    +0.000 A 
ATOM      2  C   UNL     1      87.727  68.048  87.520  0.00  0.00    +0.000 A 
ATOM      3  C   UNL     1      87.805  66.651  87.520  0.00  0.00    +0.000 A 
ATOM      4  C   UNL     1      88.897  65.995  86.938  0.00  0.00    +0.000 A 
ATOM      5  C   UNL     1      89.913  66.763  86.357  0.00  0.00    +0.000 A 
ATOM      6  C   UNL     1      89.834  68.157  86.361  0.00  0.00    +0.000 A 
ENDROOT
BRANCH   1   8
ATOM      7  C   UNL     1      89.725  70.738  85.964  0.00  0.00    +0.000 C 
ATOM      8  O   UNL     1      88.787  70.173  86.869  0.00  0.00    +0.000 OA
ENDBRANCH   1   8
BRANCH   4   9
ATOM      9  C   UNL     1      88.969  64.488  86.918  0.00  0.00    +0.000 C 
BRANCH   9  10
ATOM     10  C   UNL     1      87.623  63.800  87.181  0.00  0.00    +0.000 C 
BRANCH  10  11
ATOM     11  C   UNL     1      87.532  63.150  88.541  0.00  0.00    +0.000 C 
ATOM     12  C   UNL     1      88.645  63.426  89.530  0.00  0.00    +0.000 C 
ATOM     13  C   UNL     1      87.952  64.165  90.680  0.00  0.00    +0.000 C 
ATOM     14  C   UNL     1      86.539  63.580  90.734  0.00  0.00    +0.000 C 
ATOM     15  C   UNL     1      86.235  63.232  89.305  0.00  0.00    +0.000 C 
ATOM     16  C   UNL     1      86.667  61.919  88.720  0.00  0.00    +0.000 C 
ENDBRANCH  10  11
ENDBRANCH   9  10
ENDBRANCH   4   9
TORSDOF 4
ENDMDL
