MODEL 1
REMARK VINA RESULT:      -4.6      0.000      0.000
REMARK  Name = *****
REMARK  5 active torsions:
REMARK  status: ('A' for Active; 'I' for Inactive)
REMARK    1  A    between atoms: C_4  and  C_7
REMARK    2  A    between atoms: C_7  and  C_8
REMARK    3  A    between atoms: C_8  and  C_9
REMARK    4  A    between atoms: C_8  and  C_12
REMARK    5  A    between atoms: C_9  and  C_10
REMARK                            x       y       z     vdW  Elec       q    Type
REMARK                         _______ _______ _______ _____ _____    ______ ____
ROOT
ATOM      1  C   UNL     1     102.923 126.646  81.246  0.00  0.00    +0.000 C 
ENDROOT
BRANCH   1   2
ATOM      2  C   UNL     1     103.618 125.301  81.435  0.00  0.00    +0.000 A 
ATOM      3  C   UNL     1     103.637 124.707  82.708  0.00  0.00    +0.000 A 
ATOM      4  C   UNL     1     104.246 123.467  82.912  0.00  0.00    +0.000 A 
ATOM      5  C   UNL     1     104.842 122.800  81.846  0.00  0.00    +0.000 A 
ATOM      6  C   UNL     1     104.827 123.371  80.577  0.00  0.00    +0.000 A 
ATOM      7  C   UNL     1     104.217 124.612  80.372  0.00  0.00    +0.000 A 
ENDBRANCH   1   2
BRANCH   1   8
ATOM      8  C   UNL     1     102.646 127.384  82.577  0.00  0.00    +0.000 C 
BRANCH   8  12
ATOM      9  C   UNL     1      98.451 128.040  83.353  0.00  0.00    +0.000 A 
ATOM     10  C   UNL     1      99.394 128.960  83.806  0.00  0.00    +0.000 A 
ATOM     11  C   UNL     1     100.750 128.755  83.551  0.00  0.00    +0.000 A 
ATOM     12  C   UNL     1     101.176 127.623  82.842  0.00  0.00    +0.000 A 
ATOM     13  C   UNL     1     100.218 126.706  82.389  0.00  0.00    +0.000 A 
ATOM     14  C   UNL     1      98.862 126.914  82.644  0.00  0.00    +0.000 A 
ENDBRANCH   8  12
ENDBRANCH   1   8
BRANCH   1  15
ATOM     15  C   UNL     1     103.619 127.482  80.157  0.00  0.00    +0.000 C 
BRANCH  15  16
ATOM     16  C   UNL     1     104.682 128.456  80.610  0.00  0.00    +0.000 C 
ATOM     17  O   UNL     1     105.892 128.259  80.579  0.00  0.00    +0.000 OA
ENDBRANCH  15  16
ENDBRANCH   1  15
TORSDOF 5
ENDMDL
