REMARK  Name = *****
REMARK  3 active torsions:
REMARK  status: ('A' for Active; 'I' for Inactive)
REMARK    1  A    between atoms: C_1  and  C_2
REMARK    2  A    between atoms: C_5  and  C_7
REMARK    3  A    between atoms: C_8  and  C_9
REMARK                            x       y       z     vdW  Elec       q    Type
REMARK                         _______ _______ _______ _____ _____    ______ ____
ROOT
ATOM      1  C   UNL     1      -2.943   0.648   0.076  0.00  0.00    +0.000 C 
ATOM      2  C   UNL     1      -4.089  -0.049   0.007  0.00  0.00    +0.000 C 
ENDROOT
BRANCH   2   3
ATOM      3  C   UNL     1      -5.422   0.572   0.048  0.00  0.00    +0.000 A 
ATOM      4  C   UNL     1      -5.710   1.767  -0.621  0.00  0.00    +0.000 A 
ATOM      5  C   UNL     1      -6.997   2.295  -0.576  0.00  0.00    +0.000 A 
ATOM      6  C   UNL     1      -8.016   1.651   0.115  0.00  0.00    +0.000 A 
ATOM      7  C   UNL     1      -7.746   0.452   0.769  0.00  0.00    +0.000 A 
ATOM      8  C   UNL     1      -6.456  -0.087   0.731  0.00  0.00    +0.000 A 
ATOM      9  F   UNL     1      -7.260   3.443  -1.216  0.00  0.00    +0.000 F 
ENDBRANCH   2   3
BRANCH   1  14
ATOM     10  C   UNL     1       2.284  -0.084   0.048  0.00  0.00    +0.000 C 
ATOM     11  C   UNL     1       0.811  -0.308   0.026  0.00  0.00    +0.000 A 
ATOM     12  C   UNL     1       0.126  -1.498  -0.064  0.00  0.00    +0.000 A 
ATOM     13  C   UNL     1      -1.287  -1.308  -0.057  0.00  0.00    +0.000 A 
ATOM     14  C   UNL     1      -1.660   0.023   0.039  0.00  0.00    +0.000 A 
ATOM     15  S   UNL     1      -0.254   1.023   0.120  0.00  0.00    +0.000 S 
ENDBRANCH   1  14
TORSDOF 2
