REMARK  Name = *****
REMARK  4 active torsions:
REMARK  status: ('A' for Active; 'I' for Inactive)
REMARK    1  A    between atoms: C_1  and  N_2
REMARK    2  A    between atoms: C_3  and  C_4
REMARK    3  A    between atoms: C_3  and  S_10
REMARK    4  A    between atoms: S_10  and  C_11
REMARK                            x       y       z     vdW  Elec       q    Type
REMARK                         _______ _______ _______ _____ _____    ______ ____
ROOT
ATOM      1  C   UNL     1       0.767  -0.791  -0.142  0.00  0.00    +0.000 C 
ATOM      2  N   UNL     1       2.188  -0.536   0.048  0.00  0.00    +0.000 NA
ATOM      3  C   UNL     1       2.904  -0.265  -0.989  0.00  0.00    +0.000 C 
ENDROOT
BRANCH   3   4
ATOM      4  C   UNL     1       2.445  -0.183  -2.387  0.00  0.00    +0.000 A 
ATOM      5  C   UNL     1       2.086   1.057  -2.923  0.00  0.00    +0.000 A 
ATOM      6  C   UNL     1       1.647   1.131  -4.244  0.00  0.00    +0.000 A 
ATOM      7  C   UNL     1       1.569  -0.029  -5.020  0.00  0.00    +0.000 A 
ATOM      8  C   UNL     1       1.928  -1.265  -4.478  0.00  0.00    +0.000 A 
ATOM      9  C   UNL     1       2.366  -1.347  -3.157  0.00  0.00    +0.000 A 
ENDBRANCH   3   4
BRANCH   3  10
ATOM     10  S   UNL     1       4.617   0.067  -0.763  0.00  0.00    +0.000 S 
BRANCH  10  11
ATOM     11  C   UNL     1       5.276  -1.582  -0.926  0.00  0.00    +0.000 A 
ATOM     12  C   UNL     1       6.152  -1.875  -1.976  0.00  0.00    +0.000 A 
ATOM     13  C   UNL     1       6.673  -3.164  -2.119  0.00  0.00    +0.000 A 
ATOM     14  C   UNL     1       6.325  -4.162  -1.210  0.00  0.00    +0.000 A 
ATOM     15  C   UNL     1       5.459  -3.873  -0.156  0.00  0.00    +0.000 A 
ATOM     16  C   UNL     1       4.939  -2.585  -0.013  0.00  0.00    +0.000 A 
ENDBRANCH  10  11
ENDBRANCH   3  10
TORSDOF 3
