REMARK  Name = *****
REMARK  4 active torsions:
REMARK  status: ('A' for Active; 'I' for Inactive)
REMARK    1  A    between atoms: C_1  and  C_2
REMARK    2  A    between atoms: C_5  and  C_10
REMARK    3  A    between atoms: C_10  and  C_11
REMARK    4  A    between atoms: C_11  and  C_13
REMARK                            x       y       z     vdW  Elec       q    Type
REMARK                         _______ _______ _______ _____ _____    ______ ____
ROOT
ATOM      1  C   UNL     1       0.921  -0.416  -0.356  0.00  0.00    +0.000 C 
ATOM      2  C   UNL     1       2.404  -0.281  -0.222  0.00  0.00    +0.000 A 
ATOM      3  C   UNL     1       3.023  -0.176   1.025  0.00  0.00    +0.000 A 
ATOM      4  C   UNL     1       4.410  -0.052   1.132  0.00  0.00    +0.000 A 
ATOM      5  C   UNL     1       5.221  -0.023  -0.004  0.00  0.00    +0.000 A 
ATOM      6  C   UNL     1       4.603  -0.137  -1.250  0.00  0.00    +0.000 A 
ATOM      7  C   UNL     1       3.217  -0.260  -1.357  0.00  0.00    +0.000 A 
ATOM      8  F   UNL     1       2.657  -0.354  -2.572  0.00  0.00    +0.000 F 
ATOM      9  F   UNL     1       5.351  -0.117  -2.364  0.00  0.00    +0.000 F 
ATOM     10  F   UNL     1       4.970   0.050   2.346  0.00  0.00    +0.000 F 
ATOM     11  F   UNL     1       2.280  -0.187   2.141  0.00  0.00    +0.000 F 
ENDROOT
BRANCH   5  12
ATOM     12  C   UNL     1       6.719   0.056   0.117  0.00  0.00    +0.000 C 
BRANCH  12  13
ATOM     13  C   UNL     1       7.369  -1.310   0.275  0.00  0.00    +0.000 C 
ATOM     14  O   UNL     1       6.722  -2.356   0.233  0.00  0.00    +0.000 OA
BRANCH  13  15
ATOM     15  C   UNL     1       8.848  -1.377   0.487  0.00  0.00    +0.000 A 
ATOM     16  C   UNL     1       9.662  -0.237   0.478  0.00  0.00    +0.000 A 
ATOM     17  C   UNL     1      11.040  -0.356   0.684  0.00  0.00    +0.000 A 
ATOM     18  C   UNL     1      11.612  -1.609   0.898  0.00  0.00    +0.000 A 
ATOM     19  C   UNL     1      10.810  -2.748   0.907  0.00  0.00    +0.000 A 
ATOM     20  C   UNL     1       9.434  -2.633   0.701  0.00  0.00    +0.000 A 
ENDBRANCH  13  15
ENDBRANCH  12  13
ENDBRANCH   5  12
TORSDOF 3
