MODEL 1
REMARK VINA RESULT:      -4.5      0.000      0.000
REMARK  Name = *****
REMARK  3 active torsions:
REMARK  status: ('A' for Active; 'I' for Inactive)
REMARK    1  A    between atoms: C_4  and  C_7
REMARK    2  A    between atoms: C_7  and  N_9
REMARK    3  A    between atoms: N_9  and  C_10
REMARK                            x       y       z     vdW  Elec       q    Type
REMARK                         _______ _______ _______ _____ _____    ______ ____
ROOT
ATOM      1  N   UNL     1      89.051  63.754  87.980  0.00  0.00    +0.000 N 
ATOM      2  H   UNL     1      89.965  63.546  88.281  0.00  0.00    +0.000 HD
ENDROOT
BRANCH   1   3
ATOM      3  C   UNL     1      88.055  63.433  88.932  0.00  0.00    +0.000 A 
ATOM      4  C   UNL     1      87.890  64.050  90.172  0.00  0.00    +0.000 A 
ATOM      5  C   UNL     1      86.853  63.663  91.033  0.00  0.00    +0.000 A 
ATOM      6  C   UNL     1      85.968  62.659  90.653  0.00  0.00    +0.000 A 
ATOM      7  C   UNL     1      86.106  62.042  89.416  0.00  0.00    +0.000 A 
ATOM      8  C   UNL     1      87.142  62.433  88.559  0.00  0.00    +0.000 A 
ATOM      9 CL   UNL     1      84.697  62.188  91.710  0.00  0.00    +0.000 Cl
ENDBRANCH   1   3
BRANCH   1  10
ATOM     10  C   UNL     1      88.996  64.304  86.705  0.00  0.00    +0.000 C 
ATOM     11  S   UNL     1      88.888  63.534  85.220  0.00  0.00    +0.000 S 
BRANCH  10  15
ATOM     12  C   UNL     1      88.916  68.582  86.809  0.00  0.00    +0.000 A 
ATOM     13  C   UNL     1      90.036  67.926  86.293  0.00  0.00    +0.000 A 
ATOM     14  C   UNL     1      90.076  66.531  86.263  0.00  0.00    +0.000 A 
ATOM     15  C   UNL     1      88.992  65.796  86.758  0.00  0.00    +0.000 A 
ATOM     16  C   UNL     1      87.866  66.455  87.271  0.00  0.00    +0.000 A 
ATOM     17  C   UNL     1      87.833  67.849  87.298  0.00  0.00    +0.000 A 
ENDBRANCH  10  15
ENDBRANCH   1  10
TORSDOF 3
ENDMDL
