MODEL 1
REMARK VINA RESULT:      -5.0      0.000      0.000
REMARK  Name = *****
REMARK  2 active torsions:
REMARK  status: ('A' for Active; 'I' for Inactive)
REMARK    1  A    between atoms: C_6  and  C_7
REMARK    2  A    between atoms: C_8  and  C_9
REMARK                            x       y       z     vdW  Elec       q    Type
REMARK                         _______ _______ _______ _____ _____    ______ ____
ROOT
ATOM      1  C   UNL     1     101.399 127.077  82.706  0.00  0.00    +0.000 A 
ATOM      2  C   UNL     1     101.858 128.224  83.374  0.00  0.00    +0.000 A 
ATOM      3  C   UNL     1     100.977 129.208  83.816  0.00  0.00    +0.000 A 
ATOM      4  C   UNL     1      99.616 129.075  83.591  0.00  0.00    +0.000 A 
ATOM      5  C   UNL     1      99.139 127.962  82.918  0.00  0.00    +0.000 A 
ATOM      6  C   UNL     1     100.020 126.976  82.475  0.00  0.00    +0.000 A 
ATOM      7  F   UNL     1      99.513 125.930  81.804  0.00  0.00    +0.000 F 
ATOM      8  F   UNL     1      97.824 127.834  82.687  0.00  0.00    +0.000 F 
ATOM      9  F   UNL     1      98.768 130.022  84.014  0.00  0.00    +0.000 F 
ATOM     10  F   UNL     1     101.448 130.287  84.457  0.00  0.00    +0.000 F 
ATOM     11  F   UNL     1     103.171 128.386  83.601  0.00  0.00    +0.000 F 
ENDROOT
BRANCH   1  13
ATOM     12  C   UNL     1     103.151 126.206  81.143  0.00  0.00    +0.000 C 
ATOM     13  C   UNL     1     102.388 126.085  82.243  0.00  0.00    +0.000 C 
BRANCH  12  19
ATOM     14  C   UNL     1     104.988 125.393  79.630  0.00  0.00    +0.000 A 
ATOM     15  C   UNL     1     105.837 124.362  79.257  0.00  0.00    +0.000 A 
ATOM     16  N   UNL     1     105.863 123.155  79.859  0.00  0.00    +0.000 NA
ATOM     17  C   UNL     1     104.996 122.968  80.875  0.00  0.00    +0.000 A 
ATOM     18  C   UNL     1     104.109 123.936  81.320  0.00  0.00    +0.000 A 
ATOM     19  C   UNL     1     104.111 125.185  80.696  0.00  0.00    +0.000 A 
ENDBRANCH  12  19
ENDBRANCH   1  13
TORSDOF 2
ENDMDL
