MODEL 1
REMARK VINA RESULT:      -4.1      0.000      0.000
REMARK  Name = *****
REMARK  4 active torsions:
REMARK  status: ('A' for Active; 'I' for Inactive)
REMARK    1  A    between atoms: C_4  and  S_7
REMARK    2  A    between atoms: S_7  and  S_8
REMARK    3  A    between atoms: S_8  and  C_9
REMARK    4  A    between atoms: C_9  and  C_11
REMARK                            x       y       z     vdW  Elec       q    Type
REMARK                         _______ _______ _______ _____ _____    ______ ____
ROOT
ATOM      1  C   UNL     1      89.467  67.172  86.230  0.00  0.00    +0.000 C 
ATOM      2  O   UNL     1      90.669  67.054  86.438  0.00  0.00    +0.000 OA
ENDROOT
BRANCH   1   3
ATOM      3  C   UNL     1      88.482  66.581  87.191  0.00  0.00    +0.000 A 
ATOM      4  C   UNL     1      87.400  67.286  87.741  0.00  0.00    +0.000 A 
ATOM      5  C   UNL     1      86.523  66.658  88.635  0.00  0.00    +0.000 A 
ATOM      6  C   UNL     1      86.721  65.324  88.986  0.00  0.00    +0.000 A 
ATOM      7  C   UNL     1      87.789  64.610  88.453  0.00  0.00    +0.000 A 
ATOM      8  C   UNL     1      88.666  65.236  87.561  0.00  0.00    +0.000 A 
ATOM      9 CL   UNL     1      85.641  64.559  90.083  0.00  0.00    +0.000 Cl
ENDBRANCH   1   3
BRANCH   1  10
ATOM     10  S   UNL     1      88.839  68.026  84.818  0.00  0.00    +0.000 S 
BRANCH  10  11
ATOM     11  S   UNL     1      89.523  69.946  85.104  0.00  0.00    +0.000 S 
BRANCH  11  15
ATOM     12  C   UNL     1      87.144  71.203  88.810  0.00  0.00    +0.000 A 
ATOM     13  C   UNL     1      88.472  70.800  88.941  0.00  0.00    +0.000 A 
ATOM     14  C   UNL     1      89.201  70.417  87.813  0.00  0.00    +0.000 A 
ATOM     15  C   UNL     1      88.602  70.435  86.549  0.00  0.00    +0.000 A 
ATOM     16  C   UNL     1      87.271  70.846  86.423  0.00  0.00    +0.000 A 
ATOM     17  C   UNL     1      86.543  71.228  87.552  0.00  0.00    +0.000 A 
ENDBRANCH  11  15
ENDBRANCH  10  11
ENDBRANCH   1  10
TORSDOF 4
ENDMDL
