MODEL 1
REMARK VINA RESULT:      -4.3      0.000      0.000
REMARK  Name = *****
REMARK  6 active torsions:
REMARK  status: ('A' for Active; 'I' for Inactive)
REMARK    1  A    between atoms: C_1  and  C_2
REMARK    2  A    between atoms: C_5  and  S_8
REMARK    3  A    between atoms: S_8  and  C_9
REMARK    4  A    between atoms: C_9  and  C_10
REMARK    5  A    between atoms: C_10  and  C_11
REMARK    6  A    between atoms: C_14  and  C_17
REMARK                            x       y       z     vdW  Elec       q    Type
REMARK                         _______ _______ _______ _____ _____    ______ ____
ROOT
ATOM      1  C   UNL     1      87.184  64.382  86.638  0.00  0.00    +0.000 C 
ENDROOT
BRANCH   1   2
ATOM      2  S   UNL     1      87.141  62.832  87.601  0.00  0.00    +0.000 S 
BRANCH   2   7
ATOM      3  C   UNL     1      88.272  64.704  93.310  0.00  0.00    +0.000 C 
ATOM      4  C   UNL     1      87.953  64.241  91.919  0.00  0.00    +0.000 A 
ATOM      5  C   UNL     1      86.632  64.043  91.509  0.00  0.00    +0.000 A 
ATOM      6  C   UNL     1      86.345  63.613  90.206  0.00  0.00    +0.000 A 
ATOM      7  C   UNL     1      87.373  63.376  89.289  0.00  0.00    +0.000 A 
ATOM      8  C   UNL     1      88.695  63.576  89.708  0.00  0.00    +0.000 A 
ATOM      9  C   UNL     1      88.984  64.003  91.008  0.00  0.00    +0.000 A 
ENDBRANCH   2   7
ENDBRANCH   1   2
BRANCH   1  10
ATOM     10  C   UNL     1      88.636  64.818  86.434  0.00  0.00    +0.000 C 
BRANCH  10  11
ATOM     11  C   UNL     1      88.804  66.294  86.674  0.00  0.00    +0.000 A 
ATOM     12  C   UNL     1      89.967  66.956  86.298  0.00  0.00    +0.000 A 
ATOM     13  N   UNL     1      90.174  68.282  86.465  0.00  0.00    +0.000 NA
ATOM     14  C   UNL     1      89.180  69.000  87.038  0.00  0.00    +0.000 A 
ATOM     15  C   UNL     1      87.978  68.426  87.440  0.00  0.00    +0.000 A 
ATOM     16  C   UNL     1      87.790  67.059  87.252  0.00  0.00    +0.000 A 
ATOM     17  C   UNL     1      89.417  70.468  87.232  0.00  0.00    +0.000 C 
ENDBRANCH  10  11
ENDBRANCH   1  10
TORSDOF 4
ENDMDL
