MODEL 1
REMARK VINA RESULT:      -4.6      0.000      0.000
REMARK  Name = *****
REMARK  3 active torsions:
REMARK  status: ('A' for Active; 'I' for Inactive)
REMARK    1  A    between atoms: C_4  and  C_7
REMARK    2  A    between atoms: C_8  and  C_9
REMARK    3  A    between atoms: C_9  and  C_10
REMARK                            x       y       z     vdW  Elec       q    Type
REMARK                         _______ _______ _______ _____ _____    ______ ____
ROOT
ATOM      1  C   UNL     1      87.255  70.963  86.074  0.00  0.00    +0.000 C 
ATOM      2  C   UNL     1      88.118  70.419  86.948  0.00  0.00    +0.000 C 
ENDROOT
BRANCH   1   6
ATOM      3  C   UNL     1      83.570  72.778  87.262  0.00  0.00    +0.000 A 
ATOM      4  C   UNL     1      83.899  72.714  85.909  0.00  0.00    +0.000 A 
ATOM      5  C   UNL     1      85.104  72.130  85.509  0.00  0.00    +0.000 A 
ATOM      6  C   UNL     1      85.997  71.615  86.458  0.00  0.00    +0.000 A 
ATOM      7  C   UNL     1      85.646  71.670  87.813  0.00  0.00    +0.000 A 
ATOM      8  C   UNL     1      84.441  72.254  88.214  0.00  0.00    +0.000 A 
ENDBRANCH   1   6
BRANCH   2   9
ATOM      9  C   UNL     1      89.404  69.754  86.547  0.00  0.00    +0.000 C 
BRANCH   9  10
ATOM     10  C   UNL     1      89.302  68.246  86.584  0.00  0.00    +0.000 A 
ATOM     11  C   UNL     1      88.240  67.617  87.252  0.00  0.00    +0.000 A 
ATOM     12  C   UNL     1      88.158  66.225  87.293  0.00  0.00    +0.000 A 
ATOM     13  C   UNL     1      89.138  65.460  86.671  0.00  0.00    +0.000 A 
ATOM     14  C   UNL     1      90.202  66.063  86.009  0.00  0.00    +0.000 A 
ATOM     15  C   UNL     1      90.286  67.455  85.967  0.00  0.00    +0.000 A 
ATOM     16  F   UNL     1      89.059  64.124  86.712  0.00  0.00    +0.000 F 
ENDBRANCH   9  10
ENDBRANCH   2   9
TORSDOF 3
ENDMDL
