MODEL 1
REMARK VINA RESULT:      -4.2      0.000      0.000
REMARK  Name = *****
REMARK  5 active torsions:
REMARK  status: ('A' for Active; 'I' for Inactive)
REMARK    1  A    between atoms: C_1  and  C_2
REMARK    2  A    between atoms: C_7  and  S_8
REMARK    3  A    between atoms: S_8  and  C_9
REMARK    4  A    between atoms: C_9  and  C_10
REMARK    5  A    between atoms: C_9  and  C_11
REMARK                            x       y       z     vdW  Elec       q    Type
REMARK                         _______ _______ _______ _____ _____    ______ ____
ROOT
ATOM      1  S   UNL     1      89.007  68.754  84.356  0.00  0.00    +0.000 S 
ENDROOT
BRANCH   1   8
ATOM      2  C   UNL     1      87.267  71.388  84.817  0.00  0.00    +0.000 C 
ATOM      3  C   UNL     1      88.661  71.545  84.272  0.00  0.00    +0.000 A 
ATOM      4  C   UNL     1      89.137  72.838  83.993  0.00  0.00    +0.000 A 
ATOM      5  C   UNL     1      90.415  73.033  83.466  0.00  0.00    +0.000 A 
ATOM      6  C   UNL     1      91.233  71.939  83.206  0.00  0.00    +0.000 A 
ATOM      7  C   UNL     1      90.778  70.650  83.483  0.00  0.00    +0.000 A 
ATOM      8  C   UNL     1      89.503  70.442  84.030  0.00  0.00    +0.000 A 
ENDBRANCH   1   8
BRANCH   1   9
ATOM      9  C   UNL     1      89.833  68.491  85.982  0.00  0.00    +0.000 C 
ATOM     10  C   UNL     1      90.152  67.009  86.190  0.00  0.00    +0.000 C 
BRANCH   9  11
ATOM     11  C   UNL     1      88.975  69.057  87.103  0.00  0.00    +0.000 A 
ATOM     12  C   UNL     1      87.795  68.424  87.530  0.00  0.00    +0.000 A 
ATOM     13  C   UNL     1      87.027  68.967  88.563  0.00  0.00    +0.000 A 
ATOM     14  C   UNL     1      87.423  70.150  89.181  0.00  0.00    +0.000 A 
ATOM     15  C   UNL     1      88.586  70.793  88.767  0.00  0.00    +0.000 A 
ATOM     16  C   UNL     1      89.355  70.253  87.733  0.00  0.00    +0.000 A 
ENDBRANCH   9  11
ENDBRANCH   1   9
TORSDOF 3
ENDMDL
