REMARK  Name = *****
REMARK  5 active torsions:
REMARK  status: ('A' for Active; 'I' for Inactive)
REMARK    1  A    between atoms: C_1  and  C_2
REMARK    2  A    between atoms: C_2  and  C_3
REMARK    3  A    between atoms: C_2  and  C_9
REMARK    4  A    between atoms: C_9  and  C_10
REMARK    5  A    between atoms: C_9  and  C_11
REMARK                            x       y       z     vdW  Elec       q    Type
REMARK                         _______ _______ _______ _____ _____    ______ ____
ROOT
ATOM      1  C   UNL     1       3.156  -1.282   0.523  0.00  0.00    +0.000 C 
ATOM      2  C   UNL     1       2.436  -0.198  -0.298  0.00  0.00    +0.000 C 
ENDROOT
BRANCH   2   3
ATOM      3  C   UNL     1       0.964  -0.080   0.082  0.00  0.00    +0.000 A 
ATOM      4  C   UNL     1       0.137  -1.199   0.259  0.00  0.00    +0.000 A 
ATOM      5  C   UNL     1      -1.209  -1.049   0.602  0.00  0.00    +0.000 A 
ATOM      6  C   UNL     1      -1.749   0.223   0.774  0.00  0.00    +0.000 A 
ATOM      7  C   UNL     1      -0.945   1.345   0.601  0.00  0.00    +0.000 A 
ATOM      8  C   UNL     1       0.400   1.195   0.259  0.00  0.00    +0.000 A 
ENDBRANCH   2   3
BRANCH   2   9
ATOM      9  C   UNL     1       2.713  -0.362  -1.827  0.00  0.00    +0.000 C 
ATOM     10  C   UNL     1       2.079  -1.604  -2.469  0.00  0.00    +0.000 C 
BRANCH   9  11
ATOM     11  C   UNL     1       2.421   0.918  -2.605  0.00  0.00    +0.000 A 
ATOM     12  C   UNL     1       1.148   1.213  -3.114  0.00  0.00    +0.000 A 
ATOM     13  C   UNL     1       0.913   2.403  -3.808  0.00  0.00    +0.000 A 
ATOM     14  C   UNL     1       1.947   3.316  -4.001  0.00  0.00    +0.000 A 
ATOM     15  C   UNL     1       3.215   3.042  -3.497  0.00  0.00    +0.000 A 
ATOM     16  C   UNL     1       3.450   1.854  -2.801  0.00  0.00    +0.000 A 
ENDBRANCH   9  11
ENDBRANCH   2   9
TORSDOF 3
