MODEL 1
REMARK VINA RESULT:      -5.1      0.000      0.000
REMARK  Name = *****
REMARK  2 active torsions:
REMARK  status: ('A' for Active; 'I' for Inactive)
REMARK    1  A    between atoms: C_4  and  C_7
REMARK    2  A    between atoms: C_8  and  C_9
REMARK                            x       y       z     vdW  Elec       q    Type
REMARK                         _______ _______ _______ _____ _____    ______ ____
ROOT
ATOM      1  C   UNL     1     103.847 125.097  81.371  0.00  0.00    +0.000 A 
ATOM      2  C   UNL     1     104.455 125.154  80.108  0.00  0.00    +0.000 A 
ATOM      3  C   UNL     1     105.319 124.138  79.704  0.00  0.00    +0.000 A 
ATOM      4  C   UNL     1     105.597 123.067  80.545  0.00  0.00    +0.000 A 
ATOM      5  C   UNL     1     105.023 122.997  81.806  0.00  0.00    +0.000 A 
ATOM      6  C   UNL     1     104.160 124.012  82.209  0.00  0.00    +0.000 A 
ATOM      7  F   UNL     1     103.619 123.933  83.435  0.00  0.00    +0.000 F 
ATOM      8  F   UNL     1     106.431 122.096  80.148  0.00  0.00    +0.000 F 
ATOM      9  F   UNL     1     105.887 124.206  78.492  0.00  0.00    +0.000 F 
ENDROOT
BRANCH   1  11
ATOM     10  C   UNL     1     101.639 125.988  82.131  0.00  0.00    +0.000 C 
ATOM     11  C   UNL     1     102.946 126.153  81.865  0.00  0.00    +0.000 C 
BRANCH  10  15
ATOM     12  C   UNL     1      99.058 129.098  83.538  0.00  0.00    +0.000 A 
ATOM     13  C   UNL     1     100.432 129.200  83.748  0.00  0.00    +0.000 A 
ATOM     14  C   UNL     1     101.285 128.188  83.299  0.00  0.00    +0.000 A 
ATOM     15  C   UNL     1     100.773 127.059  82.646  0.00  0.00    +0.000 A 
ATOM     16  C   UNL     1      99.392 126.978  82.425  0.00  0.00    +0.000 A 
ATOM     17  C   UNL     1      98.538 127.989  82.874  0.00  0.00    +0.000 A 
ENDBRANCH  10  15
ENDBRANCH   1  11
TORSDOF 2
ENDMDL
