MODEL 1
REMARK VINA RESULT:      -5.0      0.000      0.000
REMARK  Name = *****
REMARK  4 active torsions:
REMARK  status: ('A' for Active; 'I' for Inactive)
REMARK    1  A    between atoms: C_1  and  C_2
REMARK    2  A    between atoms: C_5  and  C_8
REMARK    3  A    between atoms: C_9  and  C_10
REMARK    4  A    between atoms: C_14  and  C_16
REMARK                            x       y       z     vdW  Elec       q    Type
REMARK                         _______ _______ _______ _____ _____    ______ ____
ROOT
ATOM      1  C   UNL     1     102.277 126.094  81.984  0.00  0.00    +0.000 C 
ATOM      2  C   UNL     1     103.332 126.383  81.205  0.00  0.00    +0.000 C 
ENDROOT
BRANCH   1   7
ATOM      3  C   UNL     1      98.921 130.098  84.483  0.00  0.00    +0.000 C 
ATOM      4  C   UNL     1      99.781 129.075  83.801  0.00  0.00    +0.000 A 
ATOM      5  C   UNL     1      99.201 127.986  83.141  0.00  0.00    +0.000 A 
ATOM      6  C   UNL     1     100.004 127.015  82.535  0.00  0.00    +0.000 A 
ATOM      7  C   UNL     1     101.401 127.113  82.579  0.00  0.00    +0.000 A 
ATOM      8  C   UNL     1     101.977 128.186  83.268  0.00  0.00    +0.000 A 
ATOM      9  C   UNL     1     101.176 129.158  83.874  0.00  0.00    +0.000 A 
ENDBRANCH   1   7
BRANCH   2  10
ATOM     10  C   UNL     1     104.219 125.365  80.623  0.00  0.00    +0.000 A 
ATOM     11  C   UNL     1     105.218 125.689  79.697  0.00  0.00    +0.000 A 
ATOM     12  C   UNL     1     106.069 124.702  79.197  0.00  0.00    +0.000 A 
ATOM     13  C   UNL     1     105.934 123.381  79.623  0.00  0.00    +0.000 A 
ATOM     14  C   UNL     1     104.943 123.034  80.547  0.00  0.00    +0.000 A 
ATOM     15  C   UNL     1     104.103 124.036  81.055  0.00  0.00    +0.000 A 
ATOM     16  C   UNL     1     104.817 121.623  81.040  0.00  0.00    +0.000 C 
ENDBRANCH   2  10
TORSDOF 2
ENDMDL
