MODEL 1
REMARK VINA RESULT:      -4.1      0.000      0.000
REMARK  Name = *****
REMARK  5 active torsions:
REMARK  status: ('A' for Active; 'I' for Inactive)
REMARK    1  A    between atoms: C_1  and  O_2
REMARK    2  A    between atoms: O_2  and  C_3
REMARK    3  A    between atoms: C_7  and  C_9
REMARK    4  A    between atoms: C_9  and  C_10
REMARK    5  A    between atoms: C_10  and  C_11
REMARK                            x       y       z     vdW  Elec       q    Type
REMARK                         _______ _______ _______ _____ _____    ______ ____
ROOT
ATOM      1  C   UNL     1     103.159 126.729  81.959  0.00  0.00    +0.000 C 
ATOM      2 CL   UNL     1     103.406 127.333  80.290  0.00  0.00    +0.000 Cl
ENDROOT
BRANCH   1   7
ATOM      3  C   UNL     1      99.418 127.133  82.748  0.00  0.00    +0.000 A 
ATOM      4  C   UNL     1      99.436 128.277  83.543  0.00  0.00    +0.000 A 
ATOM      5  C   UNL     1     100.645 128.920  83.816  0.00  0.00    +0.000 A 
ATOM      6  C   UNL     1     101.842 128.421  83.300  0.00  0.00    +0.000 A 
ATOM      7  C   UNL     1     101.848 127.268  82.501  0.00  0.00    +0.000 A 
ATOM      8  C   UNL     1     100.621 126.634  82.237  0.00  0.00    +0.000 A 
BRANCH   3  10
ATOM      9  C   UNL     1      97.328 126.217  83.413  0.00  0.00    +0.000 C 
ATOM     10  O   UNL     1      98.309 126.411  82.402  0.00  0.00    +0.000 OA
ENDBRANCH   3  10
ENDBRANCH   1   7
BRANCH   1  11
ATOM     11  C   UNL     1     103.216 125.192  82.014  0.00  0.00    +0.000 C 
BRANCH  11  12
ATOM     12  C   UNL     1     104.513 124.628  82.616  0.00  0.00    +0.000 C 
ATOM     13  S   UNL     1     104.602 122.805  82.665  0.00  0.00    +0.000 S 
ATOM     14  C   UNL     1     104.687 122.423  80.894  0.00  0.00    +0.000 C 
ATOM     15  C   UNL     1     105.896 123.040  80.206  0.00  0.00    +0.000 C 
ATOM     16  C   UNL     1     105.874 124.561  80.161  0.00  0.00    +0.000 C 
ATOM     17  S   UNL     1     105.999 125.321  81.804  0.00  0.00    +0.000 S 
ENDBRANCH  11  12
ENDBRANCH   1  11
TORSDOF 4
ENDMDL
