MODEL 1
REMARK VINA RESULT:      -4.6      0.000      0.000
REMARK  Name = *****
REMARK  2 active torsions:
REMARK  status: ('A' for Active; 'I' for Inactive)
REMARK    1  A    between atoms: C_4  and  C_7
REMARK    2  A    between atoms: N_8  and  C_9
REMARK                            x       y       z     vdW  Elec       q    Type
REMARK                         _______ _______ _______ _____ _____    ______ ____
ROOT
ATOM      1  C   UNL     1     101.938 125.971  82.265  0.00  0.00    +0.000 C 
ATOM      2  N   UNL     1     102.877 126.209  81.404  0.00  0.00    +0.000 NA
ENDROOT
BRANCH   2   3
ATOM      3  C   UNL     1     103.740 125.140  81.125  0.00  0.00    +0.000 A 
ATOM      4  C   UNL     1     104.482 125.116  79.944  0.00  0.00    +0.000 A 
ATOM      5  C   UNL     1     105.344 124.054  79.696  0.00  0.00    +0.000 A 
ATOM      6  C   UNL     1     105.491 123.017  80.610  0.00  0.00    +0.000 A 
ATOM      7  C   UNL     1     104.766 123.044  81.800  0.00  0.00    +0.000 A 
ATOM      8  C   UNL     1     103.896 124.107  82.055  0.00  0.00    +0.000 A 
ATOM      9  F   UNL     1     106.048 124.029  78.555  0.00  0.00    +0.000 F 
ENDBRANCH   2   3
BRANCH   1  13
ATOM     10  C   UNL     1      99.067 128.918  83.377  0.00  0.00    +0.000 A 
ATOM     11  C   UNL     1     100.415 129.126  83.669  0.00  0.00    +0.000 A 
ATOM     12  C   UNL     1     101.363 128.168  83.308  0.00  0.00    +0.000 A 
ATOM     13  C   UNL     1     100.956 127.000  82.657  0.00  0.00    +0.000 A 
ATOM     14  C   UNL     1      99.606 126.789  82.365  0.00  0.00    +0.000 A 
ATOM     15  C   UNL     1      98.661 127.752  82.726  0.00  0.00    +0.000 A 
ENDBRANCH   1  13
TORSDOF 2
ENDMDL
