REMARK  Name = *****
REMARK  3 active torsions:
REMARK  status: ('A' for Active; 'I' for Inactive)
REMARK    1  A    between atoms: C_5  and  O_7
REMARK    2  A    between atoms: O_7  and  C_8
REMARK    3  A    between atoms: C_8  and  C_9
REMARK                            x       y       z     vdW  Elec       q    Type
REMARK                         _______ _______ _______ _____ _____    ______ ____
ROOT
ATOM      1  O   UNL     1      -0.488  -2.317  -0.040  0.00  0.00    +0.000 OA
ENDROOT
BRANCH   1   6
ATOM      2  C   UNL     1       2.361  -0.116   0.121  0.00  0.00    +0.000 A 
ATOM      3  C   UNL     1       1.818   1.160   0.099  0.00  0.00    +0.000 A 
ATOM      4  C   UNL     1       0.435   1.316   0.024  0.00  0.00    +0.000 A 
ATOM      5  C   UNL     1      -0.421   0.202  -0.029  0.00  0.00    +0.000 A 
ATOM      6  C   UNL     1       0.118  -1.093  -0.003  0.00  0.00    +0.000 A 
ATOM      7  C   UNL     1       1.517  -1.227   0.070  0.00  0.00    +0.000 A 
ATOM      8 CL   UNL     1      -2.103   0.587  -0.129  0.00  0.00    +0.000 Cl
ENDBRANCH   1   6
BRANCH   1   9
ATOM      9  C   UNL     1      -1.904  -2.433  -0.075  0.00  0.00    +0.000 C 
BRANCH   9  10
ATOM     10  C   UNL     1      -2.305  -3.896  -0.071  0.00  0.00    +0.000 A 
ATOM     11  C   UNL     1      -3.528  -4.278   0.503  0.00  0.00    +0.000 A 
ATOM     12  C   UNL     1      -3.938  -5.614   0.483  0.00  0.00    +0.000 A 
ATOM     13  C   UNL     1      -3.132  -6.576  -0.121  0.00  0.00    +0.000 A 
ATOM     14  C   UNL     1      -1.923  -6.213  -0.709  0.00  0.00    +0.000 A 
ATOM     15  C   UNL     1      -1.515  -4.877  -0.690  0.00  0.00    +0.000 A 
ATOM     16 CL   UNL     1      -3.637  -8.220  -0.147  0.00  0.00    +0.000 Cl
ENDBRANCH   9  10
ENDBRANCH   1   9
TORSDOF 3
