REMARK  Name = *****
REMARK  4 active torsions:
REMARK  status: ('A' for Active; 'I' for Inactive)
REMARK    1  A    between atoms: C_4  and  S_7
REMARK    2  A    between atoms: S_7  and  C_8
REMARK    3  A    between atoms: C_8  and  C_9
REMARK    4  A    between atoms: C_9  and  C_11
REMARK                            x       y       z     vdW  Elec       q    Type
REMARK                         _______ _______ _______ _____ _____    ______ ____
ROOT
ATOM      1  C   UNL     1       3.495  -2.424   0.127  0.00  0.00    +0.000 C 
ENDROOT
BRANCH   1   2
ATOM      2  C   UNL     1       4.877  -2.886  -0.293  0.00  0.00    +0.000 C 
ATOM      3  O   UNL     1       5.021  -3.672  -1.232  0.00  0.00    +0.000 OA
BRANCH   2   4
ATOM      4  C   UNL     1       6.085  -2.419   0.459  0.00  0.00    +0.000 A 
ATOM      5  C   UNL     1       6.024  -1.466   1.483  0.00  0.00    +0.000 A 
ATOM      6  C   UNL     1       7.188  -1.078   2.155  0.00  0.00    +0.000 A 
ATOM      7  C   UNL     1       8.417  -1.638   1.812  0.00  0.00    +0.000 A 
ATOM      8  C   UNL     1       8.488  -2.585   0.793  0.00  0.00    +0.000 A 
ATOM      9  C   UNL     1       7.329  -2.973   0.119  0.00  0.00    +0.000 A 
ENDBRANCH   2   4
ENDBRANCH   1   2
BRANCH   1  10
ATOM     10  S   UNL     1       3.127  -0.792  -0.588  0.00  0.00    +0.000 S 
BRANCH  10  14
ATOM     11  C   UNL     1      -1.330   0.418  -0.126  0.00  0.00    +0.000 C 
ATOM     12  C   UNL     1      -0.993  -1.066  -0.014  0.00  0.00    +0.000 C 
ATOM     13  C   UNL     1       0.405  -1.373  -0.551  0.00  0.00    +0.000 C 
ATOM     14  C   UNL     1       1.467  -0.506   0.135  0.00  0.00    +0.000 C 
ATOM     15  C   UNL     1       1.127   0.984   0.004  0.00  0.00    +0.000 C 
ATOM     16  C   UNL     1      -0.270   1.285   0.545  0.00  0.00    +0.000 C 
ENDBRANCH  10  14
ENDBRANCH   1  10
TORSDOF 4
