MODEL 1
REMARK VINA RESULT:      -4.9      0.000      0.000
REMARK  Name = *****
REMARK  2 active torsions:
REMARK  status: ('A' for Active; 'I' for Inactive)
REMARK    1  A    between atoms: C_5  and  C_9
REMARK    2  A    between atoms: C_10  and  C_11
REMARK                            x       y       z     vdW  Elec       q    Type
REMARK                         _______ _______ _______ _____ _____    ______ ____
ROOT
ATOM      1  C   UNL     1     104.814 121.466  81.953  0.00  0.00    +0.000 C 
ATOM      2  C   UNL     1     104.805 121.874  80.467  0.00  0.00    +0.000 C 
ATOM      3  C   UNL     1     105.340 123.303  80.349  0.00  0.00    +0.000 C 
ATOM      4  C   UNL     1     104.277 124.292  80.754  0.00  0.00    +0.000 C 
ATOM      5  C   UNL     1     103.856 124.466  82.024  0.00  0.00    +0.000 C 
ATOM      6  C   UNL     1     104.457 123.681  83.182  0.00  0.00    +0.000 C 
ATOM      7  C   UNL     1     105.466 122.581  82.787  0.00  0.00    +0.000 C 
ATOM      8  S   UNL     1     106.646 123.277  81.601  0.00  0.00    +0.000 S 
ENDROOT
BRANCH   5   9
ATOM      9  C   UNL     1     102.829 125.417  82.296  0.00  0.00    +0.000 C 
ATOM     10  C   UNL     1     101.965 126.220  82.524  0.00  0.00    +0.000 C 
BRANCH  10  11
ATOM     11  C   UNL     1     100.934 127.172  82.795  0.00  0.00    +0.000 A 
ATOM     12  C   UNL     1     101.245 128.383  83.417  0.00  0.00    +0.000 A 
ATOM     13  C   UNL     1     100.237 129.312  83.682  0.00  0.00    +0.000 A 
ATOM     14  C   UNL     1      98.918 129.032  83.328  0.00  0.00    +0.000 A 
ATOM     15  C   UNL     1      98.604 127.821  82.708  0.00  0.00    +0.000 A 
ATOM     16  C   UNL     1      99.612 126.892  82.442  0.00  0.00    +0.000 A 
ENDBRANCH  10  11
ENDBRANCH   5   9
TORSDOF 2
ENDMDL
