MODEL 1
REMARK VINA RESULT:      -5.1      0.000      0.000
REMARK  Name = *****
REMARK  2 active torsions:
REMARK  status: ('A' for Active; 'I' for Inactive)
REMARK    1  A    between atoms: C_3  and  C_6
REMARK    2  A    between atoms: C_8  and  C_12
REMARK                            x       y       z     vdW  Elec       q    Type
REMARK                         _______ _______ _______ _____ _____    ______ ____
ROOT
ATOM      1  C   UNL     1      86.428  71.558  85.858  0.00  0.00    +0.000 A 
ATOM      2  C   UNL     1      86.883  71.266  87.156  0.00  0.00    +0.000 A 
ATOM      3  C   UNL     1      86.093  71.530  88.290  0.00  0.00    +0.000 A 
ATOM      4  C   UNL     1      84.826  72.099  88.104  0.00  0.00    +0.000 A 
ATOM      5  C   UNL     1      84.361  72.397  86.824  0.00  0.00    +0.000 A 
ATOM      6  C   UNL     1      85.156  72.131  85.710  0.00  0.00    +0.000 A 
ENDROOT
BRANCH   1   9
ATOM      7  C   UNL     1      89.540  71.923  84.358  0.00  0.00    +0.000 C 
ATOM      8  C   UNL     1      88.769  71.056  85.034  0.00  0.00    +0.000 C 
ATOM      9  C   UNL     1      87.319  71.262  84.667  0.00  0.00    +0.000 C 
ATOM     10  C   UNL     1      87.424  72.401  83.681  0.00  0.00    +0.000 C 
ATOM     11  C   UNL     1      88.709  72.753  83.522  0.00  0.00    +0.000 C 
ENDBRANCH   1   9
BRANCH   3  12
ATOM     12  C   UNL     1      86.580  71.221  89.693  0.00  0.00    +0.000 C 
ATOM     13  C   UNL     1      86.439  72.379  90.651  0.00  0.00    +0.000 C 
ATOM     14  C   UNL     1      87.635  72.682  91.184  0.00  0.00    +0.000 C 
ATOM     15  C   UNL     1      88.636  71.797  90.644  0.00  0.00    +0.000 C 
ATOM     16  C   UNL     1      88.062  70.946  89.779  0.00  0.00    +0.000 C 
ENDBRANCH   3  12
TORSDOF 2
ENDMDL
