REMARK  Name = *****
REMARK  5 active torsions:
REMARK  status: ('A' for Active; 'I' for Inactive)
REMARK    1  A    between atoms: C_1  and  C_2
REMARK    2  A    between atoms: C_5  and  S_8
REMARK    3  A    between atoms: S_8  and  C_9
REMARK    4  A    between atoms: C_9  and  C_11
REMARK    5  A    between atoms: C_14  and  C_16
REMARK                            x       y       z     vdW  Elec       q    Type
REMARK                         _______ _______ _______ _____ _____    ______ ____
ROOT
ATOM      1  S   UNL     1      -3.624   0.207   0.663  0.00  0.00    +0.000 S 
ENDROOT
BRANCH   1   6
ATOM      2  C   UNL     1       2.392   0.017  -0.293  0.00  0.00    +0.000 C 
ATOM      3  C   UNL     1       0.907   0.084  -0.095  0.00  0.00    +0.000 A 
ATOM      4  C   UNL     1       0.297   1.273   0.318  0.00  0.00    +0.000 A 
ATOM      5  C   UNL     1      -1.083   1.323   0.537  0.00  0.00    +0.000 A 
ATOM      6  C   UNL     1      -1.873   0.186   0.342  0.00  0.00    +0.000 A 
ATOM      7  C   UNL     1      -1.261  -1.009  -0.046  0.00  0.00    +0.000 A 
ATOM      8  C   UNL     1       0.120  -1.060  -0.262  0.00  0.00    +0.000 A 
ENDBRANCH   1   6
BRANCH   1   9
ATOM      9  C   UNL     1      -4.235   1.323  -0.560  0.00  0.00    +0.000 C 
ATOM     10  O   UNL     1      -3.498   1.911  -1.345  0.00  0.00    +0.000 OA
BRANCH   9  11
ATOM     11  C   UNL     1      -5.687   1.513  -0.570  0.00  0.00    +0.000 A 
ATOM     12  N   UNL     1      -6.540   0.880   0.256  0.00  0.00    +0.000 NA
ATOM     13  O   UNL     1      -7.803   1.335  -0.066  0.00  0.00    +0.000 OA
ATOM     14  C   UNL     1      -7.721   2.233  -1.080  0.00  0.00    +0.000 A 
ATOM     15  C   UNL     1      -6.406   2.384  -1.437  0.00  0.00    +0.000 A 
ATOM     16  C   UNL     1      -8.987   2.826  -1.544  0.00  0.00    +0.000 C 
ENDBRANCH   9  11
ENDBRANCH   1   9
TORSDOF 3
