MODEL 1
REMARK VINA RESULT:      -3.8      0.000      0.000
REMARK  Name = *****
REMARK  4 active torsions:
REMARK  status: ('A' for Active; 'I' for Inactive)
REMARK    1  A    between atoms: C_4  and  C_7
REMARK    2  A    between atoms: C_7  and  S_8
REMARK    3  A    between atoms: S_8  and  C_9
REMARK    4  A    between atoms: C_9  and  C_11
REMARK                            x       y       z     vdW  Elec       q    Type
REMARK                         _______ _______ _______ _____ _____    ______ ____
ROOT
ATOM      1  S   UNL     1     103.391 126.068  82.810  0.00  0.00    +0.000 S 
ENDROOT
BRANCH   1   2
ATOM      2  C   UNL     1     104.138 126.360  81.245  0.00  0.00    +0.000 C 
ATOM      3  S   UNL     1     104.034 127.834  80.462  0.00  0.00    +0.000 S 
BRANCH   2   4
ATOM      4  C   UNL     1     104.799 125.206  80.662  0.00  0.00    +0.000 A 
ATOM      5  C   UNL     1     104.554 123.861  80.898  0.00  0.00    +0.000 A 
ATOM      6  C   UNL     1     105.422 123.000  80.166  0.00  0.00    +0.000 A 
ATOM      7  C   UNL     1     106.319 123.707  79.400  0.00  0.00    +0.000 A 
ATOM      8  S   UNL     1     106.115 125.394  79.567  0.00  0.00    +0.000 S 
ENDBRANCH   2   4
ENDBRANCH   1   2
BRANCH   1   9
ATOM      9  C   UNL     1     101.679 125.855  82.238  0.00  0.00    +0.000 C 
BRANCH   9  13
ATOM     10  C   UNL     1      99.171 129.124  83.509  0.00  0.00    +0.000 A 
ATOM     11  C   UNL     1      98.607 128.018  82.877  0.00  0.00    +0.000 A 
ATOM     12  C   UNL     1      99.418 126.958  82.467  0.00  0.00    +0.000 A 
ATOM     13  C   UNL     1     100.802 126.993  82.691  0.00  0.00    +0.000 A 
ATOM     14  C   UNL     1     101.359 128.116  83.321  0.00  0.00    +0.000 A 
ATOM     15  C   UNL     1     100.546 129.175  83.730  0.00  0.00    +0.000 A 
ENDBRANCH   9  13
ENDBRANCH   1   9
TORSDOF 4
ENDMDL
