MODEL 1
REMARK VINA RESULT:      -4.7      0.000      0.000
REMARK  Name = *****
REMARK  4 active torsions:
REMARK  status: ('A' for Active; 'I' for Inactive)
REMARK    1  A    between atoms: C_2  and  C_3
REMARK    2  A    between atoms: C_3  and  C_4
REMARK    3  A    between atoms: C_3  and  C_10
REMARK    4  A    between atoms: C_10  and  C_13
REMARK                            x       y       z     vdW  Elec       q    Type
REMARK                         _______ _______ _______ _____ _____    ______ ____
ROOT
ATOM      1  C   UNL     1      89.843  66.646  86.112  0.00  0.00    +0.000 C 
ENDROOT
BRANCH   1   2
ATOM      2  C   UNL     1      89.780  68.169  85.964  0.00  0.00    +0.000 A 
ATOM      3  C   UNL     1      89.529  69.029  87.045  0.00  0.00    +0.000 A 
ATOM      4  C   UNL     1      89.495  70.415  86.864  0.00  0.00    +0.000 A 
ATOM      5  C   UNL     1      89.718  70.962  85.604  0.00  0.00    +0.000 A 
ATOM      6  C   UNL     1      89.979  70.126  84.522  0.00  0.00    +0.000 A 
ATOM      7  C   UNL     1      90.013  68.742  84.700  0.00  0.00    +0.000 A 
ENDBRANCH   1   2
BRANCH   1   8
ATOM      8  C   UNL     1      88.456  65.991  86.249  0.00  0.00    +0.000 C 
ATOM      9  C   UNL     1      87.743  65.440  85.018  0.00  0.00    +0.000 C 
ATOM     10  O   UNL     1      87.363  66.684  85.603  0.00  0.00    +0.000 OA
BRANCH   8  11
ATOM     11  C   UNL     1      88.149  65.351  87.593  0.00  0.00    +0.000 A 
ATOM     12  C   UNL     1      87.159  65.878  88.440  0.00  0.00    +0.000 A 
ATOM     13  C   UNL     1      86.878  65.301  89.682  0.00  0.00    +0.000 A 
ATOM     14  C   UNL     1      87.588  64.182  90.104  0.00  0.00    +0.000 A 
ATOM     15  C   UNL     1      88.575  63.640  89.285  0.00  0.00    +0.000 A 
ATOM     16  C   UNL     1      88.850  64.219  88.044  0.00  0.00    +0.000 A 
ENDBRANCH   8  11
ENDBRANCH   1   8
BRANCH   1  18
ATOM     17  C   UNL     1      91.501  64.919  85.271  0.00  0.00    +0.000 C 
ATOM     18  C   UNL     1      90.714  65.983  85.053  0.00  0.00    +0.000 C 
ENDBRANCH   1  18
TORSDOF 4
ENDMDL
