REMARK  Name = *****
REMARK  2 active torsions:
REMARK  status: ('A' for Active; 'I' for Inactive)
REMARK    1  A    between atoms: C_4  and  N_7
REMARK    2  A    between atoms: C_8  and  C_9
REMARK                            x       y       z     vdW  Elec       q    Type
REMARK                         _______ _______ _______ _____ _____    ______ ____
ROOT
ATOM      1  N   UNL     1      -2.720   0.423  -0.769  0.00  0.00    +0.000 NA
ATOM      2  C   UNL     1      -3.599  -0.333  -0.194  0.00  0.00    +0.000 C 
ENDROOT
BRANCH   2   3
ATOM      3  C   UNL     1      -5.041  -0.195  -0.475  0.00  0.00    +0.000 A 
ATOM      4  C   UNL     1      -5.505   0.774  -1.371  0.00  0.00    +0.000 A 
ATOM      5  C   UNL     1      -6.875   0.890  -1.623  0.00  0.00    +0.000 A 
ATOM      6  C   UNL     1      -7.779   0.035  -0.980  0.00  0.00    +0.000 A 
ATOM      7  C   UNL     1      -7.308  -0.932  -0.085  0.00  0.00    +0.000 A 
ATOM      8  C   UNL     1      -5.939  -1.049   0.169  0.00  0.00    +0.000 A 
ATOM      9 CL   UNL     1      -9.484   0.120  -1.243  0.00  0.00    +0.000 Cl
ATOM     10 CL   UNL     1      -7.388   2.106  -2.738  0.00  0.00    +0.000 Cl
ENDBRANCH   2   3
BRANCH   1  14
ATOM     11  C   UNL     1       1.289  -0.261   0.285  0.00  0.00    +0.000 A 
ATOM     12  C   UNL     1       0.705  -0.997  -0.745  0.00  0.00    +0.000 A 
ATOM     13  C   UNL     1      -0.627  -0.770  -1.095  0.00  0.00    +0.000 A 
ATOM     14  C   UNL     1      -1.385   0.185  -0.412  0.00  0.00    +0.000 A 
ATOM     15  C   UNL     1      -0.788   0.930   0.608  0.00  0.00    +0.000 A 
ATOM     16  C   UNL     1       0.544   0.705   0.960  0.00  0.00    +0.000 A 
ENDBRANCH   1  14
TORSDOF 2
