MODEL 1
REMARK VINA RESULT:      -5.0      0.000      0.000
REMARK  Name = *****
REMARK  4 active torsions:
REMARK  status: ('A' for Active; 'I' for Inactive)
REMARK    1  A    between atoms: C_5  and  C_7
REMARK    2  A    between atoms: C_7  and  C_9
REMARK    3  A    between atoms: C_9  and  C_10
REMARK    4  A    between atoms: C_10  and  C_11
REMARK                            x       y       z     vdW  Elec       q    Type
REMARK                         _______ _______ _______ _____ _____    ______ ____
ROOT
ATOM      1  C   UNL     1      99.156 127.582  82.870  0.00  0.00    +0.000 C 
ATOM      2  O   UNL     1      98.265 127.406  82.040  0.00  0.00    +0.000 OA
ENDROOT
BRANCH   1   7
ATOM      3  C   UNL     1      99.331 131.063  84.260  0.00  0.00    +0.000 A 
ATOM      4  C   UNL     1      98.780 130.915  85.530  0.00  0.00    +0.000 A 
ATOM      5  C   UNL     1      98.357 129.656  85.964  0.00  0.00    +0.000 A 
ATOM      6  C   UNL     1      98.473 128.541  85.127  0.00  0.00    +0.000 A 
ATOM      7  C   UNL     1      99.005 128.692  83.842  0.00  0.00    +0.000 A 
ATOM      8  C   UNL     1      99.448 129.955  83.419  0.00  0.00    +0.000 A 
ATOM      9 CL   UNL     1      98.001 127.016  85.785  0.00  0.00    +0.000 Cl
ENDBRANCH   1   7
BRANCH   1  10
ATOM     10  C   UNL     1     100.358 126.669  82.984  0.00  0.00    +0.000 C 
BRANCH  10  11
ATOM     11  C   UNL     1     101.653 127.473  82.870  0.00  0.00    +0.000 C 
BRANCH  11  12
ATOM     12  C   UNL     1     102.604 126.849  81.879  0.00  0.00    +0.000 A 
ATOM     13  C   UNL     1     102.807 125.461  81.863  0.00  0.00    +0.000 A 
ATOM     14  C   UNL     1     103.703 124.892  80.957  0.00  0.00    +0.000 A 
ATOM     15  C   UNL     1     104.398 125.708  80.073  0.00  0.00    +0.000 A 
ATOM     16  C   UNL     1     104.215 127.086  80.077  0.00  0.00    +0.000 A 
ATOM     17  C   UNL     1     103.319 127.658  80.981  0.00  0.00    +0.000 A 
ATOM     18  F   UNL     1     105.257 125.160  79.205  0.00  0.00    +0.000 F 
ENDBRANCH  11  12
ENDBRANCH  10  11
ENDBRANCH   1  10
TORSDOF 4
ENDMDL
