MODEL 1
REMARK VINA RESULT:      -4.5      0.000      0.000
REMARK  Name = *****
REMARK  5 active torsions:
REMARK  status: ('A' for Active; 'I' for Inactive)
REMARK    1  A    between atoms: C_1  and  O_2
REMARK    2  A    between atoms: O_2  and  C_3
REMARK    3  A    between atoms: C_6  and  C_9
REMARK    4  A    between atoms: C_9  and  C_10
REMARK    5  A    between atoms: C_10  and  C_11
REMARK                            x       y       z     vdW  Elec       q    Type
REMARK                         _______ _______ _______ _____ _____    ______ ____
ROOT
ATOM      1  C   UNL     1     103.061 127.285  81.449  0.00  0.00    +0.000 C 
ENDROOT
BRANCH   1   5
ATOM      2  C   UNL     1     104.729 123.297  81.286  0.00  0.00    +0.000 A 
ATOM      3  C   UNL     1     104.218 123.798  82.484  0.00  0.00    +0.000 A 
ATOM      4  C   UNL     1     103.672 125.085  82.534  0.00  0.00    +0.000 A 
ATOM      5  C   UNL     1     103.628 125.888  81.387  0.00  0.00    +0.000 A 
ATOM      6  C   UNL     1     104.145 125.383  80.189  0.00  0.00    +0.000 A 
ATOM      7  C   UNL     1     104.688 124.097  80.143  0.00  0.00    +0.000 A 
BRANCH   2   9
ATOM      8  C   UNL     1     104.636 120.962  81.720  0.00  0.00    +0.000 C 
ATOM      9  O   UNL     1     105.289 122.063  81.101  0.00  0.00    +0.000 OA
ENDBRANCH   2   9
ENDBRANCH   1   5
BRANCH   1  10
ATOM     10  C   UNL     1     102.572 127.635  82.857  0.00  0.00    +0.000 C 
BRANCH  10  11
ATOM     11  C   UNL     1     101.064 127.639  82.940  0.00  0.00    +0.000 A 
ATOM     12  C   UNL     1     100.319 126.608  82.349  0.00  0.00    +0.000 A 
ATOM     13  C   UNL     1      98.925 126.621  82.413  0.00  0.00    +0.000 A 
ATOM     14  C   UNL     1      98.278 127.664  83.065  0.00  0.00    +0.000 A 
ATOM     15  C   UNL     1      98.998 128.696  83.653  0.00  0.00    +0.000 A 
ATOM     16  C   UNL     1     100.393 128.686  83.590  0.00  0.00    +0.000 A 
ATOM     17  F   UNL     1      96.940 127.675  83.126  0.00  0.00    +0.000 F 
ENDBRANCH  10  11
ENDBRANCH   1  10
TORSDOF 4
ENDMDL
