REMARK  Name = *****
REMARK  2 active torsions:
REMARK  status: ('A' for Active; 'I' for Inactive)
REMARK    1  A    between atoms: C_8  and  S_16
REMARK    2  A    between atoms: C_9  and  C_10
REMARK                            x       y       z     vdW  Elec       q    Type
REMARK                         _______ _______ _______ _____ _____    ______ ____
ROOT
ATOM      1  C   UNL     1      -1.716  -1.150   0.096  0.00  0.00    +0.000 C 
ATOM      2  C   UNL     1      -0.300  -0.657   0.062  0.00  0.00    +0.000 A 
ATOM      3  C   UNL     1       0.866  -1.401   0.144  0.00  0.00    +0.000 A 
ATOM      4  C   UNL     1       2.084  -0.724   0.079  0.00  0.00    +0.000 A 
ATOM      5  C   UNL     1       2.117   0.671  -0.068  0.00  0.00    +0.000 A 
ATOM      6  C   UNL     1       0.932   1.411  -0.152  0.00  0.00    +0.000 A 
ATOM      7  C   UNL     1      -0.281   0.741  -0.082  0.00  0.00    +0.000 A 
ATOM      8  C   UNL     1      -1.666   1.215  -0.145  0.00  0.00    +0.000 C 
ATOM      9  C   UNL     1      -2.479   0.146  -0.054  0.00  0.00    +0.000 C 
ENDROOT
BRANCH   9  10
ATOM     10  C   UNL     1      -3.940   0.123  -0.062  0.00  0.00    +0.000 A 
ATOM     11  C   UNL     1      -4.643   0.281  -1.262  0.00  0.00    +0.000 A 
ATOM     12  C   UNL     1      -6.039   0.250  -1.269  0.00  0.00    +0.000 A 
ATOM     13  C   UNL     1      -6.739   0.067  -0.077  0.00  0.00    +0.000 A 
ATOM     14  C   UNL     1      -6.045  -0.084   1.122  0.00  0.00    +0.000 A 
ATOM     15  C   UNL     1      -4.649  -0.059   1.130  0.00  0.00    +0.000 A 
ENDBRANCH   9  10
BRANCH   8  16
ATOM     16  S   UNL     1      -2.103   2.858  -0.289  0.00  0.00    +0.000 S 
ATOM     17  H   UNL     1      -0.979   3.622  -0.351  0.00  0.00    +0.000 HD
ENDBRANCH   8  16
TORSDOF 2
