REMARK  Name = *****
REMARK  3 active torsions:
REMARK  status: ('A' for Active; 'I' for Inactive)
REMARK    1  A    between atoms: C_3  and  N_9
REMARK    2  A    between atoms: N_9  and  C_10
REMARK    3  A    between atoms: C_10  and  C_11
REMARK                            x       y       z     vdW  Elec       q    Type
REMARK                         _______ _______ _______ _____ _____    ______ ____
ROOT
ATOM      1  C   UNL     1       0.238  -1.141   0.684  0.00  0.00    +0.000 C 
ATOM      2  C   UNL     1       1.301  -0.097   0.453  0.00  0.00    +0.000 C 
ATOM      3  C   UNL     1       1.119   0.944  -0.373  0.00  0.00    +0.000 C 
ATOM      4  C   UNL     1      -0.105   1.085  -1.132  0.00  0.00    +0.000 C 
ATOM      5  C   UNL     1      -1.164   0.293  -0.909  0.00  0.00    +0.000 C 
ATOM      6  C   UNL     1      -1.155  -0.796   0.120  0.00  0.00    +0.000 C 
ATOM      7  F   UNL     1      -1.705  -1.928  -0.401  0.00  0.00    +0.000 F 
ATOM      8  F   UNL     1      -1.967  -0.438   1.156  0.00  0.00    +0.000 F 
ENDROOT
BRANCH   3   9
ATOM      9  N   UNL     1       2.091   1.867  -0.626  0.00  0.00    +0.000 NA
BRANCH   9  10
ATOM     10  C   UNL     1       2.100   2.882   0.181  0.00  0.00    +0.000 C 
BRANCH  10  11
ATOM     11  C   UNL     1       3.086   3.973   0.053  0.00  0.00    +0.000 A 
ATOM     12  C   UNL     1       4.065   3.941  -0.944  0.00  0.00    +0.000 A 
ATOM     13  C   UNL     1       4.986   4.985  -1.045  0.00  0.00    +0.000 A 
ATOM     14  C   UNL     1       4.927   6.056  -0.152  0.00  0.00    +0.000 A 
ATOM     15  C   UNL     1       3.949   6.087   0.843  0.00  0.00    +0.000 A 
ATOM     16  C   UNL     1       3.026   5.045   0.948  0.00  0.00    +0.000 A 
ENDBRANCH  10  11
ENDBRANCH   9  10
ENDBRANCH   3   9
TORSDOF 3
