MODEL 1
REMARK VINA RESULT:      -4.4      0.000      0.000
REMARK  Name = *****
REMARK  4 active torsions:
REMARK  status: ('A' for Active; 'I' for Inactive)
REMARK    1  A    between atoms: C_1  and  C_2
REMARK    2  A    between atoms: C_5  and  O_8
REMARK    3  A    between atoms: O_8  and  C_9
REMARK    4  A    between atoms: C_9  and  C_10
REMARK                            x       y       z     vdW  Elec       q    Type
REMARK                         _______ _______ _______ _____ _____    ______ ____
ROOT
ATOM      1  O   UNL     1     103.423 125.059  80.190  0.00  0.00    +0.000 OA
ENDROOT
BRANCH   1   6
ATOM      2  C   UNL     1     102.180 129.162  83.910  0.00  0.00    +0.000 C 
ATOM      3  C   UNL     1     102.463 128.071  82.920  0.00  0.00    +0.000 A 
ATOM      4  C   UNL     1     101.670 126.919  82.884  0.00  0.00    +0.000 A 
ATOM      5  C   UNL     1     101.951 125.885  81.983  0.00  0.00    +0.000 A 
ATOM      6  C   UNL     1     103.037 125.989  81.115  0.00  0.00    +0.000 A 
ATOM      7  C   UNL     1     103.840 127.130  81.162  0.00  0.00    +0.000 A 
ATOM      8  C   UNL     1     103.561 128.162  82.061  0.00  0.00    +0.000 A 
ENDBRANCH   1   6
BRANCH   1   9
ATOM      9  C   UNL     1     104.715 124.474  80.358  0.00  0.00    +0.000 C 
BRANCH   9  10
ATOM     10  C   UNL     1     104.604 123.241  81.228  0.00  0.00    +0.000 A 
ATOM     11  C   UNL     1     104.550 123.349  82.627  0.00  0.00    +0.000 A 
ATOM     12  C   UNL     1     104.485 122.207  83.428  0.00  0.00    +0.000 A 
ATOM     13  C   UNL     1     104.487 120.947  82.836  0.00  0.00    +0.000 A 
ATOM     14  C   UNL     1     104.554 120.819  81.451  0.00  0.00    +0.000 A 
ATOM     15  C   UNL     1     104.617 121.962  80.650  0.00  0.00    +0.000 A 
ATOM     16 CL   UNL     1     104.409 119.538  83.820  0.00  0.00    +0.000 Cl
ENDBRANCH   9  10
ENDBRANCH   1   9
TORSDOF 3
ENDMDL
