MODEL 1
REMARK VINA RESULT:      -4.7      0.000      0.000
REMARK  Name = *****
REMARK  4 active torsions:
REMARK  status: ('A' for Active; 'I' for Inactive)
REMARK    1  A    between atoms: C_1  and  C_2
REMARK    2  A    between atoms: C_2  and  O_3
REMARK    3  A    between atoms: O_3  and  N_4
REMARK    4  A    between atoms: C_12  and  C_13
REMARK                            x       y       z     vdW  Elec       q    Type
REMARK                         _______ _______ _______ _____ _____    ______ ____
ROOT
ATOM      1  N   UNL     1     102.816 125.163  83.018  0.00  0.00    +0.000 N 
ATOM      2  C   UNL     1     103.782 124.448  82.347  0.00  0.00    +0.000 A 
ATOM      3  C   UNL     1     104.635 123.422  82.781  0.00  0.00    +0.000 A 
ATOM      4  C   UNL     1     105.516 122.868  81.847  0.00  0.00    +0.000 A 
ATOM      5  C   UNL     1     105.541 123.323  80.530  0.00  0.00    +0.000 A 
ATOM      6  C   UNL     1     104.687 124.351  80.112  0.00  0.00    +0.000 A 
ATOM      7  C   UNL     1     103.794 124.925  81.037  0.00  0.00    +0.000 A 
ATOM      8  C   UNL     1     102.826 125.964  80.962  0.00  0.00    +0.000 A 
ATOM      9  C   UNL     1     102.248 126.129  82.212  0.00  0.00    +0.000 A 
ENDROOT
BRANCH   9  10
ATOM     10  C   UNL     1     101.218 127.077  82.643  0.00  0.00    +0.000 A 
ATOM     11  C   UNL     1      99.864 126.798  82.412  0.00  0.00    +0.000 A 
ATOM     12  C   UNL     1      98.871 127.694  82.817  0.00  0.00    +0.000 A 
ATOM     13  C   UNL     1      99.221 128.884  83.451  0.00  0.00    +0.000 A 
ATOM     14  C   UNL     1     100.564 129.178  83.680  0.00  0.00    +0.000 A 
ATOM     15  C   UNL     1     101.556 128.282  83.276  0.00  0.00    +0.000 A 
ENDBRANCH   9  10
BRANCH   1  16
ATOM     16  O   UNL     1     102.497 124.953  84.370  0.00  0.00    +0.000 OA
BRANCH  16  18
ATOM     17  C   UNL     1     102.627 126.374  86.279  0.00  0.00    +0.000 C 
ATOM     18  C   UNL     1     103.415 125.695  85.175  0.00  0.00    +0.000 C 
ENDBRANCH  16  18
ENDBRANCH   1  16
TORSDOF 3
ENDMDL
