MODEL 1
REMARK VINA RESULT:      -4.4      0.000      0.000
REMARK  Name = *****
REMARK  3 active torsions:
REMARK  status: ('A' for Active; 'I' for Inactive)
REMARK    1  A    between atoms: C_8  and  O_9
REMARK    2  A    between atoms: O_9  and  C_10
REMARK    3  A    between atoms: C_10  and  C_12
REMARK                            x       y       z     vdW  Elec       q    Type
REMARK                         _______ _______ _______ _____ _____    ______ ____
ROOT
ATOM      1  O   UNL     1      88.420  69.802  85.862  0.00  0.00    +0.000 OA
ENDROOT
BRANCH   1   9
ATOM      2  C   UNL     1      89.535  72.257  82.401  0.00  0.00    +0.000 C 
ATOM      3  C   UNL     1      89.247  72.673  83.867  0.00  0.00    +0.000 C 
ATOM      4  C   UNL     1      89.801  71.491  84.710  0.00  0.00    +0.000 C 
ATOM      5  C   UNL     1      91.129  71.390  83.894  0.00  0.00    +0.000 C 
ATOM      6  C   UNL     1      90.549  71.095  82.526  0.00  0.00    +0.000 C 
ATOM      7  C   UNL     1      89.871  69.694  82.580  0.00  0.00    +0.000 C 
ATOM      8  C   UNL     1      89.840  69.024  83.988  0.00  0.00    +0.000 C 
ATOM      9  C   UNL     1      89.690  70.011  85.196  0.00  0.00    +0.000 C 
ENDBRANCH   1   9
BRANCH   1  10
ATOM     10  C   UNL     1      88.263  70.424  87.057  0.00  0.00    +0.000 C 
ATOM     11  O   UNL     1      89.075  70.438  87.968  0.00  0.00    +0.000 OA
BRANCH  10  12
ATOM     12  C   UNL     1      86.943  71.108  87.119  0.00  0.00    +0.000 A 
ATOM     13  C   UNL     1      86.319  71.451  85.911  0.00  0.00    +0.000 A 
ATOM     14  C   UNL     1      85.079  72.093  85.917  0.00  0.00    +0.000 A 
ATOM     15  C   UNL     1      84.457  72.398  87.127  0.00  0.00    +0.000 A 
ATOM     16  C   UNL     1      85.072  72.062  88.333  0.00  0.00    +0.000 A 
ATOM     17  C   UNL     1      86.312  71.419  88.332  0.00  0.00    +0.000 A 
ENDBRANCH  10  12
ENDBRANCH   1  10
TORSDOF 3
ENDMDL
