REMARK  Name = *****
REMARK  5 active torsions:
REMARK  status: ('A' for Active; 'I' for Inactive)
REMARK    1  A    between atoms: C_1  and  C_2
REMARK    2  A    between atoms: N_6  and  N_7
REMARK    3  A    between atoms: N_9  and  C_10
REMARK    4  A    between atoms: C_10  and  C_11
REMARK    5  A    between atoms: C_11  and  C_12
REMARK                            x       y       z     vdW  Elec       q    Type
REMARK                         _______ _______ _______ _____ _____    ______ ____
ROOT
ATOM      1  C   UNL     1       1.341   0.406  -1.203  0.00  0.00    +0.000 C 
ATOM      2  C   UNL     1       2.595   0.232  -0.406  0.00  0.00    +0.000 A 
ATOM      3  C   UNL     1       3.267   1.267   0.126  0.00  0.00    +0.000 A 
ATOM      4  S   UNL     1       4.674   0.755   1.002  0.00  0.00    +0.000 S 
ATOM      5  C   UNL     1       4.327  -0.981   0.643  0.00  0.00    +0.000 A 
ATOM      6  N   UNL     1       5.164  -1.810   1.162  0.00  0.00    +0.000 NA
ATOM      7  N   UNL     1       3.166  -1.033  -0.149  0.00  0.00    +0.000 N 
ENDROOT
BRANCH   6   8
ATOM      8  N   UNL     1       4.984  -3.167   0.951  0.00  0.00    +0.000 NA
ATOM      9  O   UNL     1       5.861  -3.825   1.516  0.00  0.00    +0.000 OA
ENDBRANCH   6   8
BRANCH   7  10
ATOM     10  C   UNL     1       2.551  -2.288  -0.588  0.00  0.00    +0.000 C 
BRANCH  10  11
ATOM     11  C   UNL     1       1.612  -2.841   0.491  0.00  0.00    +0.000 C 
BRANCH  11  12
ATOM     12  C   UNL     1       1.094  -4.216   0.147  0.00  0.00    +0.000 A 
ATOM     13  C   UNL     1       1.538  -5.337   0.860  0.00  0.00    +0.000 A 
ATOM     14  C   UNL     1       1.067  -6.611   0.542  0.00  0.00    +0.000 A 
ATOM     15  C   UNL     1       0.152  -6.778  -0.495  0.00  0.00    +0.000 A 
ATOM     16  C   UNL     1      -0.296  -5.670  -1.213  0.00  0.00    +0.000 A 
ATOM     17  C   UNL     1       0.169  -4.394  -0.892  0.00  0.00    +0.000 A 
ENDBRANCH  11  12
ENDBRANCH  10  11
ENDBRANCH   7  10
TORSDOF 4
