MODEL 1
REMARK VINA RESULT:      -4.4      0.000      0.000
REMARK  Name = *****
REMARK  7 active torsions:
REMARK  status: ('A' for Active; 'I' for Inactive)
REMARK    1  A    between atoms: C_1  and  O_2
REMARK    2  A    between atoms: O_2  and  C_3
REMARK    3  A    between atoms: C_6  and  C_9
REMARK    4  A    between atoms: C_9  and  C_10
REMARK    5  A    between atoms: C_10  and  C_11
REMARK    6  A    between atoms: C_14  and  S_17
REMARK    7  A    between atoms: S_17  and  C_18
REMARK                            x       y       z     vdW  Elec       q    Type
REMARK                         _______ _______ _______ _____ _____    ______ ____
ROOT
ATOM      1  C   UNL     1     102.756 128.027  83.066  0.00  0.00    +0.000 C 
ENDROOT
BRANCH   1   5
ATOM      2  C   UNL     1      98.457 127.579  82.921  0.00  0.00    +0.000 A 
ATOM      3  C   UNL     1      99.026 128.715  83.495  0.00  0.00    +0.000 A 
ATOM      4  C   UNL     1     100.418 128.862  83.537  0.00  0.00    +0.000 A 
ATOM      5  C   UNL     1     101.256 127.876  83.001  0.00  0.00    +0.000 A 
ATOM      6  C   UNL     1     100.681 126.735  82.432  0.00  0.00    +0.000 A 
ATOM      7  C   UNL     1      99.292 126.593  82.392  0.00  0.00    +0.000 A 
BRANCH   2   9
ATOM      8  C   UNL     1      96.543 126.509  83.838  0.00  0.00    +0.000 C 
ATOM      9  O   UNL     1      97.120 127.314  82.817  0.00  0.00    +0.000 OA
ENDBRANCH   2   9
ENDBRANCH   1   5
BRANCH   1  10
ATOM     10  C   UNL     1     103.397 127.905  81.681  0.00  0.00    +0.000 C 
BRANCH  10  11
ATOM     11  C   UNL     1     104.072 126.568  81.496  0.00  0.00    +0.000 A 
ATOM     12  C   UNL     1     103.764 125.764  80.392  0.00  0.00    +0.000 A 
ATOM     13  C   UNL     1     104.372 124.515  80.232  0.00  0.00    +0.000 A 
ATOM     14  C   UNL     1     105.301 124.055  81.170  0.00  0.00    +0.000 A 
ATOM     15  C   UNL     1     105.594 124.847  82.283  0.00  0.00    +0.000 A 
ATOM     16  C   UNL     1     104.987 126.097  82.444  0.00  0.00    +0.000 A 
BRANCH  14  17
ATOM     17  S   UNL     1     106.085 122.461  81.012  0.00  0.00    +0.000 S 
ATOM     18  C   UNL     1     104.624 121.389  81.017  0.00  0.00    +0.000 C 
ENDBRANCH  14  17
ENDBRANCH  10  11
ENDBRANCH   1  10
TORSDOF 5
ENDMDL
