MODEL 1
REMARK VINA RESULT:      -3.7      0.000      0.000
REMARK  Name = *****
REMARK  4 active torsions:
REMARK  status: ('A' for Active; 'I' for Inactive)
REMARK    1  A    between atoms: C_5  and  C_6
REMARK    2  A    between atoms: C_6  and  O_7
REMARK    3  A    between atoms: O_7  and  C_8
REMARK    4  A    between atoms: C_8  and  C_10
REMARK                            x       y       z     vdW  Elec       q    Type
REMARK                         _______ _______ _______ _____ _____    ______ ____
ROOT
ATOM      1  C   UNL     1      98.989 127.386  82.925  0.00  0.00    +0.000 C 
ATOM      2  O   UNL     1      98.151 127.145  82.071  0.00  0.00    +0.000 OA
ENDROOT
BRANCH   1   3
ATOM      3  C   UNL     1      98.966 128.606  83.777  0.00  0.00    +0.000 A 
ATOM      4  C   UNL     1      99.373 129.821  83.204  0.00  0.00    +0.000 A 
ATOM      5  C   UNL     1      99.370 130.992  83.963  0.00  0.00    +0.000 A 
ATOM      6  C   UNL     1      98.962 130.959  85.296  0.00  0.00    +0.000 A 
ATOM      7  C   UNL     1      98.558 129.756  85.873  0.00  0.00    +0.000 A 
ATOM      8  C   UNL     1      98.558 128.581  85.117  0.00  0.00    +0.000 A 
ENDBRANCH   1   3
BRANCH   1   9
ATOM      9  O   UNL     1     100.058 126.610  83.232  0.00  0.00    +0.000 OA
BRANCH   9  10
ATOM     10  C   UNL     1     101.169 126.683  82.322  0.00  0.00    +0.000 C 
BRANCH  10  15
ATOM     11  C   UNL     1     103.234 128.120  82.702  0.00  0.00    +0.000 C 
ATOM     12  C   UNL     1     102.889 129.057  83.814  0.00  0.00    +0.000 C 
ATOM     13  C   UNL     1     102.345 128.414  84.852  0.00  0.00    +0.000 C 
ATOM     14  C   UNL     1     102.243 126.945  84.602  0.00  0.00    +0.000 C 
ATOM     15  C   UNL     1     102.491 126.829  83.091  0.00  0.00    +0.000 C 
ENDBRANCH  10  15
ENDBRANCH   9  10
ENDBRANCH   1   9
TORSDOF 4
ENDMDL
