MODEL 1
REMARK VINA RESULT:      -4.9      0.000      0.000
REMARK  Name = *****
REMARK  4 active torsions:
REMARK  status: ('A' for Active; 'I' for Inactive)
REMARK    1  A    between atoms: C_3  and  C_8
REMARK    2  A    between atoms: C_8  and  C_9
REMARK    3  A    between atoms: C_9  and  C_11
REMARK    4  A    between atoms: C_11  and  C_12
REMARK                            x       y       z     vdW  Elec       q    Type
REMARK                         _______ _______ _______ _____ _____    ______ ____
ROOT
ATOM      1  C   UNL     1     103.703 128.069  81.789  0.00  0.00    +0.000 C 
ATOM      2  O   UNL     1     104.391 129.088  81.863  0.00  0.00    +0.000 OA
ENDROOT
BRANCH   1   3
ATOM      3  C   UNL     1     102.976 127.460  82.980  0.00  0.00    +0.000 C 
BRANCH   3   6
ATOM      4  C   UNL     1      99.577 129.099  83.552  0.00  0.00    +0.000 A 
ATOM      5  C   UNL     1     100.957 128.880  83.532  0.00  0.00    +0.000 A 
ATOM      6  C   UNL     1     101.486 127.700  82.988  0.00  0.00    +0.000 A 
ATOM      7  C   UNL     1     100.607 126.735  82.477  0.00  0.00    +0.000 A 
ATOM      8  C   UNL     1      99.234 126.965  82.503  0.00  0.00    +0.000 A 
ATOM      9  C   UNL     1      98.712 128.138  83.033  0.00  0.00    +0.000 A 
ATOM     10  F   UNL     1      98.403 126.038  82.008  0.00  0.00    +0.000 F 
ENDBRANCH   3   6
ENDBRANCH   1   3
BRANCH   1  11
ATOM     11  C   UNL     1     103.519 127.362  80.459  0.00  0.00    +0.000 C 
BRANCH  11  12
ATOM     12  C   UNL     1     104.408 126.153  80.318  0.00  0.00    +0.000 A 
ATOM     13  C   UNL     1     103.915 124.866  80.570  0.00  0.00    +0.000 A 
ATOM     14  C   UNL     1     104.750 123.763  80.424  0.00  0.00    +0.000 A 
ATOM     15  C   UNL     1     106.075 123.910  80.032  0.00  0.00    +0.000 A 
ATOM     16  C   UNL     1     106.577 125.186  79.782  0.00  0.00    +0.000 A 
ATOM     17  C   UNL     1     105.748 126.302  79.925  0.00  0.00    +0.000 A 
ATOM     18  F   UNL     1     104.267 122.537  80.665  0.00  0.00    +0.000 F 
ENDBRANCH  11  12
ENDBRANCH   1  11
TORSDOF 4
ENDMDL
