MODEL 1
REMARK VINA RESULT:      -4.5      0.000      0.000
REMARK  Name = *****
REMARK  4 active torsions:
REMARK  status: ('A' for Active; 'I' for Inactive)
REMARK    1  A    between atoms: C_1  and  O_2
REMARK    2  A    between atoms: O_2  and  C_3
REMARK    3  A    between atoms: C_3  and  C_11
REMARK    4  A    between atoms: N_4  and  C_5
REMARK                            x       y       z     vdW  Elec       q    Type
REMARK                         _______ _______ _______ _____ _____    ______ ____
ROOT
ATOM      1  C   UNL     1     102.615 125.991  81.837  0.00  0.00    +0.000 C 
ATOM      2  N   UNL     1     101.691 125.978  82.747  0.00  0.00    +0.000 NA
ENDROOT
BRANCH   2   3
ATOM      3  C   UNL     1     100.864 127.085  82.964  0.00  0.00    +0.000 A 
ATOM      4  C   UNL     1      99.542 127.053  82.512  0.00  0.00    +0.000 A 
ATOM      5  C   UNL     1      98.686 128.132  82.742  0.00  0.00    +0.000 A 
ATOM      6  C   UNL     1      99.144 129.247  83.441  0.00  0.00    +0.000 A 
ATOM      7  C   UNL     1     100.453 129.279  83.919  0.00  0.00    +0.000 A 
ATOM      8  C   UNL     1     101.306 128.198  83.688  0.00  0.00    +0.000 A 
ENDBRANCH   2   3
BRANCH   1   9
ATOM      9  C   UNL     1     103.604 124.888  81.689  0.00  0.00    +0.000 A 
ATOM     10  C   UNL     1     104.121 124.515  80.441  0.00  0.00    +0.000 A 
ATOM     11  C   UNL     1     105.046 123.472  80.343  0.00  0.00    +0.000 A 
ATOM     12  C   UNL     1     105.461 122.796  81.490  0.00  0.00    +0.000 A 
ATOM     13  C   UNL     1     104.955 123.162  82.736  0.00  0.00    +0.000 A 
ATOM     14  C   UNL     1     104.030 124.203  82.837  0.00  0.00    +0.000 A 
ENDBRANCH   1   9
BRANCH   1  16
ATOM     15  C   UNL     1     103.909 127.886  81.224  0.00  0.00    +0.000 C 
ATOM     16  O   UNL     1     102.848 126.970  80.926  0.00  0.00    +0.000 OA
ENDBRANCH   1  16
TORSDOF 3
ENDMDL
