MODEL 1
REMARK VINA RESULT:      -4.4      0.000      0.000
REMARK  Name = *****
REMARK  3 active torsions:
REMARK  status: ('A' for Active; 'I' for Inactive)
REMARK    1  A    between atoms: C_3  and  C_8
REMARK    2  A    between atoms: C_8  and  O_10
REMARK    3  A    between atoms: O_10  and  C_11
REMARK                            x       y       z     vdW  Elec       q    Type
REMARK                         _______ _______ _______ _____ _____    ______ ____
ROOT
ATOM      1  C   UNL     1     103.804 126.745  80.705  0.00  0.00    +0.000 C 
ATOM      2  O   UNL     1     103.442 127.487  79.806  0.00  0.00    +0.000 OA
ENDROOT
BRANCH   1   5
ATOM      3  C   UNL     1     106.121 124.153  79.231  0.00  0.00    +0.000 A 
ATOM      4  C   UNL     1     105.479 125.363  79.505  0.00  0.00    +0.000 A 
ATOM      5  C   UNL     1     104.450 125.426  80.459  0.00  0.00    +0.000 A 
ATOM      6  C   UNL     1     104.070 124.262  81.136  0.00  0.00    +0.000 A 
ATOM      7  C   UNL     1     104.718 123.064  80.852  0.00  0.00    +0.000 A 
ATOM      8  C   UNL     1     105.737 122.998  79.908  0.00  0.00    +0.000 A 
ATOM      9  F   UNL     1     104.350 121.950  81.500  0.00  0.00    +0.000 F 
ENDBRANCH   1   5
BRANCH   1  10
ATOM     10  O   UNL     1     103.694 126.964  82.067  0.00  0.00    +0.000 OA
BRANCH  10  11
ATOM     11  C   UNL     1     102.425 127.339  82.528  0.00  0.00    +0.000 A 
ATOM     12  C   UNL     1     102.240 128.502  83.277  0.00  0.00    +0.000 A 
ATOM     13  C   UNL     1     100.967 128.804  83.764  0.00  0.00    +0.000 A 
ATOM     14  C   UNL     1      99.904 127.934  83.513  0.00  0.00    +0.000 A 
ATOM     15  C   UNL     1     100.102 126.761  82.783  0.00  0.00    +0.000 A 
ATOM     16  C   UNL     1     101.372 126.456  82.292  0.00  0.00    +0.000 A 
ATOM     17 CL   UNL     1      98.337 128.306  84.120  0.00  0.00    +0.000 Cl
ENDBRANCH  10  11
ENDBRANCH   1  10
TORSDOF 3
ENDMDL
