MODEL 1
REMARK VINA RESULT:      -4.3      0.000      0.000
REMARK  Name = *****
REMARK  6 active torsions:
REMARK  status: ('A' for Active; 'I' for Inactive)
REMARK    1  A    between atoms: C_1  and  C_2
REMARK    2  A    between atoms: C_2  and  P_3
REMARK    3  A    between atoms: P_3  and  O_4
REMARK    4  A    between atoms: P_3  and  O_11
REMARK    5  A    between atoms: O_4  and  C_5
REMARK    6  A    between atoms: O_11  and  C_12
REMARK                            x       y       z     vdW  Elec       q    Type
REMARK                         _______ _______ _______ _____ _____    ______ ____
ROOT
ATOM      1  P   UNL     1      89.131  69.135  86.369  0.00  0.00    +0.000 P 
ENDROOT
BRANCH   1   3
ATOM      2  C   UNL     1      90.166  69.630  83.811  0.00  0.00    +0.000 C 
ATOM      3  C   UNL     1      90.062  70.229  85.204  0.00  0.00    +0.000 C 
ENDBRANCH   1   3
BRANCH   1   4
ATOM      4  O   UNL     1      90.270  68.009  86.591  0.00  0.00    +0.000 OA
BRANCH   4   5
ATOM      5  C   UNL     1      90.140  66.668  86.335  0.00  0.00    +0.000 A 
ATOM      6  C   UNL     1      91.116  66.116  85.500  0.00  0.00    +0.000 A 
ATOM      7  C   UNL     1      91.089  64.759  85.179  0.00  0.00    +0.000 A 
ATOM      8  C   UNL     1      90.089  63.941  85.702  0.00  0.00    +0.000 A 
ATOM      9  C   UNL     1      89.121  64.481  86.547  0.00  0.00    +0.000 A 
ATOM     10  C   UNL     1      89.147  65.842  86.867  0.00  0.00    +0.000 A 
ENDBRANCH   4   5
ENDBRANCH   1   4
BRANCH   1  11
ATOM     11  O   UNL     1      89.357  69.976  87.731  0.00  0.00    +0.000 OA
BRANCH  11  12
ATOM     12  C   UNL     1      88.391  70.611  88.468  0.00  0.00    +0.000 A 
ATOM     13  C   UNL     1      88.529  71.037  89.792  0.00  0.00    +0.000 A 
ATOM     14  C   UNL     1      87.468  71.679  90.436  0.00  0.00    +0.000 A 
ATOM     15  C   UNL     1      86.267  71.899  89.762  0.00  0.00    +0.000 A 
ATOM     16  C   UNL     1      86.125  71.479  88.442  0.00  0.00    +0.000 A 
ATOM     17  C   UNL     1      87.185  70.838  87.798  0.00  0.00    +0.000 A 
ENDBRANCH  11  12
ENDBRANCH   1  11
TORSDOF 5
ENDMDL
