MODEL 1
REMARK VINA RESULT:      -4.7      0.000      0.000
REMARK  Name = *****
REMARK  4 active torsions:
REMARK  status: ('A' for Active; 'I' for Inactive)
REMARK    1  A    between atoms: C_4  and  C_7
REMARK    2  A    between atoms: C_7  and  O_8
REMARK    3  A    between atoms: O_8  and  C_9
REMARK    4  A    between atoms: C_12  and  C_15
REMARK                            x       y       z     vdW  Elec       q    Type
REMARK                         _______ _______ _______ _____ _____    ______ ____
ROOT
ATOM      1  C   UNL     1     103.723 126.296  81.945  0.00  0.00    +0.000 A 
ATOM      2  C   UNL     1     103.898 126.077  80.576  0.00  0.00    +0.000 A 
ATOM      3  C   UNL     1     104.269 124.827  80.084  0.00  0.00    +0.000 A 
ATOM      4  C   UNL     1     104.496 123.764  80.966  0.00  0.00    +0.000 A 
ATOM      5  C   UNL     1     104.335 123.985  82.343  0.00  0.00    +0.000 A 
ATOM      6  C   UNL     1     103.957 125.243  82.830  0.00  0.00    +0.000 A 
ATOM      7  F   UNL     1     103.689 127.073  79.703  0.00  0.00    +0.000 F 
ENDROOT
BRANCH   4   8
ATOM      8  C   UNL     1     104.877 122.407  80.446  0.00  0.00    +0.000 C 
ATOM      9 CL   UNL     1     104.590 121.167  81.684  0.00  0.00    +0.000 Cl
ENDBRANCH   4   8
BRANCH   1  10
ATOM     10  O   UNL     1     103.358 127.563  82.311  0.00  0.00    +0.000 OA
BRANCH  10  11
ATOM     11  C   UNL     1     102.647 127.684  83.544  0.00  0.00    +0.000 C 
BRANCH  11  15
ATOM     12  C   UNL     1      98.411 127.944  82.721  0.00  0.00    +0.000 A 
ATOM     13  C   UNL     1      99.062 129.013  83.334  0.00  0.00    +0.000 A 
ATOM     14  C   UNL     1     100.428 128.934  83.614  0.00  0.00    +0.000 A 
ATOM     15  C   UNL     1     101.157 127.778  83.297  0.00  0.00    +0.000 A 
ATOM     16  C   UNL     1     100.491 126.714  82.670  0.00  0.00    +0.000 A 
ATOM     17  C   UNL     1      99.125 126.796  82.388  0.00  0.00    +0.000 A 
ENDBRANCH  11  15
ENDBRANCH  10  11
ENDBRANCH   1  10
TORSDOF 4
ENDMDL
