REMARK  Name = *****
REMARK  3 active torsions:
REMARK  status: ('A' for Active; 'I' for Inactive)
REMARK    1  A    between atoms: C_4  and  O_7
REMARK    2  A    between atoms: O_7  and  C_8
REMARK    3  A    between atoms: C_8  and  C_9
REMARK                            x       y       z     vdW  Elec       q    Type
REMARK                         _______ _______ _______ _____ _____    ______ ____
ROOT
ATOM      1  C   UNL     1      -3.625  -0.717  -0.358  0.00  0.00    +0.000 C 
ENDROOT
BRANCH   1   2
ATOM      2  C   UNL     1      -5.010  -0.132  -0.507  0.00  0.00    +0.000 A 
ATOM      3  C   UNL     1      -5.435   0.434  -1.724  0.00  0.00    +0.000 A 
ATOM      4  C   UNL     1      -6.712   0.993  -1.856  0.00  0.00    +0.000 A 
ATOM      5  C   UNL     1      -7.586   1.012  -0.774  0.00  0.00    +0.000 A 
ATOM      6  C   UNL     1      -7.179   0.477   0.444  0.00  0.00    +0.000 A 
ATOM      7  C   UNL     1      -5.903  -0.084   0.580  0.00  0.00    +0.000 A 
ATOM      8 CL   UNL     1      -5.488  -0.702   2.142  0.00  0.00    +0.000 Cl
ATOM      9 CL   UNL     1      -4.418   0.481  -3.124  0.00  0.00    +0.000 Cl
ENDBRANCH   1   2
BRANCH   1  10
ATOM     10  O   UNL     1      -2.751   0.331   0.053  0.00  0.00    +0.000 OA
BRANCH  10  14
ATOM     11  C   UNL     1       1.310  -0.358   0.672  0.00  0.00    +0.000 A 
ATOM     12  C   UNL     1       0.513  -1.428   0.269  0.00  0.00    +0.000 A 
ATOM     13  C   UNL     1      -0.857  -1.245   0.049  0.00  0.00    +0.000 A 
ATOM     14  C   UNL     1      -1.433   0.013   0.233  0.00  0.00    +0.000 A 
ATOM     15  C   UNL     1      -0.627   1.080   0.637  0.00  0.00    +0.000 A 
ATOM     16  C   UNL     1       0.739   0.898   0.857  0.00  0.00    +0.000 A 
ENDBRANCH  10  14
ENDBRANCH   1  10
TORSDOF 3
