REMARK  Name = *****
REMARK  1 active torsions:
REMARK  status: ('A' for Active; 'I' for Inactive)
REMARK    1  A    between atoms: C_5  and  C_6
REMARK                            x       y       z     vdW  Elec       q    Type
REMARK                         _______ _______ _______ _____ _____    ______ ____
ROOT
ATOM      1  C   UNL     1       1.198  -2.077  -1.035  0.00  0.00    +0.000 C 
ATOM      2  C   UNL     1       1.710  -3.355  -0.333  0.00  0.00    +0.000 C 
ATOM      3  C   UNL     1       3.231  -3.123  -0.363  0.00  0.00    +0.000 C 
ATOM      4  C   UNL     1       3.177  -1.763   0.363  0.00  0.00    +0.000 C 
ATOM      5  C   UNL     1       2.176  -0.962  -0.522  0.00  0.00    +0.000 C 
ATOM      6  C   UNL     1       2.411  -2.214   1.588  0.00  0.00    +0.000 A 
ATOM      7  C   UNL     1       2.459  -1.801   2.901  0.00  0.00    +0.000 A 
ATOM      8  C   UNL     1       1.568  -2.401   3.794  0.00  0.00    +0.000 A 
ATOM      9  C   UNL     1       0.651  -3.380   3.359  0.00  0.00    +0.000 A 
ATOM     10  C   UNL     1       0.605  -3.782   2.021  0.00  0.00    +0.000 A 
ATOM     11  C   UNL     1       1.496  -3.191   1.153  0.00  0.00    +0.000 A 
ENDROOT
BRANCH   5  12
ATOM     12  C   UNL     1       2.883  -0.113  -1.561  0.00  0.00    +0.000 A 
ATOM     13  C   UNL     1       3.257  -0.583  -2.828  0.00  0.00    +0.000 A 
ATOM     14  C   UNL     1       3.927   0.247  -3.731  0.00  0.00    +0.000 A 
ATOM     15  C   UNL     1       4.242   1.557  -3.381  0.00  0.00    +0.000 A 
ATOM     16  C   UNL     1       3.890   2.038  -2.124  0.00  0.00    +0.000 A 
ATOM     17  C   UNL     1       3.220   1.210  -1.222  0.00  0.00    +0.000 A 
ENDBRANCH   5  12
TORSDOF 1
