REMARK  Name = *****
REMARK  3 active torsions:
REMARK  status: ('A' for Active; 'I' for Inactive)
REMARK    1  A    between atoms: C_4  and  O_8
REMARK    2  A    between atoms: O_8  and  C_9
REMARK    3  A    between atoms: C_9  and  C_10
REMARK                            x       y       z     vdW  Elec       q    Type
REMARK                         _______ _______ _______ _____ _____    ______ ____
ROOT
ATOM      1  O   UNL     1      -0.022   1.445   1.661  0.00  0.00    +0.000 OA
ENDROOT
BRANCH   1   5
ATOM      2  C   UNL     1       0.685  -1.573  -0.310  0.00  0.00    +0.000 C 
ATOM      3  C   UNL     1       1.616  -0.482   0.213  0.00  0.00    +0.000 C 
ATOM      4  C   UNL     1       1.295   0.927  -0.289  0.00  0.00    +0.000 C 
ATOM      5  C   UNL     1      -0.009   1.543   0.236  0.00  0.00    +0.000 C 
ATOM      6  C   UNL     1      -1.246   0.915  -0.345  0.00  0.00    +0.000 C 
ATOM      7  C   UNL     1      -1.565  -0.387  -0.351  0.00  0.00    +0.000 C 
ATOM      8  C   UNL     1      -0.740  -1.494   0.232  0.00  0.00    +0.000 C 
ENDBRANCH   1   5
BRANCH   1   9
ATOM      9  C   UNL     1      -0.914   2.366   2.286  0.00  0.00    +0.000 C 
BRANCH   9  10
ATOM     10  C   UNL     1      -0.855   2.203   3.785  0.00  0.00    +0.000 A 
ATOM     11  C   UNL     1      -0.961   3.322   4.623  0.00  0.00    +0.000 A 
ATOM     12  C   UNL     1      -0.948   3.174   6.012  0.00  0.00    +0.000 A 
ATOM     13  C   UNL     1      -0.839   1.906   6.578  0.00  0.00    +0.000 A 
ATOM     14  C   UNL     1      -0.746   0.784   5.757  0.00  0.00    +0.000 A 
ATOM     15  C   UNL     1      -0.760   0.931   4.369  0.00  0.00    +0.000 A 
ENDBRANCH   9  10
ENDBRANCH   1   9
TORSDOF 3
