MODEL 1
REMARK VINA RESULT:      -4.0      0.000      0.000
REMARK  Name = *****
REMARK  3 active torsions:
REMARK  status: ('A' for Active; 'I' for Inactive)
REMARK    1  A    between atoms: C_1  and  C_2
REMARK    2  A    between atoms: C_5  and  C_7
REMARK    3  A    between atoms: C_8  and  C_9
REMARK                            x       y       z     vdW  Elec       q    Type
REMARK                         _______ _______ _______ _____ _____    ______ ____
ROOT
ATOM      1  C   UNL     1     101.590 126.102  82.638  0.00  0.00    +0.000 C 
ATOM      2  C   UNL     1     102.374 126.115  81.548  0.00  0.00    +0.000 C 
ENDROOT
BRANCH   1   7
ATOM      3  C   UNL     1      99.458 130.322  83.792  0.00  0.00    +0.000 C 
ATOM      4  C   UNL     1      99.480 128.936  83.287  0.00  0.00    +0.000 A 
ATOM      5  C   UNL     1      98.516 128.089  82.796  0.00  0.00    +0.000 A 
ATOM      6  C   UNL     1      99.185 126.884  82.478  0.00  0.00    +0.000 A 
ATOM      7  C   UNL     1     100.532 127.042  82.787  0.00  0.00    +0.000 A 
ATOM      8  O   UNL     1     100.689 128.317  83.286  0.00  0.00    +0.000 OA
ENDBRANCH   1   7
BRANCH   2   9
ATOM      9  C   UNL     1     103.444 125.190  81.358  0.00  0.00    +0.000 A 
ATOM     10  C   UNL     1     104.144 124.820  80.218  0.00  0.00    +0.000 A 
ATOM     11  C   UNL     1     105.157 123.847  80.467  0.00  0.00    +0.000 A 
ATOM     12  C   UNL     1     105.211 123.492  81.792  0.00  0.00    +0.000 A 
ATOM     13  S   UNL     1     104.050 124.324  82.726  0.00  0.00    +0.000 S 
ENDBRANCH   2   9
TORSDOF 2
ENDMDL
