MODEL 1
REMARK VINA RESULT:      -5.2      0.000      0.000
REMARK  Name = *****
REMARK  4 active torsions:
REMARK  status: ('A' for Active; 'I' for Inactive)
REMARK    1  A    between atoms: C_1  and  C_2
REMARK    2  A    between atoms: C_4  and  C_18
REMARK    3  A    between atoms: C_5  and  C_9
REMARK    4  A    between atoms: C_6  and  C_8
REMARK                            x       y       z     vdW  Elec       q    Type
REMARK                         _______ _______ _______ _____ _____    ______ ____
ROOT
ATOM      1  C   UNL     1      99.005 131.029  84.968  0.00  0.00    +0.000 C 
ATOM      2  C   UNL     1      99.847 129.978  84.308  0.00  0.00    +0.000 A 
ATOM      3  C   UNL     1     101.240 130.029  84.393  0.00  0.00    +0.000 A 
ATOM      4  C   UNL     1     102.043 129.039  83.797  0.00  0.00    +0.000 A 
ATOM      5  C   UNL     1     101.436 127.954  83.119  0.00  0.00    +0.000 A 
ATOM      6  C   UNL     1     100.022 127.880  83.068  0.00  0.00    +0.000 A 
ATOM      7  C   UNL     1      99.248 128.899  83.655  0.00  0.00    +0.000 A 
ATOM      8  C   UNL     1      99.296 126.744  82.392  0.00  0.00    +0.000 C 
ATOM      9  C   UNL     1     103.540 129.169  83.919  0.00  0.00    +0.000 C 
ENDROOT
BRANCH   5  10
ATOM     10  C   UNL     1     102.271 126.920  82.501  0.00  0.00    +0.000 A 
ATOM     11  N   UNL     1     102.678 126.807  81.248  0.00  0.00    +0.000 NA
ATOM     12  C   UNL     1     103.389 125.635  81.239  0.00  0.00    +0.000 A 
ATOM     13  C   UNL     1     104.074 124.979  80.208  0.00  0.00    +0.000 A 
ATOM     14  C   UNL     1     104.717 123.769  80.507  0.00  0.00    +0.000 A 
ATOM     15  C   UNL     1     104.678 123.227  81.799  0.00  0.00    +0.000 A 
ATOM     16  C   UNL     1     103.997 123.871  82.840  0.00  0.00    +0.000 A 
ATOM     17  C   UNL     1     103.375 125.066  82.501  0.00  0.00    +0.000 A 
ATOM     18  O   UNL     1     102.652 125.883  83.318  0.00  0.00    +0.000 OA
ENDBRANCH   5  10
TORSDOF 1
ENDMDL
