REMARK  Name = *****
REMARK  1 active torsions:
REMARK  status: ('A' for Active; 'I' for Inactive)
REMARK    1  A    between atoms: N_9  and  C_10
REMARK                            x       y       z     vdW  Elec       q    Type
REMARK                         _______ _______ _______ _____ _____    ______ ____
ROOT
ATOM      1  C   UNL     1      -1.936   0.428   0.335  0.00  0.00    +0.000 C 
ATOM      2  C   UNL     1      -0.446   0.392   0.145  0.00  0.00    +0.000 A 
ATOM      3  C   UNL     1       0.421   1.473   0.278  0.00  0.00    +0.000 A 
ATOM      4  C   UNL     1       1.787   1.271   0.066  0.00  0.00    +0.000 A 
ATOM      5  C   UNL     1       2.274   0.002  -0.274  0.00  0.00    +0.000 A 
ATOM      6  C   UNL     1       1.399  -1.078  -0.406  0.00  0.00    +0.000 A 
ATOM      7  C   UNL     1       0.045  -0.867  -0.194  0.00  0.00    +0.000 A 
ATOM      8  S   UNL     1      -1.256  -2.058  -0.300  0.00  0.00    +0.000 S 
ATOM      9  N   UNL     1      -2.445  -0.934   0.093  0.00  0.00    +0.000 N 
ENDROOT
BRANCH   9  10
ATOM     10  C   UNL     1      -3.817  -1.225   0.187  0.00  0.00    +0.000 A 
ATOM     11  C   UNL     1      -4.762  -0.238   0.529  0.00  0.00    +0.000 A 
ATOM     12  C   UNL     1      -6.132  -0.518   0.625  0.00  0.00    +0.000 A 
ATOM     13  C   UNL     1      -6.601  -1.801   0.380  0.00  0.00    +0.000 A 
ATOM     14  C   UNL     1      -5.699  -2.801   0.041  0.00  0.00    +0.000 A 
ATOM     15  C   UNL     1      -4.331  -2.513  -0.053  0.00  0.00    +0.000 A 
ENDBRANCH   9  10
TORSDOF 1
