MODEL 1
REMARK VINA RESULT:      -5.2      0.000      0.000
REMARK  Name = *****
REMARK  2 active torsions:
REMARK  status: ('A' for Active; 'I' for Inactive)
REMARK    1  A    between atoms: C_4  and  C_7
REMARK    2  A    between atoms: C_8  and  C_9
REMARK                            x       y       z     vdW  Elec       q    Type
REMARK                         _______ _______ _______ _____ _____    ______ ____
ROOT
ATOM      1  C   UNL     1     103.906 124.925  81.728  0.00  0.00    +0.000 A 
ATOM      2  C   UNL     1     104.219 123.825  82.540  0.00  0.00    +0.000 A 
ATOM      3  C   UNL     1     105.062 122.810  82.089  0.00  0.00    +0.000 A 
ATOM      4  C   UNL     1     105.602 122.867  80.813  0.00  0.00    +0.000 A 
ATOM      5  C   UNL     1     105.295 123.933  79.985  0.00  0.00    +0.000 A 
ATOM      6  C   UNL     1     104.453 124.947  80.435  0.00  0.00    +0.000 A 
ATOM      7  F   UNL     1     104.170 125.963  79.604  0.00  0.00    +0.000 F 
ATOM      8  F   UNL     1     105.806 123.987  78.746  0.00  0.00    +0.000 F 
ATOM      9  F   UNL     1     106.410 121.888  80.382  0.00  0.00    +0.000 F 
ATOM     10  F   UNL     1     105.345 121.773  82.889  0.00  0.00    +0.000 F 
ATOM     11  F   UNL     1     103.698 123.713  83.772  0.00  0.00    +0.000 F 
ENDROOT
BRANCH   1  13
ATOM     12  C   UNL     1     101.663 125.938  82.185  0.00  0.00    +0.000 C 
ATOM     13  C   UNL     1     103.003 126.019  82.132  0.00  0.00    +0.000 C 
BRANCH  12  17
ATOM     14  C   UNL     1      99.200 129.162  83.551  0.00  0.00    +0.000 A 
ATOM     15  C   UNL     1      98.613 128.079  82.901  0.00  0.00    +0.000 A 
ATOM     16  C   UNL     1      99.404 127.021  82.443  0.00  0.00    +0.000 A 
ATOM     17  C   UNL     1     100.794 127.043  82.621  0.00  0.00    +0.000 A 
ATOM     18  C   UNL     1     101.370 128.130  83.292  0.00  0.00    +0.000 A 
ATOM     19  C   UNL     1     100.579 129.186  83.750  0.00  0.00    +0.000 A 
ENDBRANCH  12  17
ENDBRANCH   1  13
TORSDOF 2
ENDMDL
