MODEL 1
REMARK VINA RESULT:      -5.1      0.000      0.000
REMARK  Name = *****
REMARK  2 active torsions:
REMARK  status: ('A' for Active; 'I' for Inactive)
REMARK    1  A    between atoms: C_1  and  C_2
REMARK    2  A    between atoms: C_2  and  C_8
REMARK                            x       y       z     vdW  Elec       q    Type
REMARK                         _______ _______ _______ _____ _____    ______ ____
ROOT
ATOM      1  C   UNL     1     102.504 126.498  82.167  0.00  0.00    +0.000 A 
ATOM      2  C   UNL     1     103.001 125.180  82.202  0.00  0.00    +0.000 A 
ATOM      3  C   UNL     1     103.965 124.715  81.283  0.00  0.00    +0.000 A 
ATOM      4  C   UNL     1     104.450 123.397  81.334  0.00  0.00    +0.000 A 
ATOM      5  C   UNL     1     105.407 122.950  80.421  0.00  0.00    +0.000 A 
ATOM      6  C   UNL     1     105.893 123.815  79.446  0.00  0.00    +0.000 A 
ATOM      7  C   UNL     1     105.420 125.126  79.380  0.00  0.00    +0.000 A 
ATOM      8  C   UNL     1     104.455 125.587  80.292  0.00  0.00    +0.000 A 
ATOM      9  C   UNL     1     103.965 126.897  80.238  0.00  0.00    +0.000 A 
ATOM     10  C   UNL     1     103.007 127.340  81.155  0.00  0.00    +0.000 A 
ENDROOT
BRANCH   1  12
ATOM     11  C   UNL     1     101.491 126.262  84.524  0.00  0.00    +0.000 C 
ATOM     12  C   UNL     1     101.465 127.031  83.183  0.00  0.00    +0.000 C 
ATOM     13  C   UNL     1     101.737 128.539  83.437  0.00  0.00    +0.000 C 
ATOM     14  C   UNL     1     100.722 129.263  84.320  0.00  0.00    +0.000 C 
ATOM     15  C   UNL     1      99.307 129.213  83.755  0.00  0.00    +0.000 C 
ATOM     16  C   UNL     1      98.769 127.799  83.604  0.00  0.00    +0.000 C 
ATOM     17  S   UNL     1      99.763 126.796  82.464  0.00  0.00    +0.000 S 
ENDBRANCH   1  12
TORSDOF 1
ENDMDL
