MODEL 1
REMARK VINA RESULT:      -5.0      0.000      0.000
REMARK  Name = *****
REMARK  4 active torsions:
REMARK  status: ('A' for Active; 'I' for Inactive)
REMARK    1  A    between atoms: C_4  and  O_7
REMARK    2  A    between atoms: O_7  and  C_8
REMARK    3  A    between atoms: C_8  and  C_10
REMARK    4  A    between atoms: C_12  and  C_16
REMARK                            x       y       z     vdW  Elec       q    Type
REMARK                         _______ _______ _______ _____ _____    ______ ____
ROOT
ATOM      1  C   UNL     1     103.523 124.985  82.281  0.00  0.00    +0.000 A 
ATOM      2  C   UNL     1     103.937 123.646  82.364  0.00  0.00    +0.000 A 
ATOM      3  C   UNL     1     104.618 123.038  81.293  0.00  0.00    +0.000 A 
ATOM      4  C   UNL     1     104.862 123.783  80.130  0.00  0.00    +0.000 A 
ATOM      5  C   UNL     1     104.452 125.113  80.042  0.00  0.00    +0.000 A 
ATOM      6  C   UNL     1     103.788 125.712  81.112  0.00  0.00    +0.000 A 
ENDROOT
BRANCH   3   7
ATOM      7  C   UNL     1     105.042 121.591  81.382  0.00  0.00    +0.000 C 
ATOM      8  F   UNL     1     105.261 121.182  82.662  0.00  0.00    +0.000 F 
ATOM      9  F   UNL     1     104.104 120.747  80.874  0.00  0.00    +0.000 F 
ATOM     10  F   UNL     1     106.194 121.327  80.705  0.00  0.00    +0.000 F 
ENDBRANCH   3   7
BRANCH   1  11
ATOM     11  C   UNL     1     102.806 125.680  83.388  0.00  0.00    +0.000 C 
ATOM     12  O   UNL     1     102.465 125.116  84.416  0.00  0.00    +0.000 OA
BRANCH  11  13
ATOM     13  O   UNL     1     102.605 127.006  83.052  0.00  0.00    +0.000 OA
BRANCH  13  17
ATOM     14  C   UNL     1      98.642 128.321  82.996  0.00  0.00    +0.000 A 
ATOM     15  C   UNL     1      98.959 127.091  82.414  0.00  0.00    +0.000 A 
ATOM     16  C   UNL     1     100.280 126.640  82.411  0.00  0.00    +0.000 A 
ATOM     17  C   UNL     1     101.274 127.438  82.976  0.00  0.00    +0.000 A 
ATOM     18  C   UNL     1     100.964 128.657  83.577  0.00  0.00    +0.000 A 
ATOM     19  C   UNL     1      99.642 129.101  83.580  0.00  0.00    +0.000 A 
ENDBRANCH  13  17
ENDBRANCH  11  13
ENDBRANCH   1  11
TORSDOF 4
ENDMDL
