MODEL 1
REMARK VINA RESULT:      -4.4      0.000      0.000
REMARK  Name = *****
REMARK  4 active torsions:
REMARK  status: ('A' for Active; 'I' for Inactive)
REMARK    1  A    between atoms: C_1  and  C_2
REMARK    2  A    between atoms: C_3  and  O_9
REMARK    3  A    between atoms: O_9  and  C_10
REMARK    4  A    between atoms: C_10  and  C_11
REMARK                            x       y       z     vdW  Elec       q    Type
REMARK                         _______ _______ _______ _____ _____    ______ ____
ROOT
ATOM      1  O   UNL     1      90.237  68.262  86.705  0.00  0.00    +0.000 OA
ENDROOT
BRANCH   1   4
ATOM      2  C   UNL     1      87.604  66.653  87.718  0.00  0.00    +0.000 C 
ATOM      3  C   UNL     1      88.722  66.247  86.800  0.00  0.00    +0.000 A 
ATOM      4  C   UNL     1      89.844  66.992  86.401  0.00  0.00    +0.000 A 
ATOM      5  C   UNL     1      90.789  66.394  85.540  0.00  0.00    +0.000 A 
ATOM      6  C   UNL     1      90.646  65.089  85.069  0.00  0.00    +0.000 A 
ATOM      7  C   UNL     1      89.543  64.354  85.456  0.00  0.00    +0.000 A 
ATOM      8  C   UNL     1      88.595  64.921  86.307  0.00  0.00    +0.000 A 
ATOM      9 CL   UNL     1      89.338  62.742  84.895  0.00  0.00    +0.000 Cl
ENDBRANCH   1   4
BRANCH   1  10
ATOM     10  C   UNL     1      89.746  69.390  86.002  0.00  0.00    +0.000 C 
BRANCH  10  11
ATOM     11  C   UNL     1      88.685  70.104  86.820  0.00  0.00    +0.000 A 
ATOM     12  C   UNL     1      87.550  70.623  86.176  0.00  0.00    +0.000 A 
ATOM     13  C   UNL     1      86.534  71.239  86.911  0.00  0.00    +0.000 A 
ATOM     14  C   UNL     1      86.641  71.332  88.297  0.00  0.00    +0.000 A 
ATOM     15  C   UNL     1      87.754  70.812  88.953  0.00  0.00    +0.000 A 
ATOM     16  C   UNL     1      88.768  70.195  88.218  0.00  0.00    +0.000 A 
ATOM     17 CL   UNL     1      85.387  72.086  89.203  0.00  0.00    +0.000 Cl
ENDBRANCH  10  11
ENDBRANCH   1  10
TORSDOF 3
ENDMDL
