MODEL 1
REMARK VINA RESULT:      -4.3      0.000      0.000
REMARK  Name = *****
REMARK  4 active torsions:
REMARK  status: ('A' for Active; 'I' for Inactive)
REMARK    1  A    between atoms: C_1  and  C_2
REMARK    2  A    between atoms: C_5  and  C_8
REMARK    3  A    between atoms: C_8  and  O_10
REMARK    4  A    between atoms: O_10  and  C_11
REMARK                            x       y       z     vdW  Elec       q    Type
REMARK                         _______ _______ _______ _____ _____    ______ ____
ROOT
ATOM      1  C   UNL     1     105.014 123.959  80.074  0.00  0.00    +0.000 C 
ATOM      2  O   UNL     1     105.900 123.844  79.244  0.00  0.00    +0.000 OA
ENDROOT
BRANCH   1   7
ATOM      3  C   UNL     1     104.063 119.995  84.202  0.00  0.00    +0.000 C 
ATOM      4  C   UNL     1     104.338 121.027  83.148  0.00  0.00    +0.000 A 
ATOM      5  C   UNL     1     104.376 122.386  83.483  0.00  0.00    +0.000 A 
ATOM      6  C   UNL     1     104.598 123.354  82.499  0.00  0.00    +0.000 A 
ATOM      7  C   UNL     1     104.773 122.973  81.163  0.00  0.00    +0.000 A 
ATOM      8  C   UNL     1     104.721 121.614  80.825  0.00  0.00    +0.000 A 
ATOM      9  C   UNL     1     104.498 120.649  81.811  0.00  0.00    +0.000 A 
ENDBRANCH   1   7
BRANCH   1  10
ATOM     10  O   UNL     1     104.119 124.975  80.148  0.00  0.00    +0.000 OA
BRANCH  10  11
ATOM     11  C   UNL     1     104.679 126.287  80.075  0.00  0.00    +0.000 C 
ATOM     12  C   UNL     1     105.638 126.591  81.243  0.00  0.00    +0.000 C 
ATOM     13  C   UNL     1     105.008 127.839  81.889  0.00  0.00    +0.000 C 
ATOM     14  C   UNL     1     103.741 127.412  82.649  0.00  0.00    +0.000 C 
ATOM     15  C   UNL     1     102.753 127.094  81.517  0.00  0.00    +0.000 C 
ATOM     16  C   UNL     1     103.586 127.364  80.250  0.00  0.00    +0.000 C 
ATOM     17  C   UNL     1     104.421 128.569  80.680  0.00  0.00    +0.000 C 
ENDBRANCH  10  11
ENDBRANCH   1  10
TORSDOF 3
ENDMDL
