MODEL 1
REMARK VINA RESULT:      -4.7      0.000      0.000
REMARK  Name = *****
REMARK  5 active torsions:
REMARK  status: ('A' for Active; 'I' for Inactive)
REMARK    1  A    between atoms: C_1  and  C_2
REMARK    2  A    between atoms: C_2  and  O_3
REMARK    3  A    between atoms: O_3  and  C_4
REMARK    4  A    between atoms: C_7  and  C_10
REMARK    5  A    between atoms: C_11  and  C_12
REMARK                            x       y       z     vdW  Elec       q    Type
REMARK                         _______ _______ _______ _____ _____    ______ ____
ROOT
ATOM      1  C   UNL     1     105.801 123.199  80.433  0.00  0.00    +0.000 A 
ATOM      2  C   UNL     1     105.627 124.295  79.590  0.00  0.00    +0.000 A 
ATOM      3  C   UNL     1     104.636 125.247  79.866  0.00  0.00    +0.000 A 
ATOM      4  C   UNL     1     103.798 125.111  80.980  0.00  0.00    +0.000 A 
ATOM      5  C   UNL     1     103.989 124.016  81.829  0.00  0.00    +0.000 A 
ATOM      6  C   UNL     1     104.978 123.067  81.553  0.00  0.00    +0.000 A 
ENDROOT
BRANCH   4   7
ATOM      7  C   UNL     1     102.772 126.106  81.322  0.00  0.00    +0.000 C 
ATOM      8  C   UNL     1     101.975 126.022  82.399  0.00  0.00    +0.000 C 
BRANCH   8   9
ATOM      9  C   UNL     1     100.957 127.026  82.747  0.00  0.00    +0.000 A 
ATOM     10  C   UNL     1     101.284 128.237  83.373  0.00  0.00    +0.000 A 
ATOM     11  C   UNL     1     100.293 129.180  83.658  0.00  0.00    +0.000 A 
ATOM     12  C   UNL     1      98.968 128.927  83.313  0.00  0.00    +0.000 A 
ATOM     13  C   UNL     1      98.633 127.734  82.675  0.00  0.00    +0.000 A 
ATOM     14  C   UNL     1      99.623 126.791  82.390  0.00  0.00    +0.000 A 
ENDBRANCH   8   9
ENDBRANCH   4   7
BRANCH   1  15
ATOM     15  O   UNL     1     106.726 122.204  80.282  0.00  0.00    +0.000 OA
BRANCH  15  17
ATOM     16  C   UNL     1     108.047 120.453  81.212  0.00  0.00    +0.000 C 
ATOM     17  C   UNL     1     106.692 121.138  81.229  0.00  0.00    +0.000 C 
ENDBRANCH  15  17
ENDBRANCH   1  15
TORSDOF 4
ENDMDL
