MODEL 1
REMARK VINA RESULT:      -4.7      0.000      0.000
REMARK  Name = *****
REMARK  4 active torsions:
REMARK  status: ('A' for Active; 'I' for Inactive)
REMARK    1  A    between atoms: C_1  and  C_2
REMARK    2  A    between atoms: C_3  and  C_4
REMARK    3  A    between atoms: C_3  and  C_10
REMARK    4  A    between atoms: C_10  and  C_12
REMARK                            x       y       z     vdW  Elec       q    Type
REMARK                         _______ _______ _______ _____ _____    ______ ____
ROOT
ATOM      1  C   UNL     1      85.344  71.899  87.459  0.00  0.00    +0.000 C 
ATOM      2  C   UNL     1      86.582  71.161  87.057  0.00  0.00    +0.000 C 
ATOM      3  C   UNL     1      87.576  70.706  87.850  0.00  0.00    +0.000 C 
ENDROOT
BRANCH   3   4
ATOM      4  C   UNL     1      87.568  70.879  89.316  0.00  0.00    +0.000 A 
ATOM      5  C   UNL     1      88.379  71.840  89.937  0.00  0.00    +0.000 A 
ATOM      6  C   UNL     1      88.347  72.004  91.323  0.00  0.00    +0.000 A 
ATOM      7  C   UNL     1      87.506  71.211  92.100  0.00  0.00    +0.000 A 
ATOM      8  C   UNL     1      86.696  70.252  91.493  0.00  0.00    +0.000 A 
ATOM      9  C   UNL     1      86.727  70.086  90.107  0.00  0.00    +0.000 A 
ENDBRANCH   3   4
BRANCH   3  10
ATOM     10  C   UNL     1      88.759  70.103  87.134  0.00  0.00    +0.000 C 
ATOM     11  O   UNL     1      89.663  70.798  86.675  0.00  0.00    +0.000 OA
BRANCH  10  12
ATOM     12  C   UNL     1      88.856  68.627  87.010  0.00  0.00    +0.000 A 
ATOM     13  C   UNL     1      89.972  68.089  86.357  0.00  0.00    +0.000 A 
ATOM     14  C   UNL     1      90.094  66.707  86.204  0.00  0.00    +0.000 A 
ATOM     15  C   UNL     1      89.096  65.861  86.690  0.00  0.00    +0.000 A 
ATOM     16  C   UNL     1      87.972  66.395  87.319  0.00  0.00    +0.000 A 
ATOM     17  C   UNL     1      87.846  67.778  87.474  0.00  0.00    +0.000 A 
ENDBRANCH  10  12
ENDBRANCH   3  10
TORSDOF 3
ENDMDL
