MODEL 1
REMARK VINA RESULT:      -4.7      0.000      0.000
REMARK  Name = *****
REMARK  3 active torsions:
REMARK  status: ('A' for Active; 'I' for Inactive)
REMARK    1  A    between atoms: C_3  and  C_8
REMARK    2  A    between atoms: C_8  and  C_9
REMARK    3  A    between atoms: C_9  and  C_10
REMARK                            x       y       z     vdW  Elec       q    Type
REMARK                         _______ _______ _______ _____ _____    ______ ____
ROOT
ATOM      1  C   UNL     1     102.841 127.432  82.599  0.00  0.00    +0.000 C 
ENDROOT
BRANCH   1   4
ATOM      2  C   UNL     1      99.587 128.999  83.831  0.00  0.00    +0.000 A 
ATOM      3  C   UNL     1     100.946 128.789  83.579  0.00  0.00    +0.000 A 
ATOM      4  C   UNL     1     101.373 127.668  82.851  0.00  0.00    +0.000 A 
ATOM      5  C   UNL     1     100.416 126.755  82.388  0.00  0.00    +0.000 A 
ATOM      6  C   UNL     1      99.067 126.974  82.645  0.00  0.00    +0.000 A 
ATOM      7  C   UNL     1      98.644 128.087  83.361  0.00  0.00    +0.000 A 
ATOM      8  F   UNL     1      98.159 126.095  82.196  0.00  0.00    +0.000 F 
ENDBRANCH   1   4
BRANCH   1   9
ATOM      9  C   UNL     1     103.071 126.614  81.325  0.00  0.00    +0.000 C 
BRANCH   9  10
ATOM     10  C   UNL     1     103.662 125.260  81.632  0.00  0.00    +0.000 A 
ATOM     11  C   UNL     1     104.158 124.451  80.601  0.00  0.00    +0.000 A 
ATOM     12  C   UNL     1     104.684 123.197  80.895  0.00  0.00    +0.000 A 
ATOM     13  C   UNL     1     104.724 122.724  82.201  0.00  0.00    +0.000 A 
ATOM     14  C   UNL     1     104.230 123.519  83.233  0.00  0.00    +0.000 A 
ATOM     15  C   UNL     1     103.698 124.780  82.949  0.00  0.00    +0.000 A 
ATOM     16  F   UNL     1     105.157 122.432  79.902  0.00  0.00    +0.000 F 
ENDBRANCH   9  10
ENDBRANCH   1   9
TORSDOF 3
ENDMDL
