MODEL 1
REMARK VINA RESULT:      -4.9      0.000      0.000
REMARK  Name = *****
REMARK  5 active torsions:
REMARK  status: ('A' for Active; 'I' for Inactive)
REMARK    1  A    between atoms: C_1  and  C_2
REMARK    2  A    between atoms: C_4  and  C_18
REMARK    3  A    between atoms: C_6  and  O_8
REMARK    4  A    between atoms: O_8  and  C_9
REMARK    5  A    between atoms: C_9  and  C_11
REMARK                            x       y       z     vdW  Elec       q    Type
REMARK                         _______ _______ _______ _____ _____    ______ ____
ROOT
ATOM      1  O   UNL     1     100.290 126.776  83.464  0.00  0.00    +0.000 OA
ENDROOT
BRANCH   1   7
ATOM      2  C   UNL     1     103.735 125.132  80.309  0.00  0.00    +0.000 C 
ATOM      3  C   UNL     1     103.213 126.159  81.269  0.00  0.00    +0.000 A 
ATOM      4  C   UNL     1     103.995 127.274  81.612  0.00  0.00    +0.000 A 
ATOM      5  C   UNL     1     103.532 128.229  82.529  0.00  0.00    +0.000 A 
ATOM      6  C   UNL     1     102.282 128.046  83.130  0.00  0.00    +0.000 A 
ATOM      7  C   UNL     1     101.505 126.942  82.784  0.00  0.00    +0.000 A 
ATOM      8  C   UNL     1     101.966 125.987  81.880  0.00  0.00    +0.000 A 
ATOM      9  C   UNL     1     104.396 129.393  82.911  0.00  0.00    +0.000 C 
ENDBRANCH   1   7
BRANCH   1  10
ATOM     10  C   UNL     1      99.217 127.512  82.994  0.00  0.00    +0.000 C 
ATOM     11  O   UNL     1      98.534 127.282  82.009  0.00  0.00    +0.000 OA
BRANCH  10  12
ATOM     12  C   UNL     1      98.985 128.683  83.885  0.00  0.00    +0.000 A 
ATOM     13  C   UNL     1      98.336 128.576  85.120  0.00  0.00    +0.000 A 
ATOM     14  C   UNL     1      98.155 129.714  85.899  0.00  0.00    +0.000 A 
ATOM     15  C   UNL     1      98.607 130.959  85.476  0.00  0.00    +0.000 A 
ATOM     16  C   UNL     1      99.253 131.074  84.248  0.00  0.00    +0.000 A 
ATOM     17  C   UNL     1      99.442 129.940  83.454  0.00  0.00    +0.000 A 
ATOM     18  F   UNL     1      97.535 129.607  87.081  0.00  0.00    +0.000 F 
ENDBRANCH  10  12
ENDBRANCH   1  10
TORSDOF 3
ENDMDL
