MODEL 1
REMARK VINA RESULT:      -5.1      0.000      0.000
REMARK  Name = *****
REMARK  6 active torsions:
REMARK  status: ('A' for Active; 'I' for Inactive)
REMARK    1  A    between atoms: C_1  and  C_2
REMARK    2  A    between atoms: C_5  and  C_8
REMARK    3  A    between atoms: C_8  and  C_9
REMARK    4  A    between atoms: C_8  and  O_18
REMARK    5  A    between atoms: C_9  and  C_10
REMARK    6  A    between atoms: C_13  and  C_16
REMARK                            x       y       z     vdW  Elec       q    Type
REMARK                         _______ _______ _______ _____ _____    ______ ____
ROOT
ATOM      1  C   UNL     1      88.663  70.151  87.115  0.00  0.00    +0.000 C 
ENDROOT
BRANCH   1   6
ATOM      2  C   UNL     1      89.259  64.363  86.559  0.00  0.00    +0.000 C 
ATOM      3  C   UNL     1      89.094  65.850  86.666  0.00  0.00    +0.000 A 
ATOM      4  C   UNL     1      90.089  66.708  86.187  0.00  0.00    +0.000 A 
ATOM      5  C   UNL     1      89.953  68.094  86.313  0.00  0.00    +0.000 A 
ATOM      6  C   UNL     1      88.823  68.650  86.929  0.00  0.00    +0.000 A 
ATOM      7  C   UNL     1      87.837  67.782  87.423  0.00  0.00    +0.000 A 
ATOM      8  C   UNL     1      87.973  66.397  87.297  0.00  0.00    +0.000 A 
ENDBRANCH   1   6
BRANCH   1   9
ATOM      9  C   UNL     1      87.611  70.500  88.209  0.00  0.00    +0.000 C 
ATOM     10 CL   UNL     1      88.353  71.479  89.529  0.00  0.00    +0.000 Cl
BRANCH   9  11
ATOM     11  C   UNL     1      86.382  71.239  87.704  0.00  0.00    +0.000 A 
ATOM     12  C   UNL     1      85.376  71.705  88.564  0.00  0.00    +0.000 A 
ATOM     13  C   UNL     1      84.255  72.372  88.060  0.00  0.00    +0.000 A 
ATOM     14  C   UNL     1      84.116  72.593  86.686  0.00  0.00    +0.000 A 
ATOM     15  C   UNL     1      85.099  72.108  85.821  0.00  0.00    +0.000 A 
ATOM     16  C   UNL     1      86.219  71.440  86.324  0.00  0.00    +0.000 A 
ATOM     17  C   UNL     1      82.895  73.276  86.145  0.00  0.00    +0.000 C 
ENDBRANCH   9  11
ENDBRANCH   1   9
BRANCH   1  18
ATOM     18  O   UNL     1      89.946  70.748  87.356  0.00  0.00    +0.000 OA
ATOM     19  H   UNL     1      90.338  71.020  86.511  0.00  0.00    +0.000 HD
ENDBRANCH   1  18
TORSDOF 4
ENDMDL
