REMARK  Name = *****
REMARK  5 active torsions:
REMARK  status: ('A' for Active; 'I' for Inactive)
REMARK    1  A    between atoms: C_1  and  C_2
REMARK    2  A    between atoms: C_1  and  O_9
REMARK    3  A    between atoms: C_5  and  C_8
REMARK    4  A    between atoms: O_9  and  C_10
REMARK    5  A    between atoms: C_10  and  C_12
REMARK                            x       y       z     vdW  Elec       q    Type
REMARK                         _______ _______ _______ _____ _____    ______ ____
ROOT
ATOM      1  O   UNL     1       2.566   0.447  -1.075  0.00  0.00    +0.000 OA
ENDROOT
BRANCH   1   2
ATOM      2  C   UNL     1       2.346   1.714  -1.497  0.00  0.00    +0.000 C 
ATOM      3  O   UNL     1       1.690   2.558  -0.908  0.00  0.00    +0.000 OA
BRANCH   2   4
ATOM      4  C   UNL     1       3.015   1.952  -2.805  0.00  0.00    +0.000 A 
ATOM      5  C   UNL     1       2.867   3.211  -3.405  0.00  0.00    +0.000 A 
ATOM      6  C   UNL     1       3.474   3.482  -4.632  0.00  0.00    +0.000 A 
ATOM      7  C   UNL     1       4.233   2.499  -5.267  0.00  0.00    +0.000 A 
ATOM      8  C   UNL     1       4.386   1.245  -4.677  0.00  0.00    +0.000 A 
ATOM      9  C   UNL     1       3.780   0.969  -3.449  0.00  0.00    +0.000 A 
ENDBRANCH   2   4
ENDBRANCH   1   2
BRANCH   1  10
ATOM     10  C   UNL     1       1.945   0.139   0.176  0.00  0.00    +0.000 C 
BRANCH  10  11
ATOM     11  C   UNL     1       2.250  -1.300   0.507  0.00  0.00    +0.000 A 
ATOM     12  C   UNL     1       3.070  -1.629   1.594  0.00  0.00    +0.000 A 
ATOM     13  C   UNL     1       3.346  -2.965   1.895  0.00  0.00    +0.000 A 
ATOM     14  C   UNL     1       2.820  -3.995   1.107  0.00  0.00    +0.000 A 
ATOM     15  C   UNL     1       1.992  -3.669   0.027  0.00  0.00    +0.000 A 
ATOM     16  C   UNL     1       1.714  -2.333  -0.273  0.00  0.00    +0.000 A 
ATOM     17  C   UNL     1       3.088  -5.430   1.451  0.00  0.00    +0.000 C 
ENDBRANCH  10  11
ENDBRANCH   1  10
TORSDOF 4
