REMARK  Name = *****
REMARK  2 active torsions:
REMARK  status: ('A' for Active; 'I' for Inactive)
REMARK    1  A    between atoms: C_1  and  C_2
REMARK    2  A    between atoms: C_4  and  C_12
REMARK                            x       y       z     vdW  Elec       q    Type
REMARK                         _______ _______ _______ _____ _____    ______ ____
ROOT
ATOM      1  C   UNL     1       1.001   0.143  -0.335  0.00  0.00    +0.000 C 
ATOM      2  C   UNL     1       2.497   0.003  -0.237  0.00  0.00    +0.000 C 
ATOM      3  C   UNL     1       3.061  -1.219  -0.286  0.00  0.00    +0.000 C 
ATOM      4  C   UNL     1       4.522  -1.567  -0.221  0.00  0.00    +0.000 C 
ATOM      5  S   UNL     1       5.608  -0.246  -0.836  0.00  0.00    +0.000 S 
ATOM      6  C   UNL     1       4.720   1.205  -0.292  0.00  0.00    +0.000 A 
ATOM      7  C   UNL     1       5.478   2.378  -0.137  0.00  0.00    +0.000 A 
ATOM      8  C   UNL     1       4.875   3.568   0.261  0.00  0.00    +0.000 A 
ATOM      9  C   UNL     1       3.508   3.598   0.499  0.00  0.00    +0.000 A 
ATOM     10  C   UNL     1       2.745   2.437   0.337  0.00  0.00    +0.000 A 
ATOM     11  C   UNL     1       3.331   1.220  -0.061  0.00  0.00    +0.000 A 
ENDROOT
BRANCH   4  12
ATOM     12  C   UNL     1       4.964  -2.098   1.133  0.00  0.00    +0.000 A 
ATOM     13  C   UNL     1       5.651  -3.323   1.212  0.00  0.00    +0.000 A 
ATOM     14  C   UNL     1       6.073  -3.830   2.442  0.00  0.00    +0.000 A 
ATOM     15  C   UNL     1       5.821  -3.120   3.614  0.00  0.00    +0.000 A 
ATOM     16  C   UNL     1       5.150  -1.902   3.555  0.00  0.00    +0.000 A 
ATOM     17  C   UNL     1       4.726  -1.393   2.325  0.00  0.00    +0.000 A 
ENDBRANCH   4  12
TORSDOF 1
