MODEL 1
REMARK VINA RESULT:      -4.1      0.000      0.000
REMARK  Name = *****
REMARK  2 active torsions:
REMARK  status: ('A' for Active; 'I' for Inactive)
REMARK    1  A    between atoms: C_2  and  C_9
REMARK    2  A    between atoms: C_3  and  C_4
REMARK                            x       y       z     vdW  Elec       q    Type
REMARK                         _______ _______ _______ _____ _____    ______ ____
ROOT
ATOM      1  C   UNL     1      97.880 116.588  78.518  0.00  0.00    +0.000 C 
ATOM      2  C   UNL     1      96.944 117.025  79.605  0.00  0.00    +0.000 C 
ATOM      3  C   UNL     1      97.231 115.540  79.391  0.00  0.00    +0.000 C 
ENDROOT
BRANCH   2   4
ATOM      4  C   UNL     1      97.473 117.711  80.843  0.00  0.00    +0.000 A 
ATOM      5  C   UNL     1      98.283 118.855  80.756  0.00  0.00    +0.000 A 
ATOM      6  C   UNL     1      98.758 119.501  81.901  0.00  0.00    +0.000 A 
ATOM      7  C   UNL     1      98.424 119.016  83.162  0.00  0.00    +0.000 A 
ATOM      8  C   UNL     1      97.613 117.890  83.276  0.00  0.00    +0.000 A 
ATOM      9  C   UNL     1      97.141 117.249  82.128  0.00  0.00    +0.000 A 
ENDBRANCH   2   4
BRANCH   3  10
ATOM     10  C   UNL     1      96.129 114.649  78.817  0.00  0.00    +0.000 A 
ATOM     11  C   UNL     1      95.278 113.841  79.538  0.00  0.00    +0.000 A 
ATOM     12  C   UNL     1      94.370 113.137  78.692  0.00  0.00    +0.000 A 
ATOM     13  C   UNL     1      94.561 113.440  77.362  0.00  0.00    +0.000 A 
ATOM     14  S   UNL     1      95.829 114.566  77.139  0.00  0.00    +0.000 S 
ENDBRANCH   3  10
TORSDOF 2
ENDMDL
