REMARK  Name = *****
REMARK  3 active torsions:
REMARK  status: ('A' for Active; 'I' for Inactive)
REMARK    1  A    between atoms: C_4  and  S_7
REMARK    2  A    between atoms: S_7  and  C_8
REMARK    3  A    between atoms: C_8  and  C_9
REMARK                            x       y       z     vdW  Elec       q    Type
REMARK                         _______ _______ _______ _____ _____    ______ ____
ROOT
ATOM      1  C   UNL     1      -3.969  -0.955  -0.374  0.00  0.00    +0.000 C 
ENDROOT
BRANCH   1   2
ATOM      2  C   UNL     1      -5.459  -0.767  -0.522  0.00  0.00    +0.000 A 
ATOM      3  C   UNL     1      -6.017  -0.454  -1.772  0.00  0.00    +0.000 A 
ATOM      4  C   UNL     1      -7.395  -0.271  -1.899  0.00  0.00    +0.000 A 
ATOM      5  C   UNL     1      -8.230  -0.390  -0.790  0.00  0.00    +0.000 A 
ATOM      6  C   UNL     1      -7.683  -0.690   0.457  0.00  0.00    +0.000 A 
ATOM      7  C   UNL     1      -6.305  -0.874   0.592  0.00  0.00    +0.000 A 
ATOM      8  I   UNL     1      -8.207   0.187  -3.758  0.00  0.00    +0.000 I 
ENDBRANCH   1   2
BRANCH   1   9
ATOM      9  S   UNL     1      -3.136   0.627  -0.024  0.00  0.00    +0.000 S 
BRANCH   9  13
ATOM     10  C   UNL     1       1.346  -0.327   0.396  0.00  0.00    +0.000 A 
ATOM     11  C   UNL     1       0.472  -1.364   0.076  0.00  0.00    +0.000 A 
ATOM     12  C   UNL     1      -0.898  -1.115  -0.060  0.00  0.00    +0.000 A 
ATOM     13  C   UNL     1      -1.411   0.173   0.123  0.00  0.00    +0.000 A 
ATOM     14  C   UNL     1      -0.518   1.206   0.444  0.00  0.00    +0.000 A 
ATOM     15  C   UNL     1       0.850   0.960   0.580  0.00  0.00    +0.000 A 
ENDBRANCH   9  13
ENDBRANCH   1   9
TORSDOF 3
