MODEL 1
REMARK VINA RESULT:      -4.7      0.000      0.000
REMARK  Name = *****
REMARK  3 active torsions:
REMARK  status: ('A' for Active; 'I' for Inactive)
REMARK    1  A    between atoms: C_1  and  C_2
REMARK    2  A    between atoms: C_3  and  C_7
REMARK    3  A    between atoms: C_7  and  C_8
REMARK                            x       y       z     vdW  Elec       q    Type
REMARK                         _______ _______ _______ _____ _____    ______ ____
ROOT
ATOM      1  C   UNL     1      86.281  71.504  85.717  0.00  0.00    +0.000 C 
ATOM      2  C   UNL     1      85.089  72.127  85.777  0.00  0.00    +0.000 C 
ATOM      3  C   UNL     1      84.617  72.369  87.189  0.00  0.00    +0.000 C 
ATOM      4  C   UNL     1      85.728  71.744  87.971  0.00  0.00    +0.000 A 
ATOM      5  C   UNL     1      85.852  71.625  89.346  0.00  0.00    +0.000 A 
ATOM      6  C   UNL     1      86.984  70.983  89.850  0.00  0.00    +0.000 A 
ATOM      7  C   UNL     1      87.962  70.475  88.981  0.00  0.00    +0.000 A 
ATOM      8  C   UNL     1      87.824  70.600  87.595  0.00  0.00    +0.000 A 
ATOM      9  C   UNL     1      86.701  71.240  87.095  0.00  0.00    +0.000 A 
ENDROOT
BRANCH   1  10
ATOM     10  C   UNL     1      87.030  71.065  84.498  0.00  0.00    +0.000 C 
BRANCH  10  13
ATOM     11  C   UNL     1      90.190  71.144  85.007  0.00  0.00    +0.000 C 
ATOM     12  C   UNL     1      89.408  72.101  84.167  0.00  0.00    +0.000 A 
ATOM     13  C   UNL     1      88.036  72.051  83.953  0.00  0.00    +0.000 A 
ATOM     14  S   UNL     1      87.499  73.337  82.950  0.00  0.00    +0.000 S 
ATOM     15  C   UNL     1      89.076  73.961  82.787  0.00  0.00    +0.000 A 
ATOM     16  C   UNL     1      89.998  73.215  83.484  0.00  0.00    +0.000 A 
ENDBRANCH  10  13
ENDBRANCH   1  10
TORSDOF 2
ENDMDL
