REMARK  Name = *****
REMARK  1 active torsions:
REMARK  status: ('A' for Active; 'I' for Inactive)
REMARK    1  A    between atoms: C_2  and  C_10
REMARK                            x       y       z     vdW  Elec       q    Type
REMARK                         _______ _______ _______ _____ _____    ______ ____
ROOT
ATOM      1  C   UNL     1       1.637   1.199   0.161  0.00  0.00    +0.000 C 
ATOM      2  C   UNL     1       2.451  -0.058  -0.233  0.00  0.00    +0.000 C 
ATOM      3  C   UNL     1       1.575  -1.277   0.143  0.00  0.00    +0.000 C 
ATOM      4  C   UNL     1       0.197  -0.703   0.016  0.00  0.00    +0.000 A 
ATOM      5  C   UNL     1      -1.005  -1.386  -0.057  0.00  0.00    +0.000 A 
ATOM      6  C   UNL     1      -2.185  -0.644  -0.134  0.00  0.00    +0.000 A 
ATOM      7  C   UNL     1      -2.150   0.759  -0.124  0.00  0.00    +0.000 A 
ATOM      8  C   UNL     1      -0.934   1.440  -0.037  0.00  0.00    +0.000 A 
ATOM      9  C   UNL     1       0.232   0.696   0.026  0.00  0.00    +0.000 A 
ENDROOT
BRANCH   2  10
ATOM     10  C   UNL     1       3.846  -0.099   0.351  0.00  0.00    +0.000 A 
ATOM     11  C   UNL     1       4.063  -0.105   1.737  0.00  0.00    +0.000 A 
ATOM     12  C   UNL     1       5.358  -0.145   2.256  0.00  0.00    +0.000 A 
ATOM     13  C   UNL     1       6.454  -0.178   1.397  0.00  0.00    +0.000 A 
ATOM     14  C   UNL     1       6.255  -0.173   0.019  0.00  0.00    +0.000 A 
ATOM     15  C   UNL     1       4.959  -0.133  -0.501  0.00  0.00    +0.000 A 
ENDBRANCH   2  10
TORSDOF 1
