MODEL 1
REMARK VINA RESULT:      -5.3      0.000      0.000
REMARK  Name = *****
REMARK  2 active torsions:
REMARK  status: ('A' for Active; 'I' for Inactive)
REMARK    1  A    between atoms: C_1  and  C_2
REMARK    2  A    between atoms: C_9  and  C_11
REMARK                            x       y       z     vdW  Elec       q    Type
REMARK                         _______ _______ _______ _____ _____    ______ ____
ROOT
ATOM      1  C   UNL     1     106.395 121.570  81.128  0.00  0.00    +0.000 C 
ATOM      2  C   UNL     1     105.574 122.815  80.938  0.00  0.00    +0.000 A 
ATOM      3  C   UNL     1     104.671 123.215  81.939  0.00  0.00    +0.000 A 
ATOM      4  C   UNL     1     103.975 124.392  81.697  0.00  0.00    +0.000 A 
ATOM      5  C   UNL     1     104.120 125.181  80.569  0.00  0.00    +0.000 A 
ATOM      6  C   UNL     1     105.030 124.787  79.581  0.00  0.00    +0.000 A 
ATOM      7  C   UNL     1     105.755 123.602  79.785  0.00  0.00    +0.000 A 
ATOM      8  N   UNL     1     103.286 126.268  80.651  0.00  0.00    +0.000 NA
ATOM      9  C   UNL     1     102.671 126.107  81.810  0.00  0.00    +0.000 A 
ATOM     10  O   UNL     1     103.045 124.984  82.499  0.00  0.00    +0.000 OA
ENDROOT
BRANCH   9  11
ATOM     11  C   UNL     1     101.665 126.969  82.421  0.00  0.00    +0.000 A 
ATOM     12  C   UNL     1     100.313 126.593  82.339  0.00  0.00    +0.000 A 
ATOM     13  C   UNL     1      99.324 127.389  82.910  0.00  0.00    +0.000 A 
ATOM     14  C   UNL     1      99.652 128.567  83.567  0.00  0.00    +0.000 A 
ATOM     15  C   UNL     1     100.983 128.958  83.659  0.00  0.00    +0.000 A 
ATOM     16  C   UNL     1     101.982 128.162  83.087  0.00  0.00    +0.000 A 
ATOM     17  F   UNL     1     103.260 128.561  83.189  0.00  0.00    +0.000 F 
ATOM     18 CL   UNL     1     101.399 130.419  84.473  0.00  0.00    +0.000 Cl
ATOM     19  F   UNL     1      98.678 129.313  84.107  0.00  0.00    +0.000 F 
ATOM     20  F   UNL     1      98.044 127.006  82.818  0.00  0.00    +0.000 F 
ENDBRANCH   9  11
TORSDOF 1
ENDMDL
