MODEL 1
REMARK VINA RESULT:      -4.9      0.000      0.000
REMARK  Name = *****
REMARK  2 active torsions:
REMARK  status: ('A' for Active; 'I' for Inactive)
REMARK    1  A    between atoms: C_3  and  C_7
REMARK    2  A    between atoms: C_8  and  C_9
REMARK                            x       y       z     vdW  Elec       q    Type
REMARK                         _______ _______ _______ _____ _____    ______ ____
ROOT
ATOM      1  C   UNL     1     101.309 126.985  82.630  0.00  0.00    +0.000 A 
ATOM      2  C   UNL     1      99.918 126.938  82.449  0.00  0.00    +0.000 A 
ATOM      3  C   UNL     1      99.093 127.960  82.912  0.00  0.00    +0.000 A 
ATOM      4  C   UNL     1      99.639 129.046  83.577  0.00  0.00    +0.000 A 
ATOM      5  C   UNL     1     101.008 129.106  83.787  0.00  0.00    +0.000 A 
ATOM      6  C   UNL     1     101.835 128.085  83.324  0.00  0.00    +0.000 A 
ATOM      7  F   UNL     1     103.151 128.168  83.574  0.00  0.00    +0.000 F 
ATOM      8  F   UNL     1     101.538 130.148  84.445  0.00  0.00    +0.000 F 
ATOM      9  F   UNL     1      98.846 130.029  84.025  0.00  0.00    +0.000 F 
ATOM     10  F   UNL     1      97.769 127.891  82.715  0.00  0.00    +0.000 F 
ATOM     11  F   UNL     1      99.360 125.895  81.814  0.00  0.00    +0.000 F 
ENDROOT
BRANCH   1  13
ATOM     12  C   UNL     1     103.021 125.952  81.141  0.00  0.00    +0.000 C 
ATOM     13  C   UNL     1     102.127 125.864  82.140  0.00  0.00    +0.000 C 
BRANCH  12  16
ATOM     14  C   UNL     1     105.453 124.665  82.633  0.00  0.00    +0.000 C 
ATOM     15  C   UNL     1     104.381 123.937  81.814  0.00  0.00    +0.000 C 
ATOM     16  C   UNL     1     103.842 124.777  80.644  0.00  0.00    +0.000 C 
ATOM     17  C   UNL     1     105.000 125.243  79.736  0.00  0.00    +0.000 C 
ATOM     18  C   UNL     1     106.232 125.674  80.482  0.00  0.00    +0.000 C 
ATOM     19  C   UNL     1     106.429 125.427  81.785  0.00  0.00    +0.000 C 
ENDBRANCH  12  16
ENDBRANCH   1  13
TORSDOF 2
ENDMDL
