REMARK  Name = *****
REMARK  3 active torsions:
REMARK  status: ('A' for Active; 'I' for Inactive)
REMARK    1  A    between atoms: C_1  and  N_2
REMARK    2  A    between atoms: C_5  and  C_8
REMARK    3  A    between atoms: C_9  and  C_10
REMARK                            x       y       z     vdW  Elec       q    Type
REMARK                         _______ _______ _______ _____ _____    ______ ____
ROOT
ATOM      1  C   UNL     1       3.282   0.128   0.352  0.00  0.00    +0.000 C 
ATOM      2  C   UNL     1       4.044   1.228   0.466  0.00  0.00    +0.000 C 
ENDROOT
BRANCH   2   3
ATOM      3  C   UNL     1       5.508   1.192   0.605  0.00  0.00    +0.000 A 
ATOM      4  C   UNL     1       6.129   2.112   1.460  0.00  0.00    +0.000 A 
ATOM      5  C   UNL     1       7.522   2.131   1.601  0.00  0.00    +0.000 A 
ATOM      6  C   UNL     1       8.310   1.233   0.875  0.00  0.00    +0.000 A 
ATOM      7  C   UNL     1       7.699   0.325   0.008  0.00  0.00    +0.000 A 
ATOM      8  C   UNL     1       6.307   0.308  -0.131  0.00  0.00    +0.000 A 
ATOM      9 CL   UNL     1      10.031   1.198   0.997  0.00  0.00    +0.000 Cl
ATOM     10 CL   UNL     1       8.200   3.291   2.688  0.00  0.00    +0.000 Cl
ENDBRANCH   2   3
BRANCH   1  15
ATOM     11  C   UNL     1      -2.415   0.067  -0.079  0.00  0.00    +0.000 C 
ATOM     12  N   UNL     1      -0.946   0.105   0.026  0.00  0.00    +0.000 N 
ATOM     13  C   UNL     1      -0.245   1.076  -0.600  0.00  0.00    +0.000 C 
ATOM     14  C   UNL     1       1.143   1.118  -0.508  0.00  0.00    +0.000 C 
ATOM     15  C   UNL     1       1.819   0.154   0.240  0.00  0.00    +0.000 C 
ATOM     16  C   UNL     1       1.073  -0.849   0.857  0.00  0.00    +0.000 C 
ATOM     17  C   UNL     1      -0.313  -0.852   0.740  0.00  0.00    +0.000 C 
ENDBRANCH   1  15
TORSDOF 2
