MODEL 1
REMARK VINA RESULT:      -4.2      0.000      0.000
REMARK  Name = *****
REMARK  5 active torsions:
REMARK  status: ('A' for Active; 'I' for Inactive)
REMARK    1  A    between atoms: C_1  and  C_2
REMARK    2  A    between atoms: C_2  and  C_3
REMARK    3  A    between atoms: C_6  and  S_8
REMARK    4  A    between atoms: S_8  and  C_9
REMARK    5  A    between atoms: C_9  and  C_10
REMARK                            x       y       z     vdW  Elec       q    Type
REMARK                         _______ _______ _______ _____ _____    ______ ____
ROOT
ATOM      1  S   UNL     1     103.171 126.163  84.020  0.00  0.00    +0.000 S 
ENDROOT
BRANCH   1   5
ATOM      2  C   UNL     1     104.503 123.484  81.085  0.00  0.00    +0.000 A 
ATOM      3  C   UNL     1     104.123 124.634  80.421  0.00  0.00    +0.000 A 
ATOM      4  C   UNL     1     103.647 125.640  81.313  0.00  0.00    +0.000 A 
ATOM      5  C   UNL     1     103.671 125.223  82.625  0.00  0.00    +0.000 A 
ATOM      6  S   UNL     1     104.281 123.637  82.777  0.00  0.00    +0.000 S 
BRANCH   2   8
ATOM      7  C   UNL     1     104.608 120.994  81.284  0.00  0.00    +0.000 C 
ATOM      8  C   UNL     1     105.060 122.219  80.504  0.00  0.00    +0.000 C 
ENDBRANCH   2   8
ENDBRANCH   1   5
BRANCH   1   9
ATOM      9  C   UNL     1     102.658 127.694  83.184  0.00  0.00    +0.000 C 
BRANCH   9  10
ATOM     10  C   UNL     1     101.158 127.787  83.065  0.00  0.00    +0.000 A 
ATOM     11  C   UNL     1     100.472 128.913  83.543  0.00  0.00    +0.000 A 
ATOM     12  C   UNL     1      99.082 128.992  83.441  0.00  0.00    +0.000 A 
ATOM     13  C   UNL     1      98.363 127.946  82.866  0.00  0.00    +0.000 A 
ATOM     14  C   UNL     1      99.033 126.818  82.396  0.00  0.00    +0.000 A 
ATOM     15  C   UNL     1     100.422 126.736  82.498  0.00  0.00    +0.000 A 
ENDBRANCH   9  10
ENDBRANCH   1   9
TORSDOF 4
ENDMDL
