MODEL 1
REMARK VINA RESULT:      -4.4      0.000      0.000
REMARK  Name = *****
REMARK  5 active torsions:
REMARK  status: ('A' for Active; 'I' for Inactive)
REMARK    1  A    between atoms: C_1  and  O_2
REMARK    2  A    between atoms: O_2  and  C_3
REMARK    3  A    between atoms: C_3  and  C_5
REMARK    4  A    between atoms: C_6  and  C_10
REMARK    5  A    between atoms: C_11  and  C_12
REMARK                            x       y       z     vdW  Elec       q    Type
REMARK                         _______ _______ _______ _____ _____    ______ ____
ROOT
ATOM      1  C   UNL     1      99.614 128.639  83.612  0.00  0.00    +0.000 A 
ATOM      2  C   UNL     1     100.991 128.443  83.675  0.00  0.00    +0.000 A 
ATOM      3  C   UNL     1     101.669 129.588  84.213  0.00  0.00    +0.000 A 
ATOM      4  C   UNL     1     100.811 130.613  84.529  0.00  0.00    +0.000 A 
ATOM      5  S   UNL     1      99.195 130.217  84.180  0.00  0.00    +0.000 S 
ENDROOT
BRANCH   1   6
ATOM      6  C   UNL     1      98.509 127.789  83.186  0.00  0.00    +0.000 C 
ATOM      7  O   UNL     1      98.305 127.387  82.044  0.00  0.00    +0.000 OA
BRANCH   6   9
ATOM      8  C   UNL     1      98.041 126.324  84.960  0.00  0.00    +0.000 C 
ATOM      9  O   UNL     1      97.682 127.500  84.235  0.00  0.00    +0.000 OA
ENDBRANCH   6   9
ENDBRANCH   1   6
BRANCH   2  10
ATOM     10  C   UNL     1     101.674 127.260  83.227  0.00  0.00    +0.000 C 
ATOM     11  C   UNL     1     102.619 127.228  82.270  0.00  0.00    +0.000 C 
BRANCH  11  12
ATOM     12  C   UNL     1     103.306 126.004  81.839  0.00  0.00    +0.000 A 
ATOM     13  C   UNL     1     103.545 124.934  82.713  0.00  0.00    +0.000 A 
ATOM     14  C   UNL     1     104.175 123.771  82.257  0.00  0.00    +0.000 A 
ATOM     15  C   UNL     1     104.558 123.669  80.923  0.00  0.00    +0.000 A 
ATOM     16  C   UNL     1     104.313 124.716  80.038  0.00  0.00    +0.000 A 
ATOM     17  C   UNL     1     103.682 125.877  80.495  0.00  0.00    +0.000 A 
ATOM     18 CL   UNL     1     105.333 122.239  80.362  0.00  0.00    +0.000 Cl
ENDBRANCH  11  12
ENDBRANCH   2  10
TORSDOF 4
ENDMDL
