REMARK  Name = *****
REMARK  4 active torsions:
REMARK  status: ('A' for Active; 'I' for Inactive)
REMARK    1  A    between atoms: C_5  and  C_7
REMARK    2  A    between atoms: C_7  and  S_8
REMARK    3  A    between atoms: S_8  and  C_9
REMARK    4  A    between atoms: C_12  and  C_14
REMARK                            x       y       z     vdW  Elec       q    Type
REMARK                         _______ _______ _______ _____ _____    ______ ____
ROOT
ATOM      1  S   UNL     1       2.865  -2.130  -0.054  0.00  0.00    +0.000 S 
ENDROOT
BRANCH   1   2
ATOM      2  C   UNL     1       3.474  -3.751   0.010  0.00  0.00    +0.000 A 
ATOM      3  N   UNL     1       2.736  -4.843   0.009  0.00  0.00    +0.000 NA
ATOM      4  N   UNL     1       3.603  -5.914   0.059  0.00  0.00    +0.000 NA
ATOM      5  C   UNL     1       4.821  -5.408   0.086  0.00  0.00    +0.000 A 
ATOM      6  O   UNL     1       4.814  -4.033   0.055  0.00  0.00    +0.000 OA
BRANCH   5   7
ATOM      7  C   UNL     1       6.143  -6.083   0.140  0.00  0.00    +0.000 C 
ATOM      8  F   UNL     1       6.043  -7.439   0.157  0.00  0.00    +0.000 F 
ATOM      9  F   UNL     1       6.921  -5.768  -0.931  0.00  0.00    +0.000 F 
ATOM     10  F   UNL     1       6.852  -5.733   1.247  0.00  0.00    +0.000 F 
ENDBRANCH   5   7
ENDBRANCH   1   2
BRANCH   1  11
ATOM     11  C   UNL     1       1.079  -2.454   0.019  0.00  0.00    +0.000 C 
BRANCH  11  16
ATOM     12  C   UNL     1      -0.760   0.617  -1.300  0.00  0.00    +0.000 A 
ATOM     13  C   UNL     1      -1.169   1.226  -0.114  0.00  0.00    +0.000 A 
ATOM     14  C   UNL     1      -0.851   0.642   1.111  0.00  0.00    +0.000 A 
ATOM     15  C   UNL     1      -0.128  -0.547   1.140  0.00  0.00    +0.000 A 
ATOM     16  C   UNL     1       0.286  -1.177  -0.037  0.00  0.00    +0.000 A 
ATOM     17  C   UNL     1      -0.035  -0.577  -1.264  0.00  0.00    +0.000 A 
ATOM     18  F   UNL     1       0.169  -1.091   2.329  0.00  0.00    +0.000 F 
ENDBRANCH  11  16
ENDBRANCH   1  11
TORSDOF 4
