REMARK  Name = *****
REMARK  4 active torsions:
REMARK  status: ('A' for Active; 'I' for Inactive)
REMARK    1  A    between atoms: C_1  and  C_2
REMARK    2  A    between atoms: C_5  and  C_8
REMARK    3  A    between atoms: C_8  and  S_9
REMARK    4  A    between atoms: S_9  and  C_11
REMARK                            x       y       z     vdW  Elec       q    Type
REMARK                         _______ _______ _______ _____ _____    ______ ____
ROOT
ATOM      1  C   UNL     1      -3.286   0.489  -0.546  0.00  0.00    +0.000 C 
ENDROOT
BRANCH   1   6
ATOM      2  C   UNL     1       2.440  -0.157   0.311  0.00  0.00    +0.000 C 
ATOM      3  C   UNL     1       0.967   0.031   0.105  0.00  0.00    +0.000 A 
ATOM      4  C   UNL     1       0.049  -0.516   1.009  0.00  0.00    +0.000 A 
ATOM      5  C   UNL     1      -1.325  -0.367   0.802  0.00  0.00    +0.000 A 
ATOM      6  C   UNL     1      -1.806   0.319  -0.321  0.00  0.00    +0.000 A 
ATOM      7  C   UNL     1      -0.884   0.857  -1.229  0.00  0.00    +0.000 A 
ATOM      8  C   UNL     1       0.489   0.708  -1.022  0.00  0.00    +0.000 A 
ENDBRANCH   1   6
BRANCH   1   9
ATOM      9  S   UNL     1      -3.858   2.163  -0.087  0.00  0.00    +0.000 S 
ATOM     10  O   UNL     1      -3.472   3.097  -1.199  0.00  0.00    +0.000 OA
BRANCH   9  11
ATOM     11  C   UNL     1      -5.626   1.851  -0.307  0.00  0.00    +0.000 A 
ATOM     12  C   UNL     1      -6.342   1.195   0.702  0.00  0.00    +0.000 A 
ATOM     13  C   UNL     1      -7.707   0.945   0.544  0.00  0.00    +0.000 A 
ATOM     14  C   UNL     1      -8.362   1.354  -0.617  0.00  0.00    +0.000 A 
ATOM     15  C   UNL     1      -7.656   2.017  -1.619  0.00  0.00    +0.000 A 
ATOM     16  C   UNL     1      -6.292   2.267  -1.464  0.00  0.00    +0.000 A 
ENDBRANCH   9  11
ENDBRANCH   1   9
TORSDOF 3
