MODEL 1
REMARK VINA RESULT:      -4.9      0.000      0.000
REMARK  Name = *****
REMARK  2 active torsions:
REMARK  status: ('A' for Active; 'I' for Inactive)
REMARK    1  A    between atoms: C_4  and  N_8
REMARK    2  A    between atoms: C_9  and  C_10
REMARK                            x       y       z     vdW  Elec       q    Type
REMARK                         _______ _______ _______ _____ _____    ______ ____
ROOT
ATOM      1  N   UNL     1     101.818 126.122  82.592  0.00  0.00    +0.000 NA
ATOM      2  C   UNL     1     102.635 126.280  81.601  0.00  0.00    +0.000 C 
ENDROOT
BRANCH   1   6
ATOM      3  C   UNL     1      99.110 129.257  83.494  0.00  0.00    +0.000 A 
ATOM      4  C   UNL     1     100.445 129.363  83.880  0.00  0.00    +0.000 A 
ATOM      5  C   UNL     1     101.340 128.335  83.577  0.00  0.00    +0.000 A 
ATOM      6  C   UNL     1     100.938 127.189  82.878  0.00  0.00    +0.000 A 
ATOM      7  C   UNL     1      99.590 127.102  82.511  0.00  0.00    +0.000 A 
ATOM      8  C   UNL     1      98.682 128.121  82.807  0.00  0.00    +0.000 A 
ATOM      9  F   UNL     1      99.140 126.025  81.847  0.00  0.00    +0.000 F 
ATOM     10  F   UNL     1     102.619 128.473  83.963  0.00  0.00    +0.000 F 
ENDBRANCH   1   6
BRANCH   2  11
ATOM     11  C   UNL     1     103.599 125.231  81.222  0.00  0.00    +0.000 A 
ATOM     12  C   UNL     1     103.845 124.146  82.069  0.00  0.00    +0.000 A 
ATOM     13  C   UNL     1     104.762 123.174  81.679  0.00  0.00    +0.000 A 
ATOM     14  C   UNL     1     105.434 123.264  80.468  0.00  0.00    +0.000 A 
ATOM     15  C   UNL     1     105.178 124.350  79.639  0.00  0.00    +0.000 A 
ATOM     16  C   UNL     1     104.266 125.337  80.001  0.00  0.00    +0.000 A 
ATOM     17  F   UNL     1     105.820 124.448  78.467  0.00  0.00    +0.000 F 
ATOM     18  F   UNL     1     105.000 122.132  82.486  0.00  0.00    +0.000 F 
ENDBRANCH   2  11
TORSDOF 2
ENDMDL
