MODEL 1
REMARK VINA RESULT:      -4.2      0.000      0.000
REMARK  Name = *****
REMARK  4 active torsions:
REMARK  status: ('A' for Active; 'I' for Inactive)
REMARK    1  A    between atoms: C_4  and  C_7
REMARK    2  A    between atoms: C_7  and  N_8
REMARK    3  A    between atoms: N_8  and  C_9
REMARK    4  A    between atoms: C_9  and  C_10
REMARK                            x       y       z     vdW  Elec       q    Type
REMARK                         _______ _______ _______ _____ _____    ______ ____
ROOT
ATOM      1  C   UNL     1     104.599 124.565  80.664  0.00  0.00    +0.000 C 
ENDROOT
BRANCH   1   2
ATOM      2  C   UNL     1     104.556 123.496  81.674  0.00  0.00    +0.000 A 
ATOM      3  C   UNL     1     104.416 123.743  83.038  0.00  0.00    +0.000 A 
ATOM      4  C   UNL     1     104.384 122.687  83.951  0.00  0.00    +0.000 A 
ATOM      5  C   UNL     1     104.491 121.369  83.505  0.00  0.00    +0.000 A 
ATOM      6  C   UNL     1     104.630 121.114  82.142  0.00  0.00    +0.000 A 
ATOM      7  C   UNL     1     104.660 122.176  81.238  0.00  0.00    +0.000 A 
ATOM      8  F   UNL     1     104.795 121.898  79.932  0.00  0.00    +0.000 F 
ATOM      9  F   UNL     1     104.300 124.987  83.523  0.00  0.00    +0.000 F 
ENDBRANCH   1   2
BRANCH   1  10
ATOM     10  N   UNL     1     103.537 125.119  80.191  0.00  0.00    +0.000 NA
BRANCH  10  11
ATOM     11  C   UNL     1     103.511 126.583  80.325  0.00  0.00    +0.000 C 
BRANCH  11  15
ATOM     12  C   UNL     1     101.459 127.827  83.921  0.00  0.00    +0.000 A 
ATOM     13  C   UNL     1     101.002 126.731  83.194  0.00  0.00    +0.000 A 
ATOM     14  C   UNL     1     101.664 126.340  82.028  0.00  0.00    +0.000 A 
ATOM     15  C   UNL     1     102.786 127.048  81.570  0.00  0.00    +0.000 A 
ATOM     16  C   UNL     1     103.243 128.140  82.321  0.00  0.00    +0.000 A 
ATOM     17  C   UNL     1     102.580 128.530  83.487  0.00  0.00    +0.000 A 
ENDBRANCH  11  15
ENDBRANCH  10  11
ENDBRANCH   1  10
TORSDOF 4
ENDMDL
