MODEL 1
REMARK VINA RESULT:      -5.0      0.000      0.000
REMARK  Name = *****
REMARK  4 active torsions:
REMARK  status: ('A' for Active; 'I' for Inactive)
REMARK    1  A    between atoms: C_1  and  C_2
REMARK    2  A    between atoms: C_4  and  C_17
REMARK    3  A    between atoms: C_6  and  C_8
REMARK    4  A    between atoms: N_9  and  C_10
REMARK                            x       y       z     vdW  Elec       q    Type
REMARK                         _______ _______ _______ _____ _____    ______ ____
ROOT
ATOM      1  C   UNL     1     102.785 126.185  81.589  0.00  0.00    +0.000 C 
ATOM      2  N   UNL     1     101.736 125.850  82.274  0.00  0.00    +0.000 NA
ENDROOT
BRANCH   1   8
ATOM      3  C   UNL     1     105.016 121.760  82.169  0.00  0.00    +0.000 C 
ATOM      4  C   UNL     1     104.820 123.025  81.387  0.00  0.00    +0.000 A 
ATOM      5  C   UNL     1     105.584 123.272  80.237  0.00  0.00    +0.000 A 
ATOM      6  C   UNL     1     105.444 124.468  79.520  0.00  0.00    +0.000 A 
ATOM      7  C   UNL     1     104.513 125.419  79.954  0.00  0.00    +0.000 A 
ATOM      8  C   UNL     1     103.758 125.186  81.108  0.00  0.00    +0.000 A 
ATOM      9  C   UNL     1     103.915 123.998  81.828  0.00  0.00    +0.000 A 
ATOM     10  C   UNL     1     106.236 124.701  78.267  0.00  0.00    +0.000 C 
ENDBRANCH   1   8
BRANCH   2  11
ATOM     11  C   UNL     1     100.896 126.901  82.666  0.00  0.00    +0.000 A 
ATOM     12  C   UNL     1     101.419 128.029  83.302  0.00  0.00    +0.000 A 
ATOM     13  C   UNL     1     100.572 129.073  83.671  0.00  0.00    +0.000 A 
ATOM     14  C   UNL     1      99.205 129.008  83.401  0.00  0.00    +0.000 A 
ATOM     15  C   UNL     1      98.683 127.891  82.750  0.00  0.00    +0.000 A 
ATOM     16  C   UNL     1      99.529 126.844  82.381  0.00  0.00    +0.000 A 
ATOM     17 CL   UNL     1     101.217 130.456  84.467  0.00  0.00    +0.000 Cl
ENDBRANCH   2  11
TORSDOF 2
ENDMDL
