MODEL 1
REMARK VINA RESULT:      -4.5      0.000      0.000
REMARK  Name = *****
REMARK  4 active torsions:
REMARK  status: ('A' for Active; 'I' for Inactive)
REMARK    1  A    between atoms: C_1  and  C_2
REMARK    2  A    between atoms: C_5  and  C_8
REMARK    3  A    between atoms: C_8  and  O_9
REMARK    4  A    between atoms: O_9  and  C_10
REMARK                            x       y       z     vdW  Elec       q    Type
REMARK                         _______ _______ _______ _____ _____    ______ ____
ROOT
ATOM      1  C   UNL     1      87.803  70.706  85.933  0.00  0.00    +0.000 C 
ENDROOT
BRANCH   1   6
ATOM      2  C   UNL     1      82.936  73.178  87.986  0.00  0.00    +0.000 C 
ATOM      3  C   UNL     1      84.171  72.509  87.460  0.00  0.00    +0.000 A 
ATOM      4  C   UNL     1      85.125  71.987  88.338  0.00  0.00    +0.000 A 
ATOM      5  C   UNL     1      86.291  71.393  87.847  0.00  0.00    +0.000 A 
ATOM      6  C   UNL     1      86.525  71.310  86.467  0.00  0.00    +0.000 A 
ATOM      7  C   UNL     1      85.579  71.859  85.592  0.00  0.00    +0.000 A 
ATOM      8  C   UNL     1      84.414  72.453  86.083  0.00  0.00    +0.000 A 
ENDBRANCH   1   6
BRANCH   1   9
ATOM      9  O   UNL     1      88.529  70.097  87.001  0.00  0.00    +0.000 OA
BRANCH   9  10
ATOM     10  C   UNL     1      88.775  68.756  86.907  0.00  0.00    +0.000 A 
ATOM     11  C   UNL     1      89.900  68.164  86.331  0.00  0.00    +0.000 A 
ATOM     12  C   UNL     1      90.023  66.770  86.302  0.00  0.00    +0.000 A 
ATOM     13  C   UNL     1      89.021  65.971  86.850  0.00  0.00    +0.000 A 
ATOM     14  C   UNL     1      87.896  66.552  87.425  0.00  0.00    +0.000 A 
ATOM     15  C   UNL     1      87.775  67.943  87.451  0.00  0.00    +0.000 A 
ATOM     16 CL   UNL     1      89.178  64.258  86.812  0.00  0.00    +0.000 Cl
ENDBRANCH   9  10
ENDBRANCH   1   9
TORSDOF 3
ENDMDL
