MODEL 1
REMARK VINA RESULT:      -4.1      0.000      0.000
REMARK  Name = *****
REMARK  3 active torsions:
REMARK  status: ('A' for Active; 'I' for Inactive)
REMARK    1  A    between atoms: C_4  and  C_7
REMARK    2  A    between atoms: C_8  and  S_9
REMARK    3  A    between atoms: S_9  and  C_10
REMARK                            x       y       z     vdW  Elec       q    Type
REMARK                         _______ _______ _______ _____ _____    ______ ____
ROOT
ATOM      1  C   UNL     1     101.421 126.612  82.707  0.00  0.00    +0.000 C 
ATOM      2  C   UNL     1     100.113 126.896  82.635  0.00  0.00    +0.000 C 
ENDROOT
BRANCH   1   6
ATOM      3  C   UNL     1     105.051 126.470  80.332  0.00  0.00    +0.000 C 
ATOM      4  C   UNL     1     104.092 125.287  80.256  0.00  0.00    +0.000 C 
ATOM      5  C   UNL     1     103.105 125.290  81.421  0.00  0.00    +0.000 C 
ATOM      6  C   UNL     1     102.339 126.618  81.510  0.00  0.00    +0.000 C 
ATOM      7  C   UNL     1     103.312 127.805  81.586  0.00  0.00    +0.000 C 
ATOM      8  C   UNL     1     104.303 127.796  80.424  0.00  0.00    +0.000 C 
ENDBRANCH   1   6
BRANCH   2   9
ATOM      9  S   UNL     1      99.099 126.851  84.035  0.00  0.00    +0.000 S 
BRANCH   9  10
ATOM     10  C   UNL     1      99.066 128.587  84.470  0.00  0.00    +0.000 A 
ATOM     11  C   UNL     1      99.414 129.519  83.498  0.00  0.00    +0.000 A 
ATOM     12  C   UNL     1      99.406 130.871  83.829  0.00  0.00    +0.000 A 
ATOM     13  C   UNL     1      99.046 131.253  85.115  0.00  0.00    +0.000 A 
ATOM     14  C   UNL     1      98.702 130.262  86.018  0.00  0.00    +0.000 A 
ATOM     15  N   UNL     1      98.702 128.944  85.725  0.00  0.00    +0.000 NA
ENDBRANCH   9  10
ENDBRANCH   2   9
TORSDOF 3
ENDMDL
