MODEL 1
REMARK VINA RESULT:      -5.0      0.000      0.000
REMARK  Name = *****
REMARK  1 active torsions:
REMARK  status: ('A' for Active; 'I' for Inactive)
REMARK    1  A    between atoms: C_4  and  C_7
REMARK                            x       y       z     vdW  Elec       q    Type
REMARK                         _______ _______ _______ _____ _____    ______ ____
ROOT
ATOM      1  C   UNL     1     102.118 125.962  82.676  0.00  0.00    +0.000 C 
ATOM      2  N   UNL     1     102.695 125.736  81.542  0.00  0.00    +0.000 NA
ATOM      3  C   UNL     1     103.724 124.788  81.508  0.00  0.00    +0.000 A 
ATOM      4  C   UNL     1     104.303 124.501  80.267  0.00  0.00    +0.000 A 
ATOM      5  C   UNL     1     105.324 123.560  80.156  0.00  0.00    +0.000 A 
ATOM      6  C   UNL     1     105.773 122.897  81.293  0.00  0.00    +0.000 A 
ATOM      7  C   UNL     1     105.202 123.177  82.538  0.00  0.00    +0.000 A 
ATOM      8  C   UNL     1     104.174 124.128  82.661  0.00  0.00    +0.000 A 
ATOM      9  C   UNL     1     103.520 124.475  83.935  0.00  0.00    +0.000 C 
ATOM     10  C   UNL     1     103.893 124.005  85.133  0.00  0.00    +0.000 C 
ATOM     11 CL   UNL     1     103.124 124.430  86.611  0.00  0.00    +0.000 Cl
ATOM     12  O   UNL     1     102.434 125.383  83.866  0.00  0.00    +0.000 OA
ENDROOT
BRANCH   1  16
ATOM     13  C   UNL     1      98.960 128.815  83.185  0.00  0.00    +0.000 A 
ATOM     14  C   UNL     1      98.690 127.598  82.561  0.00  0.00    +0.000 A 
ATOM     15  C   UNL     1      99.707 126.656  82.390  0.00  0.00    +0.000 A 
ATOM     16  C   UNL     1     101.006 126.931  82.844  0.00  0.00    +0.000 A 
ATOM     17  C   UNL     1     101.269 128.160  83.466  0.00  0.00    +0.000 A 
ATOM     18  C   UNL     1     100.248 129.096  83.638  0.00  0.00    +0.000 A 
ENDBRANCH   1  16
TORSDOF 1
ENDMDL
