MODEL 1
REMARK VINA RESULT:      -4.3      0.000      0.000
REMARK  Name = *****
REMARK  5 active torsions:
REMARK  status: ('A' for Active; 'I' for Inactive)
REMARK    1  A    between atoms: C_1  and  C_2
REMARK    2  A    between atoms: C_4  and  C_10
REMARK    3  A    between atoms: C_10  and  C_12
REMARK    4  A    between atoms: C_12  and  N_13
REMARK    5  A    between atoms: C_14  and  C_19
REMARK                            x       y       z     vdW  Elec       q    Type
REMARK                         _______ _______ _______ _____ _____    ______ ____
ROOT
ATOM      1  C   UNL     1      87.996  70.451  85.366  0.00  0.00    +0.000 C 
ATOM      2  O   UNL     1      89.005  71.098  85.100  0.00  0.00    +0.000 OA
ENDROOT
BRANCH   1   6
ATOM      3  C   UNL     1      83.669  72.785  86.237  0.00  0.00    +0.000 C 
ATOM      4  C   UNL     1      84.916  72.119  86.737  0.00  0.00    +0.000 A 
ATOM      5  C   UNL     1      85.855  71.587  85.845  0.00  0.00    +0.000 A 
ATOM      6  C   UNL     1      87.031  70.999  86.336  0.00  0.00    +0.000 A 
ATOM      7  C   UNL     1      87.284  70.953  87.712  0.00  0.00    +0.000 A 
ATOM      8  C   UNL     1      86.354  71.494  88.600  0.00  0.00    +0.000 A 
ATOM      9  C   UNL     1      85.188  72.073  88.108  0.00  0.00    +0.000 A 
ATOM     10  F   UNL     1      84.313  72.597  88.976  0.00  0.00    +0.000 F 
ATOM     11 CL   UNL     1      88.704  70.226  88.370  0.00  0.00    +0.000 Cl
ENDBRANCH   1   6
BRANCH   1  12
ATOM     12  C   UNL     1      87.663  69.101  84.749  0.00  0.00    +0.000 C 
BRANCH  12  13
ATOM     13  N   UNL     1      88.477  68.061  85.344  0.00  0.00    +0.000 N 
ATOM     14  C   UNL     1      88.098  67.248  86.404  0.00  0.00    +0.000 A 
ATOM     15  C   UNL     1      89.022  66.328  86.715  0.00  0.00    +0.000 A 
ATOM     16  S   UNL     1      90.420  66.426  85.690  0.00  0.00    +0.000 S 
ATOM     17  C   UNL     1      89.715  67.769  84.786  0.00  0.00    +0.000 A 
ATOM     18  O   UNL     1      90.254  68.326  83.843  0.00  0.00    +0.000 OA
ATOM     19  C   UNL     1      86.791  67.410  87.106  0.00  0.00    +0.000 C 
ENDBRANCH  12  13
ENDBRANCH   1  12
TORSDOF 3
ENDMDL
