MODEL 1
REMARK VINA RESULT:      -4.9      0.000      0.000
REMARK  Name = *****
REMARK  5 active torsions:
REMARK  status: ('A' for Active; 'I' for Inactive)
REMARK    1  A    between atoms: C_4  and  O_7
REMARK    2  A    between atoms: O_7  and  N_8
REMARK    3  A    between atoms: N_8  and  C_9
REMARK    4  A    between atoms: C_9  and  C_10
REMARK    5  A    between atoms: C_15  and  C_16
REMARK                            x       y       z     vdW  Elec       q    Type
REMARK                         _______ _______ _______ _____ _____    ______ ____
ROOT
ATOM      1  C   UNL     1     104.221 123.894  82.396  0.00  0.00    +0.000 A 
ATOM      2  C   UNL     1     104.279 122.752  83.211  0.00  0.00    +0.000 A 
ATOM      3  C   UNL     1     104.692 121.528  82.687  0.00  0.00    +0.000 A 
ATOM      4  C   UNL     1     105.051 121.433  81.347  0.00  0.00    +0.000 A 
ATOM      5  C   UNL     1     104.999 122.563  80.529  0.00  0.00    +0.000 A 
ATOM      6  C   UNL     1     104.585 123.809  81.040  0.00  0.00    +0.000 A 
ENDROOT
BRANCH   6   7
ATOM      7  C   UNL     1     104.549 125.008  80.131  0.00  0.00    +0.000 C 
ATOM      8  F   UNL     1     105.126 124.767  78.922  0.00  0.00    +0.000 F 
ATOM      9  F   UNL     1     103.289 125.449  79.854  0.00  0.00    +0.000 F 
ATOM     10  F   UNL     1     105.206 126.079  80.656  0.00  0.00    +0.000 F 
ENDBRANCH   6   7
BRANCH   1  11
ATOM     11  C   UNL     1     103.774 125.172  83.000  0.00  0.00    +0.000 C 
BRANCH  11  12
ATOM     12  N   UNL     1     102.559 125.341  83.417  0.00  0.00    +0.000 NA
BRANCH  12  13
ATOM     13  O   UNL     1     101.774 125.788  82.343  0.00  0.00    +0.000 OA
BRANCH  13  17
ATOM     14  C   UNL     1      99.145 128.875  83.323  0.00  0.00    +0.000 A 
ATOM     15  C   UNL     1     100.489 129.011  83.665  0.00  0.00    +0.000 A 
ATOM     16  C   UNL     1     101.398 127.994  83.360  0.00  0.00    +0.000 A 
ATOM     17  C   UNL     1     100.961 126.835  82.715  0.00  0.00    +0.000 A 
ATOM     18  C   UNL     1      99.613 126.704  82.370  0.00  0.00    +0.000 A 
ATOM     19  C   UNL     1      98.705 127.721  82.675  0.00  0.00    +0.000 A 
ENDBRANCH  13  17
ENDBRANCH  12  13
ENDBRANCH  11  12
ENDBRANCH   1  11
TORSDOF 5
ENDMDL
