MODEL 1
REMARK VINA RESULT:      -4.3      0.000      0.000
REMARK  Name = *****
REMARK  4 active torsions:
REMARK  status: ('A' for Active; 'I' for Inactive)
REMARK    1  A    between atoms: C_4  and  C_7
REMARK    2  A    between atoms: C_7  and  S_8
REMARK    3  A    between atoms: S_8  and  C_9
REMARK    4  A    between atoms: C_12  and  C_15
REMARK                            x       y       z     vdW  Elec       q    Type
REMARK                         _______ _______ _______ _____ _____    ______ ____
ROOT
ATOM      1  S   UNL     1      86.548  69.196  88.588  0.00  0.00    +0.000 S 
ENDROOT
BRANCH   1   2
ATOM      2  C   UNL     1      87.801  68.286  87.706  0.00  0.00    +0.000 A 
ATOM      3  C   UNL     1      88.861  68.931  87.062  0.00  0.00    +0.000 A 
ATOM      4  C   UNL     1      89.838  68.188  86.389  0.00  0.00    +0.000 A 
ATOM      5  C   UNL     1      89.763  66.792  86.363  0.00  0.00    +0.000 A 
ATOM      6  C   UNL     1      88.713  66.143  87.018  0.00  0.00    +0.000 A 
ATOM      7  C   UNL     1      87.739  66.889  87.690  0.00  0.00    +0.000 A 
BRANCH   5   8
ATOM      8  C   UNL     1      90.764  66.030  85.674  0.00  0.00    +0.000 C 
ATOM      9  N   UNL     1      91.576  65.416  85.118  0.00  0.00    +0.000 NA
ENDBRANCH   5   8
ENDBRANCH   1   2
BRANCH   1  10
ATOM     10  C   UNL     1      87.030  70.902  88.161  0.00  0.00    +0.000 C 
BRANCH  10  14
ATOM     11  C   UNL     1      84.329  72.599  85.257  0.00  0.00    +0.000 A 
ATOM     12  C   UNL     1      84.004  72.628  86.612  0.00  0.00    +0.000 A 
ATOM     13  C   UNL     1      84.877  72.081  87.553  0.00  0.00    +0.000 A 
ATOM     14  C   UNL     1      86.090  71.503  87.147  0.00  0.00    +0.000 A 
ATOM     15  C   UNL     1      86.400  71.471  85.780  0.00  0.00    +0.000 A 
ATOM     16  C   UNL     1      85.525  72.019  84.841  0.00  0.00    +0.000 A 
ENDBRANCH  10  14
ENDBRANCH   1  10
TORSDOF 4
ENDMDL
