REMARK  Name = *****
REMARK  3 active torsions:
REMARK  status: ('A' for Active; 'I' for Inactive)
REMARK    1  A    between atoms: C_5  and  C_7
REMARK    2  A    between atoms: C_7  and  C_8
REMARK    3  A    between atoms: C_9  and  C_10
REMARK                            x       y       z     vdW  Elec       q    Type
REMARK                         _______ _______ _______ _____ _____    ______ ____
ROOT
ATOM      1  C   UNL     1      -3.421  -1.548  -0.976  0.00  0.00    +0.000 C 
ATOM      2  C   UNL     1      -4.321  -2.441  -0.535  0.00  0.00    +0.000 C 
ENDROOT
BRANCH   2   3
ATOM      3  C   UNL     1      -5.774  -2.217  -0.521  0.00  0.00    +0.000 A 
ATOM      4  C   UNL     1      -6.435  -1.520  -1.542  0.00  0.00    +0.000 A 
ATOM      5  C   UNL     1      -7.822  -1.356  -1.508  0.00  0.00    +0.000 A 
ATOM      6  C   UNL     1      -8.564  -1.896  -0.460  0.00  0.00    +0.000 A 
ATOM      7  C   UNL     1      -7.921  -2.604   0.552  0.00  0.00    +0.000 A 
ATOM      8  C   UNL     1      -6.534  -2.769   0.518  0.00  0.00    +0.000 A 
ENDBRANCH   2   3
BRANCH   1   9
ATOM      9  C   UNL     1      -1.935  -1.796  -0.982  0.00  0.00    +0.000 C 
BRANCH   9  14
ATOM     10  C   UNL     1      -0.262   1.442   0.404  0.00  0.00    +0.000 C 
ATOM     11  C   UNL     1       1.165   1.002   0.079  0.00  0.00    +0.000 C 
ATOM     12  C   UNL     1       1.328  -0.488   0.092  0.00  0.00    +0.000 C 
ATOM     13  C   UNL     1       0.293  -1.342   0.080  0.00  0.00    +0.000 C 
ATOM     14  C   UNL     1      -1.156  -0.905   0.011  0.00  0.00    +0.000 C 
ATOM     15  C   UNL     1      -1.288   0.592  -0.342  0.00  0.00    +0.000 C 
ENDBRANCH   9  14
ENDBRANCH   1   9
TORSDOF 3
