MODEL 1
REMARK VINA RESULT:      -4.3      0.000      0.000
REMARK  Name = *****
REMARK  4 active torsions:
REMARK  status: ('A' for Active; 'I' for Inactive)
REMARK    1  A    between atoms: C_4  and  N_7
REMARK    2  A    between atoms: N_7  and  C_8
REMARK    3  A    between atoms: C_8  and  C_10
REMARK    4  A    between atoms: C_10  and  C_11
REMARK                            x       y       z     vdW  Elec       q    Type
REMARK                         _______ _______ _______ _____ _____    ______ ____
ROOT
ATOM      1  C   UNL     1      89.506  65.844  86.406  0.00  0.00    +0.000 C 
ATOM      2  S   UNL     1      90.852  65.833  85.406  0.00  0.00    +0.000 S 
ENDROOT
BRANCH   1   3
ATOM      3  N   UNL     1      89.348  65.093  87.558  0.00  0.00    +0.000 N 
ATOM      4  H   UNL     1      90.153  64.952  88.107  0.00  0.00    +0.000 HD
BRANCH   3   8
ATOM      5  C   UNL     1      86.599  62.115  88.987  0.00  0.00    +0.000 C 
ATOM      6  C   UNL     1      87.062  63.194  89.961  0.00  0.00    +0.000 C 
ATOM      7  C   UNL     1      88.311  63.911  89.457  0.00  0.00    +0.000 C 
ATOM      8  C   UNL     1      88.107  64.483  88.048  0.00  0.00    +0.000 C 
ATOM      9  C   UNL     1      87.649  63.387  87.077  0.00  0.00    +0.000 C 
ATOM     10  C   UNL     1      86.398  62.675  87.582  0.00  0.00    +0.000 C 
ENDBRANCH   3   8
ENDBRANCH   1   3
BRANCH   1  11
ATOM     11  C   UNL     1      88.344  66.794  86.116  0.00  0.00    +0.000 C 
BRANCH  11  12
ATOM     12  C   UNL     1      88.389  68.056  86.950  0.00  0.00    +0.000 A 
ATOM     13  C   UNL     1      87.425  68.293  87.939  0.00  0.00    +0.000 A 
ATOM     14  C   UNL     1      87.464  69.464  88.698  0.00  0.00    +0.000 A 
ATOM     15  C   UNL     1      88.468  70.405  88.480  0.00  0.00    +0.000 A 
ATOM     16  C   UNL     1      89.436  70.176  87.503  0.00  0.00    +0.000 A 
ATOM     17  C   UNL     1      89.399  69.007  86.743  0.00  0.00    +0.000 A 
ENDBRANCH  11  12
ENDBRANCH   1  11
TORSDOF 4
ENDMDL
