REMARK  Name = *****
REMARK  6 active torsions:
REMARK  status: ('A' for Active; 'I' for Inactive)
REMARK    1  A    between atoms: C_1  and  C_2
REMARK    2  A    between atoms: C_5  and  C_8
REMARK    3  A    between atoms: C_9  and  C_10
REMARK    4  A    between atoms: C_9  and  O_16
REMARK    5  A    between atoms: O_16  and  C_17
REMARK    6  A    between atoms: C_17  and  C_19
REMARK                            x       y       z     vdW  Elec       q    Type
REMARK                         _______ _______ _______ _____ _____    ______ ____
ROOT
ATOM      1  C   UNL     1      -3.291   0.124  -0.114  0.00  0.00    +0.000 C 
ATOM      2  C   UNL     1      -4.034   1.242  -0.198  0.00  0.00    +0.000 C 
ENDROOT
BRANCH   1   7
ATOM      3  C   UNL     1       2.478   0.179  -0.322  0.00  0.00    +0.000 C 
ATOM      4  C   UNL     1       0.979   0.190  -0.270  0.00  0.00    +0.000 A 
ATOM      5  C   UNL     1       0.312   0.288   0.957  0.00  0.00    +0.000 A 
ATOM      6  C   UNL     1      -1.084   0.264   1.008  0.00  0.00    +0.000 A 
ATOM      7  C   UNL     1      -1.829   0.131  -0.167  0.00  0.00    +0.000 A 
ATOM      8  C   UNL     1      -1.168   0.022  -1.393  0.00  0.00    +0.000 A 
ATOM      9  C   UNL     1       0.229   0.044  -1.443  0.00  0.00    +0.000 A 
ENDBRANCH   1   7
BRANCH   2  10
ATOM     10  C   UNL     1      -5.507   1.210  -0.203  0.00  0.00    +0.000 A 
ATOM     11  C   UNL     1      -6.218   0.543   0.803  0.00  0.00    +0.000 A 
ATOM     12  C   UNL     1      -7.615   0.528   0.795  0.00  0.00    +0.000 A 
ATOM     13  C   UNL     1      -8.314   1.183  -0.217  0.00  0.00    +0.000 A 
ATOM     14  C   UNL     1      -7.619   1.858  -1.218  0.00  0.00    +0.000 A 
ATOM     15  C   UNL     1      -6.222   1.874  -1.210  0.00  0.00    +0.000 A 
ENDBRANCH   2  10
BRANCH   2  16
ATOM     16  O   UNL     1      -3.465   2.508  -0.403  0.00  0.00    +0.000 OA
BRANCH  16  17
ATOM     17  C   UNL     1      -3.163   3.151   0.772  0.00  0.00    +0.000 C 
ATOM     18  O   UNL     1      -3.373   2.755   1.913  0.00  0.00    +0.000 OA
ATOM     19  C   UNL     1      -2.510   4.463   0.454  0.00  0.00    +0.000 C 
ENDBRANCH  16  17
ENDBRANCH   2  16
TORSDOF 4
