MODEL 1
REMARK VINA RESULT:      -4.6      0.000      0.000
REMARK  Name = *****
REMARK  4 active torsions:
REMARK  status: ('A' for Active; 'I' for Inactive)
REMARK    1  A    between atoms: C_1  and  C_2
REMARK    2  A    between atoms: C_4  and  C_8
REMARK    3  A    between atoms: C_9  and  C_10
REMARK    4  A    between atoms: C_13  and  C_15
REMARK                            x       y       z     vdW  Elec       q    Type
REMARK                         _______ _______ _______ _____ _____    ______ ____
ROOT
ATOM      1  C   UNL     1     102.056 126.278  81.950  0.00  0.00    +0.000 C 
ATOM      2  C   UNL     1     102.926 125.602  81.469  0.00  0.00    +0.000 C 
ENDROOT
BRANCH   1   6
ATOM      3  C   UNL     1     100.700 130.300  84.533  0.00  0.00    +0.000 C 
ATOM      4  C   UNL     1     100.349 129.042  83.797  0.00  0.00    +0.000 A 
ATOM      5  C   UNL     1     101.353 128.245  83.231  0.00  0.00    +0.000 A 
ATOM      6  C   UNL     1     101.024 127.089  82.516  0.00  0.00    +0.000 A 
ATOM      7  C   UNL     1      99.686 126.730  82.353  0.00  0.00    +0.000 A 
ATOM      8  C   UNL     1      98.678 127.526  82.900  0.00  0.00    +0.000 A 
ATOM      9  C   UNL     1      99.008 128.679  83.614  0.00  0.00    +0.000 A 
ENDBRANCH   1   6
BRANCH   2  10
ATOM     10  C   UNL     1     103.956 124.804  80.895  0.00  0.00    +0.000 A 
ATOM     11  C   UNL     1     104.352 123.570  81.358  0.00  0.00    +0.000 A 
ATOM     12  S   UNL     1     105.618 122.971  80.369  0.00  0.00    +0.000 S 
ATOM     13  C   UNL     1     105.529 124.401  79.414  0.00  0.00    +0.000 A 
ATOM     14  N   UNL     1     104.623 125.280  79.789  0.00  0.00    +0.000 NA
ATOM     15  C   UNL     1     106.441 124.577  78.252  0.00  0.00    +0.000 C 
ENDBRANCH   2  10
TORSDOF 2
ENDMDL
