MODEL 1
REMARK VINA RESULT:      -5.1      0.000      0.000
REMARK  Name = *****
REMARK  3 active torsions:
REMARK  status: ('A' for Active; 'I' for Inactive)
REMARK    1  A    between atoms: C_1  and  C_2
REMARK    2  A    between atoms: C_3  and  N_9
REMARK    3  A    between atoms: C_10  and  C_12
REMARK                            x       y       z     vdW  Elec       q    Type
REMARK                         _______ _______ _______ _____ _____    ______ ____
ROOT
ATOM      1  N   UNL     1     102.332 126.308  82.050  0.00  0.00    +0.000 N 
ATOM      2  C   UNL     1     102.939 125.235  82.677  0.00  0.00    +0.000 C 
ATOM      3  O   UNL     1     102.837 124.924  83.857  0.00  0.00    +0.000 OA
ATOM      4  H   UNL     1     102.611 126.487  81.123  0.00  0.00    +0.000 HD
ENDROOT
BRANCH   1   7
ATOM      5  C   UNL     1     102.981 128.857  83.688  0.00  0.00    +0.000 C 
ATOM      6  C   UNL     1     101.612 128.366  83.304  0.00  0.00    +0.000 A 
ATOM      7  C   UNL     1     101.357 127.178  82.591  0.00  0.00    +0.000 A 
ATOM      8  C   UNL     1     100.027 126.757  82.427  0.00  0.00    +0.000 A 
ATOM      9  C   UNL     1      98.973 127.539  82.887  0.00  0.00    +0.000 A 
ATOM     10  C   UNL     1      99.207 128.741  83.529  0.00  0.00    +0.000 A 
ATOM     11  C   UNL     1     100.520 129.152  83.738  0.00  0.00    +0.000 A 
ATOM     12  F   UNL     1      97.714 127.123  82.696  0.00  0.00    +0.000 F 
ENDBRANCH   1   7
BRANCH   2  13
ATOM     13  C   UNL     1     103.878 124.460  81.818  0.00  0.00    +0.000 A 
ATOM     14  C   UNL     1     104.265 125.004  80.589  0.00  0.00    +0.000 A 
ATOM     15  C   UNL     1     105.142 124.297  79.776  0.00  0.00    +0.000 A 
ATOM     16  C   UNL     1     105.650 123.062  80.166  0.00  0.00    +0.000 A 
ATOM     17  C   UNL     1     105.282 122.523  81.399  0.00  0.00    +0.000 A 
ATOM     18  C   UNL     1     104.400 123.222  82.228  0.00  0.00    +0.000 A 
ATOM     19  F   UNL     1     105.506 124.812  78.594  0.00  0.00    +0.000 F 
ENDBRANCH   2  13
TORSDOF 2
ENDMDL
