MODEL 1
REMARK VINA RESULT:      -4.1      0.000      0.000
REMARK  Name = *****
REMARK  4 active torsions:
REMARK  status: ('A' for Active; 'I' for Inactive)
REMARK    1  A    between atoms: C_2  and  C_3
REMARK    2  A    between atoms: C_3  and  N_4
REMARK    3  A    between atoms: C_5  and  C_11
REMARK    4  A    between atoms: C_12  and  C_13
REMARK                            x       y       z     vdW  Elec       q    Type
REMARK                         _______ _______ _______ _____ _____    ______ ____
ROOT
ATOM      1  N   UNL     1     105.780 124.613  80.015  0.00  0.00    +0.000 NA
ATOM      2  C   UNL     1     104.783 124.086  80.650  0.00  0.00    +0.000 C 
ATOM      3  C   UNL     1     104.628 122.596  80.776  0.00  0.00    +0.000 C 
ATOM      4  C   UNL     1     105.722 121.984  81.647  0.00  0.00    +0.000 C 
ATOM      5  C   UNL     1     107.033 121.762  80.895  0.00  0.00    +0.000 C 
ATOM      6  C   UNL     1     107.675 123.038  80.352  0.00  0.00    +0.000 C 
ATOM      7  C   UNL     1     106.815 123.763  79.324  0.00  0.00    +0.000 C 
ENDROOT
BRANCH   2   8
ATOM      8  C   UNL     1     103.806 124.953  81.254  0.00  0.00    +0.000 C 
ATOM      9  C   UNL     1     102.995 125.693  81.740  0.00  0.00    +0.000 C 
BRANCH   9  10
ATOM     10  C   UNL     1     102.030 126.583  82.312  0.00  0.00    +0.000 A 
ATOM     11  C   UNL     1     102.450 127.739  82.976  0.00  0.00    +0.000 A 
ATOM     12  C   UNL     1     101.506 128.606  83.534  0.00  0.00    +0.000 A 
ATOM     13  C   UNL     1     100.147 128.314  83.426  0.00  0.00    +0.000 A 
ATOM     14  C   UNL     1      99.724 127.162  82.765  0.00  0.00    +0.000 A 
ATOM     15  C   UNL     1     100.667 126.295  82.207  0.00  0.00    +0.000 A 
ATOM     16 CL   UNL     1      98.988 129.382  84.112  0.00  0.00    +0.000 Cl
ENDBRANCH   9  10
ENDBRANCH   2   8
BRANCH   1  17
ATOM     17  C   UNL     1     106.009 126.100  79.902  0.00  0.00    +0.000 C 
BRANCH  17  19
ATOM     18  C   UNL     1     106.854 126.799  82.165  0.00  0.00    +0.000 C 
ATOM     19  C   UNL     1     107.067 126.547  80.865  0.00  0.00    +0.000 C 
ENDBRANCH  17  19
ENDBRANCH   1  17
TORSDOF 4
ENDMDL
