MODEL 1
REMARK VINA RESULT:      -4.5      0.000      0.000
REMARK  Name = *****
REMARK  2 active torsions:
REMARK  status: ('A' for Active; 'I' for Inactive)
REMARK    1  A    between atoms: C_6  and  C_7
REMARK    2  A    between atoms: C_8  and  C_9
REMARK                            x       y       z     vdW  Elec       q    Type
REMARK                         _______ _______ _______ _____ _____    ______ ____
ROOT
ATOM      1  C   UNL     1     102.614 125.916  81.585  0.00  0.00    +0.000 C 
ATOM      2  C   UNL     1     101.742 125.915  82.608  0.00  0.00    +0.000 C 
ENDROOT
BRANCH   1   8
ATOM      3  C   UNL     1     104.153 124.142  82.490  0.00  0.00    +0.000 A 
ATOM      4  C   UNL     1     105.201 123.234  82.303  0.00  0.00    +0.000 A 
ATOM      5  C   UNL     1     105.800 123.118  81.052  0.00  0.00    +0.000 A 
ATOM      6  C   UNL     1     105.365 123.903  79.988  0.00  0.00    +0.000 A 
ATOM      7  C   UNL     1     104.317 124.810  80.177  0.00  0.00    +0.000 A 
ATOM      8  C   UNL     1     103.691 124.928  81.425  0.00  0.00    +0.000 A 
ATOM      9 BR   UNL     1     107.217 121.893  80.799  0.00  0.00    +0.000 Br
ENDBRANCH   1   8
BRANCH   2  10
ATOM     10  C   UNL     1     100.666 126.901  82.763  0.00  0.00    +0.000 A 
ATOM     11  C   UNL     1      99.408 126.647  82.234  0.00  0.00    +0.000 A 
ATOM     12  N   UNL     1      98.380 127.522  82.311  0.00  0.00    +0.000 NA
ATOM     13  N   UNL     1      98.571 128.718  82.922  0.00  0.00    +0.000 NA
ATOM     14  C   UNL     1      99.784 129.010  83.435  0.00  0.00    +0.000 A 
ATOM     15  C   UNL     1     100.855 128.138  83.373  0.00  0.00    +0.000 A 
ENDBRANCH   2  10
TORSDOF 2
ENDMDL
