MODEL 1
REMARK VINA RESULT:      -4.2      0.000      0.000
REMARK  Name = *****
REMARK  1 active torsions:
REMARK  status: ('A' for Active; 'I' for Inactive)
REMARK    1  A    between atoms: C_4  and  N_7
REMARK                            x       y       z     vdW  Elec       q    Type
REMARK                         _______ _______ _______ _____ _____    ______ ____
ROOT
ATOM      1  N   UNL     1     102.924 126.536  82.095  0.00  0.00    +0.000 N 
ATOM      2  S   UNL     1     103.190 124.985  82.716  0.00  0.00    +0.000 S 
ATOM      3  C   UNL     1     104.303 124.498  81.432  0.00  0.00    +0.000 A 
ATOM      4  C   UNL     1     104.775 123.203  81.235  0.00  0.00    +0.000 A 
ATOM      5  C   UNL     1     105.631 122.946  80.162  0.00  0.00    +0.000 A 
ATOM      6  C   UNL     1     106.005 123.978  79.294  0.00  0.00    +0.000 A 
ATOM      7  C   UNL     1     105.529 125.274  79.498  0.00  0.00    +0.000 A 
ATOM      8  C   UNL     1     104.681 125.526  80.575  0.00  0.00    +0.000 A 
ATOM      9  S   UNL     1     104.034 127.154  80.955  0.00  0.00    +0.000 S 
ATOM     10  O   UNL     1     103.367 127.629  79.698  0.00  0.00    +0.000 OA
ENDROOT
BRANCH   1  14
ATOM     11  C   UNL     1     100.140 129.172  83.997  0.00  0.00    +0.000 A 
ATOM     12  C   UNL     1     101.504 129.415  84.089  0.00  0.00    +0.000 A 
ATOM     13  C   UNL     1     102.416 128.551  83.469  0.00  0.00    +0.000 A 
ATOM     14  C   UNL     1     101.995 127.422  82.735  0.00  0.00    +0.000 A 
ATOM     15  C   UNL     1     100.605 127.204  82.671  0.00  0.00    +0.000 A 
ATOM     16  C   UNL     1      99.690 128.064  83.290  0.00  0.00    +0.000 A 
ENDBRANCH   1  14
TORSDOF 1
ENDMDL
