REMARK  Name = *****
REMARK  3 active torsions:
REMARK  status: ('A' for Active; 'I' for Inactive)
REMARK    1  A    between atoms: C_4  and  N_7
REMARK    2  A    between atoms: N_7  and  N_17
REMARK    3  A    between atoms: C_8  and  C_10
REMARK                            x       y       z     vdW  Elec       q    Type
REMARK                         _______ _______ _______ _____ _____    ______ ____
ROOT
ATOM      1  N   UNL     1      -2.716   0.459  -0.353  0.00  0.00    +0.000 N 
ATOM      2  C   UNL     1      -3.277   1.728  -0.102  0.00  0.00    +0.000 C 
ATOM      3  O   UNL     1      -2.688   2.712   0.348  0.00  0.00    +0.000 OA
ENDROOT
BRANCH   2   4
ATOM      4  C   UNL     1      -4.718   1.942  -0.411  0.00  0.00    +0.000 A 
ATOM      5  C   UNL     1      -5.708   1.112   0.134  0.00  0.00    +0.000 A 
ATOM      6  C   UNL     1      -7.054   1.361  -0.149  0.00  0.00    +0.000 A 
ATOM      7  C   UNL     1      -7.406   2.443  -0.958  0.00  0.00    +0.000 A 
ATOM      8  C   UNL     1      -6.425   3.286  -1.480  0.00  0.00    +0.000 A 
ATOM      9  C   UNL     1      -5.079   3.041  -1.201  0.00  0.00    +0.000 A 
ATOM     10 CL   UNL     1      -9.064   2.745  -1.302  0.00  0.00    +0.000 Cl
ENDBRANCH   2   4
BRANCH   1  14
ATOM     11  C   UNL     1       1.253  -0.537   0.894  0.00  0.00    +0.000 A 
ATOM     12  C   UNL     1       0.521   0.423   1.582  0.00  0.00    +0.000 A 
ATOM     13  C   UNL     1      -0.778   0.748   1.171  0.00  0.00    +0.000 A 
ATOM     14  C   UNL     1      -1.374   0.122   0.062  0.00  0.00    +0.000 A 
ATOM     15  C   UNL     1      -0.611  -0.849  -0.614  0.00  0.00    +0.000 A 
ATOM     16  C   UNL     1       0.688  -1.174  -0.204  0.00  0.00    +0.000 A 
ENDBRANCH   1  14
BRANCH   1  17
ATOM     17  N   UNL     1      -3.418  -0.380  -1.241  0.00  0.00    +0.000 NA
ATOM     18  O   UNL     1      -3.391  -1.575  -0.922  0.00  0.00    +0.000 OA
ENDBRANCH   1  17
TORSDOF 3
