REMARK  Name = *****
REMARK  4 active torsions:
REMARK  status: ('A' for Active; 'I' for Inactive)
REMARK    1  A    between atoms: C_4  and  S_7
REMARK    2  A    between atoms: S_7  and  C_8
REMARK    3  A    between atoms: C_8  and  S_10
REMARK    4  A    between atoms: S_10  and  C_11
REMARK                            x       y       z     vdW  Elec       q    Type
REMARK                         _______ _______ _______ _____ _____    ______ ____
ROOT
ATOM      1  C   UNL     1      -2.886  -1.286  -0.864  0.00  0.00    +0.000 C 
ATOM      2  P   UNL     1      -1.352  -1.916  -1.245  0.00  0.00    +0.000 P 
ATOM      3  H   UNL     1      -0.299  -1.112  -1.294  0.00  0.00    +0.000 HD
ENDROOT
BRANCH   1   4
ATOM      4  S   UNL     1      -3.095   0.411  -0.542  0.00  0.00    +0.000 S 
BRANCH   4   8
ATOM      5  C   UNL     1      -1.874   0.652   3.868  0.00  0.00    +0.000 A 
ATOM      6  C   UNL     1      -3.080   0.048   3.516  0.00  0.00    +0.000 A 
ATOM      7  C   UNL     1      -3.459  -0.028   2.174  0.00  0.00    +0.000 A 
ATOM      8  C   UNL     1      -2.628   0.492   1.176  0.00  0.00    +0.000 A 
ATOM      9  C   UNL     1      -1.425   1.107   1.537  0.00  0.00    +0.000 A 
ATOM     10  C   UNL     1      -1.047   1.184   2.880  0.00  0.00    +0.000 A 
ENDBRANCH   4   8
ENDBRANCH   1   4
BRANCH   1  11
ATOM     11  S   UNL     1      -4.266  -2.343  -0.800  0.00  0.00    +0.000 S 
BRANCH  11  12
ATOM     12  C   UNL     1      -5.171  -1.804  -2.238  0.00  0.00    +0.000 A 
ATOM     13  C   UNL     1      -4.741  -2.152  -3.523  0.00  0.00    +0.000 A 
ATOM     14  C   UNL     1      -5.457  -1.727  -4.644  0.00  0.00    +0.000 A 
ATOM     15  C   UNL     1      -6.610  -0.959  -4.485  0.00  0.00    +0.000 A 
ATOM     16  C   UNL     1      -7.049  -0.618  -3.207  0.00  0.00    +0.000 A 
ATOM     17  C   UNL     1      -6.334  -1.043  -2.085  0.00  0.00    +0.000 A 
ENDBRANCH  11  12
ENDBRANCH   1  11
TORSDOF 4
