REMARK  Name = *****
REMARK  3 active torsions:
REMARK  status: ('A' for Active; 'I' for Inactive)
REMARK    1  A    between atoms: C_6  and  C_7
REMARK    2  A    between atoms: C_7  and  C_8
REMARK    3  A    between atoms: C_9  and  C_10
REMARK                            x       y       z     vdW  Elec       q    Type
REMARK                         _______ _______ _______ _____ _____    ______ ____
ROOT
ATOM      1  C   UNL     1      -4.024   1.425   0.036  0.00  0.00    +0.000 C 
ATOM      2  C   UNL     1      -5.325   1.728  -0.089  0.00  0.00    +0.000 C 
ENDROOT
BRANCH   2   3
ATOM      3  C   UNL     1      -5.797   3.111  -0.064  0.00  0.00    +0.000 A 
ATOM      4  C   UNL     1      -5.980   3.809  -1.264  0.00  0.00    +0.000 A 
ATOM      5  C   UNL     1      -6.431   5.130  -1.243  0.00  0.00    +0.000 A 
ATOM      6  C   UNL     1      -6.693   5.745  -0.024  0.00  0.00    +0.000 A 
ATOM      7  C   UNL     1      -6.511   5.066   1.175  0.00  0.00    +0.000 A 
ATOM      8  C   UNL     1      -6.060   3.745   1.157  0.00  0.00    +0.000 A 
ATOM      9  F   UNL     1      -7.127   7.012  -0.005  0.00  0.00    +0.000 F 
ENDBRANCH   2   3
BRANCH   1  10
ATOM     10  C   UNL     1      -3.489   0.021   0.013  0.00  0.00    +0.000 C 
BRANCH  10  16
ATOM     11  C   UNL     1      -2.906  -0.210  -2.439  0.00  0.00    +0.000 A 
ATOM     12  C   UNL     1      -1.985  -0.422  -3.466  0.00  0.00    +0.000 A 
ATOM     13  C   UNL     1      -0.647  -0.628  -3.153  0.00  0.00    +0.000 A 
ATOM     14  C   UNL     1      -0.212  -0.624  -1.833  0.00  0.00    +0.000 A 
ATOM     15  C   UNL     1      -1.131  -0.410  -0.805  0.00  0.00    +0.000 A 
ATOM     16  C   UNL     1      -2.489  -0.203  -1.098  0.00  0.00    +0.000 A 
ATOM     17  F   UNL     1       0.237  -0.834  -4.138  0.00  0.00    +0.000 F 
ENDBRANCH  10  16
ENDBRANCH   1  10
TORSDOF 3
