MODEL 1
REMARK VINA RESULT:      -4.0      0.000      0.000
REMARK  Name = *****
REMARK  2 active torsions:
REMARK  status: ('A' for Active; 'I' for Inactive)
REMARK    1  A    between atoms: C_4  and  C_7
REMARK    2  A    between atoms: C_8  and  C_9
REMARK                            x       y       z     vdW  Elec       q    Type
REMARK                         _______ _______ _______ _____ _____    ______ ____
ROOT
ATOM      1  C   UNL     1      98.014 118.502  80.615  0.00  0.00    +0.000 C 
ATOM      2  C   UNL     1      97.566 117.583  79.985  0.00  0.00    +0.000 C 
ENDROOT
BRANCH   1   6
ATOM      3  C   UNL     1      96.789 120.183  83.704  0.00  0.00    +0.000 C 
ATOM      4  C   UNL     1      97.728 118.981  83.699  0.00  0.00    +0.000 C 
ATOM      5  C   UNL     1      98.945 119.216  82.803  0.00  0.00    +0.000 C 
ATOM      6  C   UNL     1      98.566 119.640  81.377  0.00  0.00    +0.000 C 
ATOM      7  C   UNL     1      97.585 120.821  81.392  0.00  0.00    +0.000 C 
ATOM      8  C   UNL     1      96.373 120.579  82.291  0.00  0.00    +0.000 C 
ENDBRANCH   1   6
BRANCH   2   9
ATOM      9  C   UNL     1      97.034 116.500  79.226  0.00  0.00    +0.000 A 
ATOM     10  C   UNL     1      97.412 116.177  77.940  0.00  0.00    +0.000 A 
ATOM     11  C   UNL     1      96.707 115.042  77.440  0.00  0.00    +0.000 A 
ATOM     12  C   UNL     1      95.816 114.542  78.364  0.00  0.00    +0.000 A 
ATOM     13  S   UNL     1      95.834 115.439  79.821  0.00  0.00    +0.000 S 
ENDBRANCH   2   9
TORSDOF 2
ENDMDL
