MODEL 1
REMARK VINA RESULT:      -4.8      0.000      0.000
REMARK  Name = *****
REMARK  5 active torsions:
REMARK  status: ('A' for Active; 'I' for Inactive)
REMARK    1  A    between atoms: C_1  and  C_2
REMARK    2  A    between atoms: C_5  and  C_8
REMARK    3  A    between atoms: C_8  and  O_9
REMARK    4  A    between atoms: O_9  and  C_10
REMARK    5  A    between atoms: C_12  and  C_17
REMARK                            x       y       z     vdW  Elec       q    Type
REMARK                         _______ _______ _______ _____ _____    ______ ____
ROOT
ATOM      1  O   UNL     1      88.511  70.001  87.063  0.00  0.00    +0.000 OA
ENDROOT
BRANCH   1   2
ATOM      2  C   UNL     1      88.727  68.656  86.959  0.00  0.00    +0.000 A 
ATOM      3  C   UNL     1      89.802  68.039  86.315  0.00  0.00    +0.000 A 
ATOM      4  C   UNL     1      89.914  66.635  86.277  0.00  0.00    +0.000 A 
ATOM      5  C   UNL     1      88.922  65.861  86.900  0.00  0.00    +0.000 A 
ATOM      6  C   UNL     1      87.847  66.474  87.544  0.00  0.00    +0.000 A 
ATOM      7  C   UNL     1      87.753  67.866  87.571  0.00  0.00    +0.000 A 
ATOM      8 CL   UNL     1      88.988  64.135  86.897  0.00  0.00    +0.000 Cl
ATOM      9  C   UNL     1      91.084  66.006  85.574  0.00  0.00    +0.000 C 
ENDBRANCH   1   2
BRANCH   1  10
ATOM     10  C   UNL     1      87.874  70.649  85.962  0.00  0.00    +0.000 C 
BRANCH  10  15
ATOM     11  C   UNL     1      82.935  73.124  87.827  0.00  0.00    +0.000 C 
ATOM     12  C   UNL     1      84.217  72.510  87.348  0.00  0.00    +0.000 A 
ATOM     13  C   UNL     1      85.135  71.980  88.261  0.00  0.00    +0.000 A 
ATOM     14  C   UNL     1      86.312  71.378  87.813  0.00  0.00    +0.000 A 
ATOM     15  C   UNL     1      86.588  71.280  86.441  0.00  0.00    +0.000 A 
ATOM     16  C   UNL     1      85.662  71.801  85.529  0.00  0.00    +0.000 A 
ATOM     17  C   UNL     1      84.484  72.404  85.979  0.00  0.00    +0.000 A 
ENDBRANCH  10  15
ENDBRANCH   1  10
TORSDOF 3
ENDMDL
