MODEL 1
REMARK VINA RESULT:      -4.4      0.000      0.000
REMARK  Name = *****
REMARK  2 active torsions:
REMARK  status: ('A' for Active; 'I' for Inactive)
REMARK    1  A    between atoms: C_4  and  C_7
REMARK    2  A    between atoms: C_8  and  C_11
REMARK                            x       y       z     vdW  Elec       q    Type
REMARK                         _______ _______ _______ _____ _____    ______ ____
ROOT
ATOM      1  C   UNL     1      88.150  68.907  86.930  0.00  0.00    +0.000 C 
ATOM      2  C   UNL     1      88.620  69.270  85.610  0.00  0.00    +0.000 C 
ATOM      3  C   UNL     1      89.533  68.799  86.458  0.00  0.00    +0.000 C 
ATOM      4 CL   UNL     1      90.137  67.190  86.398  0.00  0.00    +0.000 Cl
ENDROOT
BRANCH   1   8
ATOM      5  C   UNL     1      87.117  71.967  89.833  0.00  0.00    +0.000 A 
ATOM      6  C   UNL     1      86.185  71.539  88.892  0.00  0.00    +0.000 A 
ATOM      7  C   UNL     1      86.535  70.557  87.961  0.00  0.00    +0.000 A 
ATOM      8  C   UNL     1      87.820  69.982  87.934  0.00  0.00    +0.000 A 
ATOM      9  C   UNL     1      88.732  70.424  88.911  0.00  0.00    +0.000 A 
ATOM     10  C   UNL     1      88.390  71.407  89.844  0.00  0.00    +0.000 A 
ENDBRANCH   1   8
BRANCH   2  11
ATOM     11  C   UNL     1      88.647  70.566  84.938  0.00  0.00    +0.000 A 
ATOM     12  C   UNL     1      89.834  71.284  84.738  0.00  0.00    +0.000 A 
ATOM     13  C   UNL     1      89.818  72.507  84.062  0.00  0.00    +0.000 A 
ATOM     14  C   UNL     1      88.618  73.019  83.571  0.00  0.00    +0.000 A 
ATOM     15  C   UNL     1      87.435  72.306  83.748  0.00  0.00    +0.000 A 
ATOM     16  C   UNL     1      87.452  71.082  84.421  0.00  0.00    +0.000 A 
ENDBRANCH   2  11
TORSDOF 2
ENDMDL
