MODEL 1
REMARK VINA RESULT:      -4.8      0.000      0.000
REMARK  Name = *****
REMARK  2 active torsions:
REMARK  status: ('A' for Active; 'I' for Inactive)
REMARK    1  A    between atoms: C_3  and  C_8
REMARK    2  A    between atoms: C_9  and  C_10
REMARK                            x       y       z     vdW  Elec       q    Type
REMARK                         _______ _______ _______ _____ _____    ______ ____
ROOT
ATOM      1  C   UNL     1     102.095 126.314  82.101  0.00  0.00    +0.000 C 
ATOM      2  C   UNL     1     102.934 125.587  81.644  0.00  0.00    +0.000 C 
ENDROOT
BRANCH   1   5
ATOM      3  C   UNL     1     100.522 129.188  83.888  0.00  0.00    +0.000 A 
ATOM      4  C   UNL     1     101.489 128.333  83.351  0.00  0.00    +0.000 A 
ATOM      5  C   UNL     1     101.103 127.188  82.647  0.00  0.00    +0.000 A 
ATOM      6  C   UNL     1      99.749 126.897  82.478  0.00  0.00    +0.000 A 
ATOM      7  C   UNL     1      98.796 127.755  83.017  0.00  0.00    +0.000 A 
ATOM      8  C   UNL     1      99.169 128.896  83.720  0.00  0.00    +0.000 A 
ATOM      9  F   UNL     1      97.495 127.477  82.858  0.00  0.00    +0.000 F 
ENDBRANCH   1   5
BRANCH   2  10
ATOM     10  C   UNL     1     103.933 124.726  81.097  0.00  0.00    +0.000 A 
ATOM     11  N   UNL     1     104.147 123.591  81.798  0.00  0.00    +0.000 NA
ATOM     12  C   UNL     1     105.085 122.745  81.321  0.00  0.00    +0.000 A 
ATOM     13  C   UNL     1     105.818 122.983  80.174  0.00  0.00    +0.000 A 
ATOM     14  C   UNL     1     105.566 124.162  79.484  0.00  0.00    +0.000 A 
ATOM     15  C   UNL     1     104.611 125.059  79.940  0.00  0.00    +0.000 A 
ATOM     16 CL   UNL     1     106.448 124.514  78.048  0.00  0.00    +0.000 Cl
ENDBRANCH   2  10
TORSDOF 2
ENDMDL
