MODEL 1
REMARK VINA RESULT:      -5.1      0.000      0.000
REMARK  Name = *****
REMARK  3 active torsions:
REMARK  status: ('A' for Active; 'I' for Inactive)
REMARK    1  A    between atoms: C_1  and  C_2
REMARK    2  A    between atoms: C_2  and  C_12
REMARK    3  A    between atoms: C_12  and  C_13
REMARK                            x       y       z     vdW  Elec       q    Type
REMARK                         _______ _______ _______ _____ _____    ______ ____
ROOT
ATOM      1  C   UNL     1     103.415 124.955  83.165  0.00  0.00    +0.000 C 
ATOM      2  C   UNL     1     103.148 126.031  82.100  0.00  0.00    +0.000 C 
ATOM      3  C   UNL     1     104.097 127.236  82.291  0.00  0.00    +0.000 C 
ATOM      4  O   UNL     1     103.498 128.162  83.231  0.00  0.00    +0.000 OA
ATOM      5  C   UNL     1     102.156 127.925  83.090  0.00  0.00    +0.000 A 
ATOM      6  C   UNL     1     101.866 126.735  82.430  0.00  0.00    +0.000 A 
ATOM      7  C   UNL     1     100.550 126.350  82.230  0.00  0.00    +0.000 A 
ATOM      8  C   UNL     1      99.544 127.192  82.703  0.00  0.00    +0.000 A 
ATOM      9  C   UNL     1      99.841 128.387  83.372  0.00  0.00    +0.000 A 
ATOM     10  C   UNL     1     101.169 128.761  83.577  0.00  0.00    +0.000 A 
ATOM     11  F   UNL     1      98.262 126.846  82.522  0.00  0.00    +0.000 F 
ENDROOT
BRANCH   2  12
ATOM     12  C   UNL     1     103.178 125.473  80.659  0.00  0.00    +0.000 C 
BRANCH  12  13
ATOM     13  C   UNL     1     104.380 124.625  80.289  0.00  0.00    +0.000 C 
ATOM     14  C   UNL     1     104.499 123.348  80.699  0.00  0.00    +0.000 C 
ATOM     15  C   UNL     1     105.697 122.485  80.423  0.00  0.00    +0.000 C 
ATOM     16  C   UNL     1     106.911 123.273  79.931  0.00  0.00    +0.000 C 
ATOM     17  C   UNL     1     106.502 124.333  78.916  0.00  0.00    +0.000 C 
ATOM     18  C   UNL     1     105.486 125.308  79.515  0.00  0.00    +0.000 C 
ENDBRANCH  12  13
ENDBRANCH   2  12
TORSDOF 2
ENDMDL
