MODEL 1
REMARK VINA RESULT:      -4.4      0.000      0.000
REMARK  Name = *****
REMARK  5 active torsions:
REMARK  status: ('A' for Active; 'I' for Inactive)
REMARK    1  A    between atoms: C_1  and  C_2
REMARK    2  A    between atoms: C_5  and  S_8
REMARK    3  A    between atoms: S_8  and  S_10
REMARK    4  A    between atoms: S_10  and  C_12
REMARK    5  A    between atoms: C_15  and  C_18
REMARK                            x       y       z     vdW  Elec       q    Type
REMARK                         _______ _______ _______ _____ _____    ______ ____
ROOT
ATOM      1  S   UNL     1      89.284  69.216  85.827  0.00  0.00    +0.000 S 
ATOM      2  O   UNL     1      90.227  68.344  86.608  0.00  0.00    +0.000 OA
ENDROOT
BRANCH   1   7
ATOM      3  C   UNL     1      85.918  72.142  90.024  0.00  0.00    +0.000 C 
ATOM      4  C   UNL     1      86.725  71.411  88.993  0.00  0.00    +0.000 A 
ATOM      5  C   UNL     1      86.284  71.323  87.668  0.00  0.00    +0.000 A 
ATOM      6  C   UNL     1      87.055  70.663  86.706  0.00  0.00    +0.000 A 
ATOM      7  C   UNL     1      88.285  70.095  87.054  0.00  0.00    +0.000 A 
ATOM      8  C   UNL     1      88.730  70.185  88.378  0.00  0.00    +0.000 A 
ATOM      9  C   UNL     1      87.958  70.845  89.338  0.00  0.00    +0.000 A 
ENDBRANCH   1   7
BRANCH   1  10
ATOM     10  S   UNL     1      87.966  67.850  85.176  0.00  0.00    +0.000 S 
ATOM     11  O   UNL     1      88.725  67.271  84.014  0.00  0.00    +0.000 OA
BRANCH  10  12
ATOM     12  C   UNL     1      88.038  66.613  86.494  0.00  0.00    +0.000 A 
ATOM     13  C   UNL     1      87.291  66.785  87.664  0.00  0.00    +0.000 A 
ATOM     14  C   UNL     1      87.328  65.823  88.677  0.00  0.00    +0.000 A 
ATOM     15  C   UNL     1      88.114  64.673  88.535  0.00  0.00    +0.000 A 
ATOM     16  C   UNL     1      88.839  64.488  87.353  0.00  0.00    +0.000 A 
ATOM     17  C   UNL     1      88.804  65.451  86.341  0.00  0.00    +0.000 A 
ATOM     18  C   UNL     1      88.129  63.624  89.607  0.00  0.00    +0.000 C 
ENDBRANCH  10  12
ENDBRANCH   1  10
TORSDOF 3
ENDMDL
