MODEL 1
REMARK VINA RESULT:      -4.8      0.000      0.000
REMARK  Name = *****
REMARK  3 active torsions:
REMARK  status: ('A' for Active; 'I' for Inactive)
REMARK    1  A    between atoms: C_1  and  C_2
REMARK    2  A    between atoms: C_4  and  C_8
REMARK    3  A    between atoms: C_9  and  C_10
REMARK                            x       y       z     vdW  Elec       q    Type
REMARK                         _______ _______ _______ _____ _____    ______ ____
ROOT
ATOM      1  C   UNL     1      89.690  68.944  86.449  0.00  0.00    +0.000 C 
ATOM      2  C   UNL     1      89.883  67.770  86.282  0.00  0.00    +0.000 C 
ENDROOT
BRANCH   1   6
ATOM      3  C   UNL     1      85.686  71.325  87.204  0.00  0.00    +0.000 C 
ATOM      4  C   UNL     1      87.030  71.131  86.563  0.00  0.00    +0.000 C 
ATOM      5  C   UNL     1      88.060  70.566  87.220  0.00  0.00    +0.000 C 
ATOM      6  C   UNL     1      89.440  70.385  86.641  0.00  0.00    +0.000 C 
ATOM      7  C   UNL     1      89.637  71.164  85.329  0.00  0.00    +0.000 C 
ATOM      8  C   UNL     1      88.407  71.084  84.426  0.00  0.00    +0.000 C 
ATOM      9  C   UNL     1      87.157  71.606  85.136  0.00  0.00    +0.000 C 
ENDBRANCH   1   6
BRANCH   2  10
ATOM     10  C   UNL     1      90.106  66.373  86.072  0.00  0.00    +0.000 A 
ATOM     11  C   UNL     1      91.238  65.944  85.375  0.00  0.00    +0.000 A 
ATOM     12  C   UNL     1      91.456  64.581  85.168  0.00  0.00    +0.000 A 
ATOM     13  C   UNL     1      90.544  63.645  85.657  0.00  0.00    +0.000 A 
ATOM     14  C   UNL     1      89.413  64.072  86.354  0.00  0.00    +0.000 A 
ATOM     15  C   UNL     1      89.194  65.435  86.562  0.00  0.00    +0.000 A 
ENDBRANCH   2  10
TORSDOF 2
ENDMDL
