MODEL 1
REMARK VINA RESULT:      -5.1      0.000      0.000
REMARK  Name = *****
REMARK  4 active torsions:
REMARK  status: ('A' for Active; 'I' for Inactive)
REMARK    1  A    between atoms: C_5  and  C_7
REMARK    2  A    between atoms: C_7  and  C_9
REMARK    3  A    between atoms: C_9  and  C_10
REMARK    4  A    between atoms: C_10  and  C_11
REMARK                            x       y       z     vdW  Elec       q    Type
REMARK                         _______ _______ _______ _____ _____    ______ ____
ROOT
ATOM      1  C   UNL     1      99.206 127.467  82.717  0.00  0.00    +0.000 C 
ATOM      2  O   UNL     1      98.294 127.258  81.916  0.00  0.00    +0.000 OA
ENDROOT
BRANCH   1   7
ATOM      3  C   UNL     1      99.265 130.885  84.336  0.00  0.00    +0.000 A 
ATOM      4  C   UNL     1      98.732 130.628  85.598  0.00  0.00    +0.000 A 
ATOM      5  C   UNL     1      98.346 129.333  85.935  0.00  0.00    +0.000 A 
ATOM      6  C   UNL     1      98.493 128.297  85.012  0.00  0.00    +0.000 A 
ATOM      7  C   UNL     1      99.026 128.535  83.744  0.00  0.00    +0.000 A 
ATOM      8  C   UNL     1      99.411 129.844  83.414  0.00  0.00    +0.000 A 
ATOM      9  F   UNL     1      98.103 127.073  85.392  0.00  0.00    +0.000 F 
ENDBRANCH   1   7
BRANCH   1  10
ATOM     10  C   UNL     1     100.497 126.671  82.682  0.00  0.00    +0.000 C 
BRANCH  10  11
ATOM     11  C   UNL     1     101.723 127.585  82.655  0.00  0.00    +0.000 C 
BRANCH  11  12
ATOM     12  C   UNL     1     102.787 127.052  81.725  0.00  0.00    +0.000 A 
ATOM     13  C   UNL     1     102.783 125.703  81.341  0.00  0.00    +0.000 A 
ATOM     14  C   UNL     1     103.780 125.207  80.499  0.00  0.00    +0.000 A 
ATOM     15  C   UNL     1     104.781 126.059  80.047  0.00  0.00    +0.000 A 
ATOM     16  C   UNL     1     104.805 127.397  80.419  0.00  0.00    +0.000 A 
ATOM     17  C   UNL     1     103.809 127.896  81.260  0.00  0.00    +0.000 A 
ATOM     18  F   UNL     1     105.738 125.581  79.240  0.00  0.00    +0.000 F 
ENDBRANCH  11  12
ENDBRANCH  10  11
ENDBRANCH   1  10
TORSDOF 4
ENDMDL
