MODEL 1
REMARK VINA RESULT:      -4.3      0.000      0.000
REMARK  Name = *****
REMARK  6 active torsions:
REMARK  status: ('A' for Active; 'I' for Inactive)
REMARK    1  A    between atoms: C_1  and  C_2
REMARK    2  A    between atoms: C_5  and  S_8
REMARK    3  A    between atoms: S_8  and  C_9
REMARK    4  A    between atoms: C_9  and  C_11
REMARK    5  A    between atoms: C_11  and  C_12
REMARK    6  A    between atoms: C_12  and  C_13
REMARK                            x       y       z     vdW  Elec       q    Type
REMARK                         _______ _______ _______ _____ _____    ______ ____
ROOT
ATOM      1  C   UNL     1      89.148  68.751  86.193  0.00  0.00    +0.000 C 
ATOM      2  O   UNL     1      89.641  68.940  85.086  0.00  0.00    +0.000 OA
ENDROOT
BRANCH   1   3
ATOM      3  C   UNL     1      88.312  67.539  86.567  0.00  0.00    +0.000 C 
ATOM      4  F   UNL     1      87.852  67.591  87.857  0.00  0.00    +0.000 F 
ATOM      5  F   UNL     1      87.177  67.502  85.796  0.00  0.00    +0.000 F 
BRANCH   3   6
ATOM      6  C   UNL     1      89.084  66.252  86.364  0.00  0.00    +0.000 C 
ATOM      7  F   UNL     1      89.071  65.926  85.032  0.00  0.00    +0.000 F 
ATOM      8  F   UNL     1      90.401  66.407  86.676  0.00  0.00    +0.000 F 
BRANCH   6   9
ATOM      9  C   UNL     1      88.460  65.122  87.160  0.00  0.00    +0.000 C 
ATOM     10  F   UNL     1      87.118  65.066  86.984  0.00  0.00    +0.000 F 
ATOM     11  F   UNL     1      88.954  63.916  86.789  0.00  0.00    +0.000 F 
ATOM     12  F   UNL     1      88.668  65.241  88.489  0.00  0.00    +0.000 F 
ENDBRANCH   6   9
ENDBRANCH   3   6
ENDBRANCH   1   3
BRANCH   1  13
ATOM     13  S   UNL     1      89.250  69.996  87.445  0.00  0.00    +0.000 S 
BRANCH  13  18
ATOM     14  C   UNL     1      83.801  72.625  86.731  0.00  0.00    +0.000 C 
ATOM     15  C   UNL     1      85.161  72.016  86.905  0.00  0.00    +0.000 A 
ATOM     16  C   UNL     1      85.943  71.701  85.789  0.00  0.00    +0.000 A 
ATOM     17  C   UNL     1      87.192  71.095  85.947  0.00  0.00    +0.000 A 
ATOM     18  C   UNL     1      87.674  70.793  87.223  0.00  0.00    +0.000 A 
ATOM     19  C   UNL     1      86.887  71.088  88.339  0.00  0.00    +0.000 A 
ATOM     20  C   UNL     1      85.636  71.694  88.181  0.00  0.00    +0.000 A 
ENDBRANCH  13  18
ENDBRANCH   1  13
TORSDOF 5
ENDMDL
