MODEL 1
REMARK VINA RESULT:      -4.8      0.000      0.000
REMARK  Name = *****
REMARK  2 active torsions:
REMARK  status: ('A' for Active; 'I' for Inactive)
REMARK    1  A    between atoms: C_4  and  N_7
REMARK    2  A    between atoms: C_8  and  C_9
REMARK                            x       y       z     vdW  Elec       q    Type
REMARK                         _______ _______ _______ _____ _____    ______ ____
ROOT
ATOM      1  N   UNL     1     101.565 125.919  82.248  0.00  0.00    +0.000 NA
ATOM      2  C   UNL     1     102.694 126.255  81.711  0.00  0.00    +0.000 C 
ENDROOT
BRANCH   2   3
ATOM      3  C   UNL     1     103.651 125.243  81.227  0.00  0.00    +0.000 A 
ATOM      4  C   UNL     1     103.914 124.091  81.973  0.00  0.00    +0.000 A 
ATOM      5  C   UNL     1     104.823 123.158  81.486  0.00  0.00    +0.000 A 
ATOM      6  C   UNL     1     105.472 123.352  80.275  0.00  0.00    +0.000 A 
ATOM      7  C   UNL     1     105.200 124.502  79.545  0.00  0.00    +0.000 A 
ATOM      8  C   UNL     1     104.295 125.454  80.006  0.00  0.00    +0.000 A 
ATOM      9  F   UNL     1     105.818 124.700  78.374  0.00  0.00    +0.000 F 
ATOM     10  F   UNL     1     105.079 122.053  82.199  0.00  0.00    +0.000 F 
ENDBRANCH   2   3
BRANCH   1  14
ATOM     11  C   UNL     1      99.117 129.108  83.467  0.00  0.00    +0.000 A 
ATOM     12  C   UNL     1     100.491 129.158  83.696  0.00  0.00    +0.000 A 
ATOM     13  C   UNL     1     101.305 128.099  83.290  0.00  0.00    +0.000 A 
ATOM     14  C   UNL     1     100.749 126.980  82.664  0.00  0.00    +0.000 A 
ATOM     15  C   UNL     1      99.373 126.944  82.424  0.00  0.00    +0.000 A 
ATOM     16  C   UNL     1      98.557 128.002  82.829  0.00  0.00    +0.000 A 
ENDBRANCH   1  14
TORSDOF 2
ENDMDL
