MODEL 1
REMARK VINA RESULT:      -4.7      0.000      0.000
REMARK  Name = *****
REMARK  6 active torsions:
REMARK  status: ('A' for Active; 'I' for Inactive)
REMARK    1  A    between atoms: C_1  and  C_2
REMARK    2  A    between atoms: C_4  and  C_19
REMARK    3  A    between atoms: C_5  and  N_9
REMARK    4  A    between atoms: C_6  and  C_8
REMARK    5  A    between atoms: N_9  and  S_10
REMARK    6  A    between atoms: S_10  and  C_12
REMARK                            x       y       z     vdW  Elec       q    Type
REMARK                         _______ _______ _______ _____ _____    ______ ____
ROOT
ATOM      1  N   UNL     1      88.543  64.738  87.141  0.00  0.00    +0.000 N 
ATOM      2  H   UNL     1      88.935  64.247  87.898  0.00  0.00    +0.000 HD
ENDROOT
BRANCH   1   7
ATOM      3  C   UNL     1      89.406  70.407  86.625  0.00  0.00    +0.000 C 
ATOM      4  C   UNL     1      89.180  68.931  86.764  0.00  0.00    +0.000 A 
ATOM      5  C   UNL     1      90.054  68.022  86.167  0.00  0.00    +0.000 A 
ATOM      6  C   UNL     1      89.838  66.637  86.260  0.00  0.00    +0.000 A 
ATOM      7  C   UNL     1      88.716  66.147  86.971  0.00  0.00    +0.000 A 
ATOM      8  C   UNL     1      87.817  67.066  87.561  0.00  0.00    +0.000 A 
ATOM      9  C   UNL     1      88.059  68.446  87.442  0.00  0.00    +0.000 A 
ATOM     10  C   UNL     1      86.605  66.624  88.338  0.00  0.00    +0.000 C 
ATOM     11  C   UNL     1      90.816  65.712  85.588  0.00  0.00    +0.000 C 
ENDBRANCH   1   7
BRANCH   1  12
ATOM     12  S   UNL     1      87.615  63.973  85.943  0.00  0.00    +0.000 S 
ATOM     13  O   UNL     1      88.407  62.818  85.402  0.00  0.00    +0.000 OA
BRANCH  12  14
ATOM     14  C   UNL     1      86.509  63.214  87.175  0.00  0.00    +0.000 A 
ATOM     15  C   UNL     1      85.133  63.477  87.156  0.00  0.00    +0.000 A 
ATOM     16  C   UNL     1      84.302  62.899  88.114  0.00  0.00    +0.000 A 
ATOM     17  C   UNL     1      84.827  62.064  89.099  0.00  0.00    +0.000 A 
ATOM     18  C   UNL     1      86.197  61.805  89.129  0.00  0.00    +0.000 A 
ATOM     19  C   UNL     1      87.035  62.381  88.173  0.00  0.00    +0.000 A 
ATOM     20 CL   UNL     1      82.612  63.220  88.084  0.00  0.00    +0.000 Cl
ENDBRANCH  12  14
ENDBRANCH   1  12
TORSDOF 3
ENDMDL
