MODEL 1
REMARK VINA RESULT:      -4.3      0.000      0.000
REMARK  Name = *****
REMARK  4 active torsions:
REMARK  status: ('A' for Active; 'I' for Inactive)
REMARK    1  A    between atoms: C_1  and  C_2
REMARK    2  A    between atoms: C_5  and  C_8
REMARK    3  A    between atoms: C_8  and  O_10
REMARK    4  A    between atoms: O_10  and  C_11
REMARK                            x       y       z     vdW  Elec       q    Type
REMARK                         _______ _______ _______ _____ _____    ______ ____
ROOT
ATOM      1  C   UNL     1     102.308 125.732  83.928  0.00  0.00    +0.000 C 
ATOM      2  O   UNL     1     101.953 125.152  84.941  0.00  0.00    +0.000 OA
ENDROOT
BRANCH   1   7
ATOM      3  C   UNL     1     105.583 123.162  79.886  0.00  0.00    +0.000 C 
ATOM      4  C   UNL     1     104.710 123.817  80.916  0.00  0.00    +0.000 A 
ATOM      5  C   UNL     1     103.881 124.888  80.564  0.00  0.00    +0.000 A 
ATOM      6  C   UNL     1     103.090 125.522  81.527  0.00  0.00    +0.000 A 
ATOM      7  C   UNL     1     103.129 125.096  82.861  0.00  0.00    +0.000 A 
ATOM      8  C   UNL     1     103.967 124.033  83.217  0.00  0.00    +0.000 A 
ATOM      9  C   UNL     1     104.757 123.401  82.252  0.00  0.00    +0.000 A 
ENDBRANCH   1   7
BRANCH   1  10
ATOM     10  O   UNL     1     102.030 127.021  83.610  0.00  0.00    +0.000 OA
BRANCH  10  11
ATOM     11  C   UNL     1     100.665 127.407  83.770  0.00  0.00    +0.000 C 
ATOM     12  C   UNL     1      99.784 126.900  82.632  0.00  0.00    +0.000 C 
ATOM     13  C   UNL     1      98.605 127.868  82.592  0.00  0.00    +0.000 C 
ATOM     14  C   UNL     1      99.065 129.131  83.320  0.00  0.00    +0.000 C 
ATOM     15  C   UNL     1     100.541 128.918  83.621  0.00  0.00    +0.000 C 
ENDBRANCH  10  11
ENDBRANCH   1  10
TORSDOF 3
ENDMDL
