REMARK  Name = *****
REMARK  4 active torsions:
REMARK  status: ('A' for Active; 'I' for Inactive)
REMARK    1  A    between atoms: C_1  and  C_2
REMARK    2  A    between atoms: C_2  and  C_3
REMARK    3  A    between atoms: C_2  and  O_9
REMARK    4  A    between atoms: O_9  and  C_10
REMARK                            x       y       z     vdW  Elec       q    Type
REMARK                         _______ _______ _______ _____ _____    ______ ____
ROOT
ATOM      1  C   UNL     1       0.581   0.497   0.441  0.00  0.00    +0.000 C 
ATOM      2  C   UNL     1       2.000  -0.020   0.199  0.00  0.00    +0.000 C 
ENDROOT
BRANCH   2   3
ATOM      3  C   UNL     1       2.885   1.120  -0.280  0.00  0.00    +0.000 A 
ATOM      4  C   UNL     1       3.560   1.955   0.622  0.00  0.00    +0.000 A 
ATOM      5  C   UNL     1       4.354   3.006   0.160  0.00  0.00    +0.000 A 
ATOM      6  C   UNL     1       4.478   3.239  -1.208  0.00  0.00    +0.000 A 
ATOM      7  C   UNL     1       3.808   2.422  -2.116  0.00  0.00    +0.000 A 
ATOM      8  C   UNL     1       3.013   1.370  -1.656  0.00  0.00    +0.000 A 
ENDBRANCH   2   3
BRANCH   2   9
ATOM      9  O   UNL     1       2.453  -0.572   1.446  0.00  0.00    +0.000 OA
BRANCH   9  10
ATOM     10  C   UNL     1       3.260  -1.675   1.384  0.00  0.00    +0.000 A 
ATOM     11  C   UNL     1       4.160  -1.958   0.358  0.00  0.00    +0.000 A 
ATOM     12  C   UNL     1       4.948  -3.111   0.416  0.00  0.00    +0.000 A 
ATOM     13  C   UNL     1       4.846  -3.977   1.504  0.00  0.00    +0.000 A 
ATOM     14  C   UNL     1       3.963  -3.686   2.541  0.00  0.00    +0.000 A 
ATOM     15  C   UNL     1       3.179  -2.533   2.483  0.00  0.00    +0.000 A 
ENDBRANCH   9  10
ENDBRANCH   2   9
TORSDOF 3
