MODEL 1
REMARK VINA RESULT:      -4.3      0.000      0.000
REMARK  Name = *****
REMARK  5 active torsions:
REMARK  status: ('A' for Active; 'I' for Inactive)
REMARK    1  A    between atoms: C_1  and  C_2
REMARK    2  A    between atoms: C_5  and  C_8
REMARK    3  A    between atoms: C_8  and  N_9
REMARK    4  A    between atoms: N_9  and  O_10
REMARK    5  A    between atoms: O_10  and  C_11
REMARK                            x       y       z     vdW  Elec       q    Type
REMARK                         _______ _______ _______ _____ _____    ______ ____
ROOT
ATOM      1  C   UNL     1      87.489  70.677  88.585  0.00  0.00    +0.000 C 
ENDROOT
BRANCH   1   6
ATOM      2  C   UNL     1      83.082  73.201  85.831  0.00  0.00    +0.000 C 
ATOM      3  C   UNL     1      84.217  72.519  86.539  0.00  0.00    +0.000 A 
ATOM      4  C   UNL     1      85.296  72.002  85.812  0.00  0.00    +0.000 A 
ATOM      5  C   UNL     1      86.368  71.396  86.469  0.00  0.00    +0.000 A 
ATOM      6  C   UNL     1      86.370  71.314  87.864  0.00  0.00    +0.000 A 
ATOM      7  C   UNL     1      85.306  71.839  88.600  0.00  0.00    +0.000 A 
ATOM      8  C   UNL     1      84.236  72.445  87.938  0.00  0.00    +0.000 A 
ENDBRANCH   1   6
BRANCH   1   9
ATOM      9  N   UNL     1      88.114  69.647  88.114  0.00  0.00    +0.000 NA
BRANCH   9  10
ATOM     10  O   UNL     1      89.407  70.040  87.740  0.00  0.00    +0.000 OA
BRANCH  10  11
ATOM     11  C   UNL     1      89.639  69.806  86.403  0.00  0.00    +0.000 A 
ATOM     12  C   UNL     1      89.590  68.549  85.794  0.00  0.00    +0.000 A 
ATOM     13  C   UNL     1      89.829  68.425  84.423  0.00  0.00    +0.000 A 
ATOM     14  C   UNL     1      90.116  69.555  83.657  0.00  0.00    +0.000 A 
ATOM     15  C   UNL     1      90.160  70.812  84.260  0.00  0.00    +0.000 A 
ATOM     16  C   UNL     1      89.920  70.935  85.629  0.00  0.00    +0.000 A 
ENDBRANCH  10  11
ENDBRANCH   9  10
ENDBRANCH   1   9
TORSDOF 4
ENDMDL
