REMARK  Name = *****
REMARK  2 active torsions:
REMARK  status: ('A' for Active; 'I' for Inactive)
REMARK    1  A    between atoms: C_4  and  C_7
REMARK    2  A    between atoms: C_8  and  C_9
REMARK                            x       y       z     vdW  Elec       q    Type
REMARK                         _______ _______ _______ _____ _____    ______ ____
ROOT
ATOM      1  C   UNL     1      -2.822   0.476  -0.325  0.00  0.00    +0.000 C 
ATOM      2  C   UNL     1      -3.771  -0.476  -0.296  0.00  0.00    +0.000 C 
ENDROOT
BRANCH   1   6
ATOM      3  C   UNL     1       1.368  -0.206   0.195  0.00  0.00    +0.000 A 
ATOM      4  C   UNL     1       0.618  -1.096  -0.572  0.00  0.00    +0.000 A 
ATOM      5  C   UNL     1      -0.753  -0.888  -0.744  0.00  0.00    +0.000 A 
ATOM      6  C   UNL     1      -1.389   0.205  -0.141  0.00  0.00    +0.000 A 
ATOM      7  C   UNL     1      -0.621   1.102   0.613  0.00  0.00    +0.000 A 
ATOM      8  C   UNL     1       0.750   0.894   0.785  0.00  0.00    +0.000 A 
ENDBRANCH   1   6
BRANCH   2   9
ATOM      9  C   UNL     1      -5.172  -0.268  -0.461  0.00  0.00    +0.000 A 
ATOM     10  C   UNL     1      -5.825   0.922  -0.697  0.00  0.00    +0.000 A 
ATOM     11  O   UNL     1      -7.166   0.720  -0.797  0.00  0.00    +0.000 OA
ATOM     12  C   UNL     1      -7.376  -0.611  -0.626  0.00  0.00    +0.000 A 
ATOM     13  C   UNL     1      -6.183  -1.263  -0.416  0.00  0.00    +0.000 A 
ENDBRANCH   2   9
TORSDOF 2
