REMARK  Name = *****
REMARK  1 active torsions:
REMARK  status: ('A' for Active; 'I' for Inactive)
REMARK    1  A    between atoms: C_8  and  C_10
REMARK                            x       y       z     vdW  Elec       q    Type
REMARK                         _______ _______ _______ _____ _____    ______ ____
ROOT
ATOM      1  C   UNL     1       2.607  -0.363   0.439  0.00  0.00    +0.000 C 
ATOM      2  C   UNL     1       2.362   0.924  -0.364  0.00  0.00    +0.000 C 
ATOM      3  C   UNL     1       0.973   1.518  -0.081  0.00  0.00    +0.000 C 
ATOM      4  C   UNL     1      -0.067   0.440  -0.075  0.00  0.00    +0.000 A 
ATOM      5  C   UNL     1       0.191  -0.911   0.025  0.00  0.00    +0.000 A 
ATOM      6  C   UNL     1       1.586  -1.455   0.086  0.00  0.00    +0.000 C 
ATOM      7  C   UNL     1      -1.020  -1.668   0.032  0.00  0.00    +0.000 A 
ATOM      8  C   UNL     1      -2.159  -0.881  -0.055  0.00  0.00    +0.000 A 
ATOM      9  S   UNL     1      -1.727   0.785  -0.147  0.00  0.00    +0.000 S 
ENDROOT
BRANCH   8  10
ATOM     10  C   UNL     1      -3.545  -1.309  -0.071  0.00  0.00    +0.000 A 
ATOM     11  C   UNL     1      -4.676  -0.542  -0.306  0.00  0.00    +0.000 A 
ATOM     12  C   UNL     1      -5.887  -1.293  -0.242  0.00  0.00    +0.000 A 
ATOM     13  C   UNL     1      -5.654  -2.617   0.042  0.00  0.00    +0.000 A 
ATOM     14  S   UNL     1      -3.990  -2.947   0.226  0.00  0.00    +0.000 S 
ENDBRANCH   8  10
TORSDOF 1
