MODEL 1
REMARK VINA RESULT:      -4.8      0.000      0.000
REMARK  Name = *****
REMARK  1 active torsions:
REMARK  status: ('A' for Active; 'I' for Inactive)
REMARK    1  A    between atoms: C_8  and  C_10
REMARK                            x       y       z     vdW  Elec       q    Type
REMARK                         _______ _______ _______ _____ _____    ______ ____
ROOT
ATOM      1  C   UNL     1      89.694  69.473  83.058  0.00  0.00    +0.000 C 
ATOM      2  C   UNL     1      90.798  70.446  83.436  0.00  0.00    +0.000 C 
ATOM      3  C   UNL     1      90.247  71.197  84.647  0.00  0.00    +0.000 C 
ATOM      4  C   UNL     1      89.211  70.252  85.290  0.00  0.00    +0.000 C 
ATOM      5  C   UNL     1      89.190  68.991  84.412  0.00  0.00    +0.000 C 
ATOM      6  C   UNL     1      89.498  69.952  86.739  0.00  0.00    +0.000 C 
ATOM      7  C   UNL     1      88.479  70.369  87.505  0.00  0.00    +0.000 C 
ATOM      8  C   UNL     1      87.443  70.963  86.678  0.00  0.00    +0.000 C 
ATOM      9  C   UNL     1      87.847  70.900  85.394  0.00  0.00    +0.000 C 
ENDROOT
BRANCH   8  10
ATOM     10  C   UNL     1      86.162  71.527  87.126  0.00  0.00    +0.000 A 
ATOM     11  C   UNL     1      85.862  71.604  88.493  0.00  0.00    +0.000 A 
ATOM     12  C   UNL     1      84.651  72.148  88.931  0.00  0.00    +0.000 A 
ATOM     13  C   UNL     1      83.725  72.623  88.005  0.00  0.00    +0.000 A 
ATOM     14  C   UNL     1      84.008  72.555  86.643  0.00  0.00    +0.000 A 
ATOM     15  C   UNL     1      85.220  72.012  86.207  0.00  0.00    +0.000 A 
ENDBRANCH   8  10
TORSDOF 1
ENDMDL
