MODEL 1
REMARK VINA RESULT:      -4.7      0.000      0.000
REMARK  Name = *****
REMARK  3 active torsions:
REMARK  status: ('A' for Active; 'I' for Inactive)
REMARK    1  A    between atoms: C_4  and  N_7
REMARK    2  A    between atoms: N_7  and  C_8
REMARK    3  A    between atoms: C_8  and  C_9
REMARK                            x       y       z     vdW  Elec       q    Type
REMARK                         _______ _______ _______ _____ _____    ______ ____
ROOT
ATOM      1  C   UNL     1     102.581 126.850  83.262  0.00  0.00    +0.000 C 
ENDROOT
BRANCH   1   2
ATOM      2  C   UNL     1     101.221 127.420  83.175  0.00  0.00    +0.000 A 
ATOM      3  C   UNL     1     100.974 128.734  83.615  0.00  0.00    +0.000 A 
ATOM      4  C   UNL     1      99.684 129.271  83.476  0.00  0.00    +0.000 A 
ATOM      5  C   UNL     1      98.660 128.514  82.898  0.00  0.00    +0.000 A 
ATOM      6  C   UNL     1      98.914 127.219  82.453  0.00  0.00    +0.000 A 
ATOM      7  C   UNL     1     100.191 126.675  82.585  0.00  0.00    +0.000 A 
ATOM      8 CL   UNL     1      99.283 130.873  83.994  0.00  0.00    +0.000 Cl
ATOM      9 CL   UNL     1     102.241 129.669  84.349  0.00  0.00    +0.000 Cl
ENDBRANCH   1   2
BRANCH   1  10
ATOM     10  N   UNL     1     102.833 125.579  83.480  0.00  0.00    +0.000 N 
ATOM     11  O   UNL     1     102.526 124.991  84.569  0.00  0.00    +0.000 OA
BRANCH  10  15
ATOM     12  C   UNL     1     104.924 123.492  80.438  0.00  0.00    +0.000 A 
ATOM     13  C   UNL     1     104.244 124.674  80.141  0.00  0.00    +0.000 A 
ATOM     14  C   UNL     1     103.557 125.354  81.146  0.00  0.00    +0.000 A 
ATOM     15  C   UNL     1     103.548 124.842  82.447  0.00  0.00    +0.000 A 
ATOM     16  C   UNL     1     104.245 123.666  82.753  0.00  0.00    +0.000 A 
ATOM     17  C   UNL     1     104.928 122.991  81.741  0.00  0.00    +0.000 A 
ENDBRANCH  10  15
ENDBRANCH   1  10
TORSDOF 3
ENDMDL
