MODEL 1
REMARK VINA RESULT:      -5.2      0.000      0.000
REMARK  Name = *****
REMARK  2 active torsions:
REMARK  status: ('A' for Active; 'I' for Inactive)
REMARK    1  A    between atoms: C_1  and  C_2
REMARK    2  A    between atoms: C_4  and  C_8
REMARK                            x       y       z     vdW  Elec       q    Type
REMARK                         _______ _______ _______ _____ _____    ______ ____
ROOT
ATOM      1  C   UNL     1     102.102 125.976  82.665  0.00  0.00    +0.000 C 
ATOM      2  N   UNL     1     102.683 125.766  81.529  0.00  0.00    +0.000 NA
ATOM      3  C   UNL     1     103.711 124.829  81.458  0.00  0.00    +0.000 A 
ATOM      4  C   UNL     1     104.300 124.560  80.221  0.00  0.00    +0.000 A 
ATOM      5  C   UNL     1     105.331 123.624  80.113  0.00  0.00    +0.000 A 
ATOM      6  C   UNL     1     105.779 122.953  81.247  0.00  0.00    +0.000 A 
ATOM      7  C   UNL     1     105.195 123.218  82.487  0.00  0.00    +0.000 A 
ATOM      8  C   UNL     1     104.158 124.155  82.590  0.00  0.00    +0.000 A 
ATOM      9  C   UNL     1     103.520 124.469  83.901  0.00  0.00    +0.000 C 
ATOM     10  O   UNL     1     102.410 125.378  83.838  0.00  0.00    +0.000 OA
ENDROOT
BRANCH   1  14
ATOM     11  C   UNL     1     100.277 130.409  84.261  0.00  0.00    +0.000 C 
ATOM     12  C   UNL     1     100.085 129.071  83.611  0.00  0.00    +0.000 A 
ATOM     13  C   UNL     1     101.163 128.185  83.457  0.00  0.00    +0.000 A 
ATOM     14  C   UNL     1     100.984 126.941  82.834  0.00  0.00    +0.000 A 
ATOM     15  C   UNL     1      99.714 126.591  82.357  0.00  0.00    +0.000 A 
ATOM     16  C   UNL     1      98.641 127.471  82.497  0.00  0.00    +0.000 A 
ATOM     17  C   UNL     1      98.827 128.707  83.118  0.00  0.00    +0.000 A 
ENDBRANCH   1  14
TORSDOF 1
ENDMDL
