MODEL 1
REMARK VINA RESULT:      -4.6      0.000      0.000
REMARK  Name = *****
REMARK  3 active torsions:
REMARK  status: ('A' for Active; 'I' for Inactive)
REMARK    1  A    between atoms: C_4  and  C_7
REMARK    2  A    between atoms: C_7  and  S_8
REMARK    3  A    between atoms: S_8  and  C_9
REMARK                            x       y       z     vdW  Elec       q    Type
REMARK                         _______ _______ _______ _____ _____    ______ ____
ROOT
ATOM      1  C   UNL     1      88.061  64.433  86.426  0.00  0.00    +0.000 A 
ATOM      2  C   UNL     1      88.533  65.700  86.795  0.00  0.00    +0.000 A 
ATOM      3  C   UNL     1      89.787  66.148  86.385  0.00  0.00    +0.000 A 
ATOM      4  C   UNL     1      90.595  65.334  85.606  0.00  0.00    +0.000 A 
ATOM      5  C   UNL     1      90.152  64.073  85.241  0.00  0.00    +0.000 A 
ATOM      6  C   UNL     1      88.898  63.624  85.649  0.00  0.00    +0.000 A 
ATOM      7  F   UNL     1      88.513  62.390  85.290  0.00  0.00    +0.000 F 
ATOM      8  F   UNL     1      90.932  63.281  84.491  0.00  0.00    +0.000 F 
ATOM      9  F   UNL     1      91.800  65.765  85.210  0.00  0.00    +0.000 F 
ATOM     10  F   UNL     1      90.212  67.367  86.743  0.00  0.00    +0.000 F 
ATOM     11  F   UNL     1      87.776  66.515  87.546  0.00  0.00    +0.000 F 
ENDROOT
BRANCH   1  12
ATOM     12  S   UNL     1      86.457  63.895  87.007  0.00  0.00    +0.000 S 
BRANCH  12  13
ATOM     13  C   UNL     1      86.931  62.619  88.226  0.00  0.00    +0.000 C 
BRANCH  13  17
ATOM     14  C   UNL     1      88.331  64.391  91.902  0.00  0.00    +0.000 A 
ATOM     15  C   UNL     1      89.245  63.977  90.935  0.00  0.00    +0.000 A 
ATOM     16  C   UNL     1      88.794  63.406  89.745  0.00  0.00    +0.000 A 
ATOM     17  C   UNL     1      87.420  63.246  89.507  0.00  0.00    +0.000 A 
ATOM     18  C   UNL     1      86.510  63.657  90.493  0.00  0.00    +0.000 A 
ATOM     19  C   UNL     1      86.964  64.229  91.683  0.00  0.00    +0.000 A 
ENDBRANCH  13  17
ENDBRANCH  12  13
ENDBRANCH   1  12
TORSDOF 3
ENDMDL
