REMARK  Name = *****
REMARK  3 active torsions:
REMARK  status: ('A' for Active; 'I' for Inactive)
REMARK    1  A    between atoms: C_1  and  N_2
REMARK    2  A    between atoms: C_3  and  C_9
REMARK    3  A    between atoms: C_10  and  C_11
REMARK                            x       y       z     vdW  Elec       q    Type
REMARK                         _______ _______ _______ _____ _____    ______ ____
ROOT
ATOM      1  C   UNL     1       2.808   2.643  -0.322  0.00  0.00    +0.000 C 
ATOM      2  C   UNL     1       2.531   3.121  -1.546  0.00  0.00    +0.000 C 
ATOM      3 CL   UNL     1       2.665   2.160  -2.978  0.00  0.00    +0.000 Cl
ENDROOT
BRANCH   1   6
ATOM      4  C   UNL     1       1.093   0.222  -0.436  0.00  0.00    +0.000 C 
ATOM      5  N   UNL     1       2.570   0.184  -0.171  0.00  0.00    +0.000 NA
ATOM      6  C   UNL     1       3.300   1.257  -0.089  0.00  0.00    +0.000 C 
ATOM      7  C   UNL     1       4.764   1.115   0.290  0.00  0.00    +0.000 C 
ATOM      8  C   UNL     1       5.601   0.509  -0.832  0.00  0.00    +0.000 C 
ATOM      9  C   UNL     1       5.505  -1.012  -0.900  0.00  0.00    +0.000 C 
ATOM     10  C   UNL     1       4.091  -1.541  -1.134  0.00  0.00    +0.000 C 
ATOM     11  C   UNL     1       3.126  -1.208  -0.003  0.00  0.00    +0.000 C 
ENDBRANCH   1   6
BRANCH   2  12
ATOM     12  C   UNL     1       2.090   4.513  -1.732  0.00  0.00    +0.000 A 
ATOM     13  C   UNL     1       2.899   5.582  -1.315  0.00  0.00    +0.000 A 
ATOM     14  C   UNL     1       2.474   6.903  -1.485  0.00  0.00    +0.000 A 
ATOM     15  C   UNL     1       1.240   7.163  -2.075  0.00  0.00    +0.000 A 
ATOM     16  C   UNL     1       0.427   6.115  -2.500  0.00  0.00    +0.000 A 
ATOM     17  C   UNL     1       0.851   4.794  -2.330  0.00  0.00    +0.000 A 
ATOM     18 BR   UNL     1       0.666   8.949  -2.305  0.00  0.00    +0.000 Br
ENDBRANCH   2  12
TORSDOF 2
