MODEL 1
REMARK VINA RESULT:      -4.3      0.000      0.000
REMARK  Name = *****
REMARK  6 active torsions:
REMARK  status: ('A' for Active; 'I' for Inactive)
REMARK    1  A    between atoms: C_1  and  O_2
REMARK    2  A    between atoms: O_2  and  C_3
REMARK    3  A    between atoms: C_3  and  C_4
REMARK    4  A    between atoms: C_3  and  C_12
REMARK    5  A    between atoms: C_4  and  C_5
REMARK    6  A    between atoms: C_5  and  C_6
REMARK                            x       y       z     vdW  Elec       q    Type
REMARK                         _______ _______ _______ _____ _____    ______ ____
ROOT
ATOM      1  C   UNL     1      89.774  68.912  86.585  0.00  0.00    +0.000 C 
ENDROOT
BRANCH   1   2
ATOM      2  C   UNL     1      89.899  69.624  85.249  0.00  0.00    +0.000 A 
ATOM      3  C   UNL     1      90.158  71.002  85.205  0.00  0.00    +0.000 A 
ATOM      4  C   UNL     1      90.261  71.667  83.982  0.00  0.00    +0.000 A 
ATOM      5  C   UNL     1      90.100  70.964  82.789  0.00  0.00    +0.000 A 
ATOM      6  C   UNL     1      89.836  69.596  82.818  0.00  0.00    +0.000 A 
ATOM      7  C   UNL     1      89.734  68.931  84.039  0.00  0.00    +0.000 A 
ENDBRANCH   1   2
BRANCH   1   9
ATOM      8  C   UNL     1      89.193  66.616  86.828  0.00  0.00    +0.000 C 
ATOM      9  O   UNL     1      90.210  67.549  86.484  0.00  0.00    +0.000 OA
ENDBRANCH   1   9
BRANCH   1  10
ATOM     10  C   UNL     1      88.311  68.918  87.053  0.00  0.00    +0.000 C 
BRANCH  10  11
ATOM     11  C   UNL     1      88.029  70.089  88.000  0.00  0.00    +0.000 C 
BRANCH  11  12
ATOM     12  C   UNL     1      86.846  70.904  87.539  0.00  0.00    +0.000 A 
ATOM     13  C   UNL     1      85.930  71.411  88.472  0.00  0.00    +0.000 A 
ATOM     14  C   UNL     1      84.825  72.150  88.046  0.00  0.00    +0.000 A 
ATOM     15  C   UNL     1      84.623  72.387  86.688  0.00  0.00    +0.000 A 
ATOM     16  C   UNL     1      85.526  71.881  85.753  0.00  0.00    +0.000 A 
ATOM     17  C   UNL     1      86.631  71.141  86.175  0.00  0.00    +0.000 A 
ENDBRANCH  11  12
ENDBRANCH  10  11
ENDBRANCH   1  10
TORSDOF 5
ENDMDL
