MODEL 1
REMARK VINA RESULT:      -4.5      0.000      0.000
REMARK  Name = *****
REMARK  7 active torsions:
REMARK  status: ('A' for Active; 'I' for Inactive)
REMARK    1  A    between atoms: C_1  and  C_2
REMARK    2  A    between atoms: C_3  and  C_10
REMARK    3  A    between atoms: C_4  and  C_7
REMARK    4  A    between atoms: C_7  and  C_9
REMARK    5  A    between atoms: C_10  and  O_11
REMARK    6  A    between atoms: O_11  and  C_12
REMARK    7  A    between atoms: C_15  and  C_18
REMARK                            x       y       z     vdW  Elec       q    Type
REMARK                         _______ _______ _______ _____ _____    ______ ____
ROOT
ATOM      1  C   UNL     1      85.221  71.934  87.286  0.00  0.00    +0.000 C 
ATOM      2  C   UNL     1      86.545  71.283  87.483  0.00  0.00    +0.000 C 
ATOM      3  C   UNL     1      87.412  70.816  86.566  0.00  0.00    +0.000 C 
ATOM      4  C   UNL     1      88.636  70.210  87.214  0.00  0.00    +0.000 C 
ATOM      5  C   UNL     1      88.519  70.695  88.668  0.00  0.00    +0.000 C 
ATOM      6  C   UNL     1      87.052  71.068  88.878  0.00  0.00    +0.000 C 
ENDROOT
BRANCH   4   7
ATOM      7  C   UNL     1      88.703  68.697  87.067  0.00  0.00    +0.000 C 
ATOM      8  C   UNL     1      89.735  68.113  86.432  0.00  0.00    +0.000 C 
ATOM      9  C   UNL     1      87.588  67.863  87.640  0.00  0.00    +0.000 C 
ENDBRANCH   4   7
BRANCH   3  10
ATOM     10  C   UNL     1      87.303  70.827  85.072  0.00  0.00    +0.000 C 
BRANCH  10  11
ATOM     11  O   UNL     1      87.881  72.042  84.596  0.00  0.00    +0.000 OA
BRANCH  11  12
ATOM     12  C   UNL     1      89.139  71.969  84.065  0.00  0.00    +0.000 A 
ATOM     13  C   UNL     1      89.880  70.807  83.857  0.00  0.00    +0.000 A 
ATOM     14  C   UNL     1      91.162  70.878  83.300  0.00  0.00    +0.000 A 
ATOM     15  C   UNL     1      91.723  72.113  82.956  0.00  0.00    +0.000 A 
ATOM     16  C   UNL     1      90.972  73.275  83.153  0.00  0.00    +0.000 A 
ATOM     17  C   UNL     1      89.693  73.201  83.709  0.00  0.00    +0.000 A 
ATOM     18  C   UNL     1      93.082  72.182  82.325  0.00  0.00    +0.000 C 
ENDBRANCH  11  12
ENDBRANCH  10  11
ENDBRANCH   3  10
TORSDOF 4
ENDMDL
