MODEL 1
REMARK VINA RESULT:      -4.3      0.000      0.000
REMARK  Name = *****
REMARK  4 active torsions:
REMARK  status: ('A' for Active; 'I' for Inactive)
REMARK    1  A    between atoms: C_4  and  O_7
REMARK    2  A    between atoms: O_7  and  C_8
REMARK    3  A    between atoms: C_8  and  O_10
REMARK    4  A    between atoms: O_10  and  C_11
REMARK                            x       y       z     vdW  Elec       q    Type
REMARK                         _______ _______ _______ _____ _____    ______ ____
ROOT
ATOM      1  C   UNL     1     103.370 126.566  80.602  0.00  0.00    +0.000 C 
ATOM      2  O   UNL     1     103.543 127.576  79.932  0.00  0.00    +0.000 OA
ENDROOT
BRANCH   1   3
ATOM      3  O   UNL     1     103.251 126.502  81.984  0.00  0.00    +0.000 OA
BRANCH   3   7
ATOM      4  C   UNL     1      99.782 128.278  83.485  0.00  0.00    +0.000 A 
ATOM      5  C   UNL     1     101.015 128.894  83.711  0.00  0.00    +0.000 A 
ATOM      6  C   UNL     1     102.187 128.310  83.229  0.00  0.00    +0.000 A 
ATOM      7  C   UNL     1     102.112 127.100  82.541  0.00  0.00    +0.000 A 
ATOM      8  C   UNL     1     100.885 126.488  82.292  0.00  0.00    +0.000 A 
ATOM      9  C   UNL     1      99.717 127.078  82.773  0.00  0.00    +0.000 A 
ENDBRANCH   3   7
ENDBRANCH   1   3
BRANCH   1  10
ATOM     10  O   UNL     1     103.255 125.269  80.119  0.00  0.00    +0.000 OA
BRANCH  10  11
ATOM     11  C   UNL     1     104.446 124.546  80.202  0.00  0.00    +0.000 A 
ATOM     12  C   UNL     1     104.510 123.438  81.044  0.00  0.00    +0.000 A 
ATOM     13  C   UNL     1     105.684 122.685  81.090  0.00  0.00    +0.000 A 
ATOM     14  C   UNL     1     106.767 123.042  80.284  0.00  0.00    +0.000 A 
ATOM     15  C   UNL     1     106.687 124.142  79.427  0.00  0.00    +0.000 A 
ATOM     16  C   UNL     1     105.515 124.897  79.379  0.00  0.00    +0.000 A 
ATOM     17 BR   UNL     1     108.356 122.019  80.345  0.00  0.00    +0.000 Br
ENDBRANCH  10  11
ENDBRANCH   1  10
TORSDOF 4
ENDMDL
