MODEL 1
REMARK VINA RESULT:      -4.5      0.000      0.000
REMARK  Name = *****
REMARK  4 active torsions:
REMARK  status: ('A' for Active; 'I' for Inactive)
REMARK    1  A    between atoms: C_1  and  C_2
REMARK    2  A    between atoms: C_7  and  C_9
REMARK    3  A    between atoms: C_9  and  C_10
REMARK    4  A    between atoms: C_10  and  C_11
REMARK                            x       y       z     vdW  Elec       q    Type
REMARK                         _______ _______ _______ _____ _____    ______ ____
ROOT
ATOM      1  C   UNL     1      86.504  66.611  88.822  0.00  0.00    +0.000 C 
ATOM      2  C   UNL     1      87.350  66.751  87.556  0.00  0.00    +0.000 C 
ATOM      3  C   UNL     1      88.436  65.670  87.541  0.00  0.00    +0.000 C 
ATOM      4  C   UNL     1      89.235  65.536  86.244  0.00  0.00    +0.000 C 
ATOM      5  C   UNL     1      90.272  66.627  85.969  0.00  0.00    +0.000 C 
ATOM      6  C   UNL     1      89.985  68.062  86.417  0.00  0.00    +0.000 C 
ATOM      7  C   UNL     1      88.522  68.500  86.387  0.00  0.00    +0.000 C 
ATOM      8  O   UNL     1      87.893  68.066  87.593  0.00  0.00    +0.000 OA
ATOM      9 CL   UNL     1      88.155  65.312  84.826  0.00  0.00    +0.000 Cl
ENDROOT
BRANCH   7  10
ATOM     10  C   UNL     1      88.437  70.035  86.370  0.00  0.00    +0.000 C 
BRANCH  10  11
ATOM     11  C   UNL     1      87.837  70.586  87.669  0.00  0.00    +0.000 C 
BRANCH  11  12
ATOM     12  C   UNL     1      86.509  71.259  87.423  0.00  0.00    +0.000 A 
ATOM     13  C   UNL     1      86.094  71.561  86.120  0.00  0.00    +0.000 A 
ATOM     14  C   UNL     1      84.873  72.199  85.897  0.00  0.00    +0.000 A 
ATOM     15  C   UNL     1      84.058  72.544  86.974  0.00  0.00    +0.000 A 
ATOM     16  C   UNL     1      84.465  72.254  88.276  0.00  0.00    +0.000 A 
ATOM     17  C   UNL     1      85.686  71.616  88.500  0.00  0.00    +0.000 A 
ENDBRANCH  11  12
ENDBRANCH  10  11
ENDBRANCH   7  10
TORSDOF 3
ENDMDL
