MODEL 1
REMARK VINA RESULT:      -4.4      0.000      0.000
REMARK  Name = *****
REMARK  2 active torsions:
REMARK  status: ('A' for Active; 'I' for Inactive)
REMARK    1  A    between atoms: C_4  and  C_7
REMARK    2  A    between atoms: C_8  and  C_10
REMARK                            x       y       z     vdW  Elec       q    Type
REMARK                         _______ _______ _______ _____ _____    ______ ____
ROOT
ATOM      1  C   UNL     1     101.867 125.997  82.073  0.00  0.00    +0.000 C 
ATOM      2  C   UNL     1     103.208 126.177  81.405  0.00  0.00    +0.000 C 
ATOM      3  O   UNL     1     103.096 125.911  82.810  0.00  0.00    +0.000 OA
ENDROOT
BRANCH   1   7
ATOM      4  C   UNL     1      99.013 128.516  84.148  0.00  0.00    +0.000 C 
ATOM      5  C   UNL     1     100.488 128.901  84.206  0.00  0.00    +0.000 C 
ATOM      6  C   UNL     1     101.390 127.738  83.797  0.00  0.00    +0.000 C 
ATOM      7  C   UNL     1     101.014 127.186  82.415  0.00  0.00    +0.000 C 
ATOM      8  C   UNL     1      99.529 126.801  82.368  0.00  0.00    +0.000 C 
ATOM      9  C   UNL     1      98.630 127.964  82.778  0.00  0.00    +0.000 C 
ENDBRANCH   1   7
BRANCH   2  10
ATOM     10  C   UNL     1     103.824 125.063  80.605  0.00  0.00    +0.000 C 
ATOM     11  C   UNL     1     104.246 123.909  81.524  0.00  0.00    +0.000 C 
ATOM     12  C   UNL     1     104.944 122.794  80.750  0.00  0.00    +0.000 C 
ATOM     13  C   UNL     1     106.130 123.323  79.949  0.00  0.00    +0.000 C 
ATOM     14  C   UNL     1     105.721 124.471  79.032  0.00  0.00    +0.000 C 
ATOM     15  C   UNL     1     105.025 125.588  79.804  0.00  0.00    +0.000 C 
ENDBRANCH   2  10
TORSDOF 2
ENDMDL
