REMARK  Name = *****
REMARK  4 active torsions:
REMARK  status: ('A' for Active; 'I' for Inactive)
REMARK    1  A    between atoms: C_1  and  C_2
REMARK    2  A    between atoms: C_4  and  C_10
REMARK    3  A    between atoms: C_5  and  C_8
REMARK    4  A    between atoms: C_11  and  C_12
REMARK                            x       y       z     vdW  Elec       q    Type
REMARK                         _______ _______ _______ _____ _____    ______ ____
ROOT
ATOM      1  C   UNL     1       1.079  -0.124   0.106  0.00  0.00    +0.000 C 
ATOM      2  C   UNL     1       2.577  -0.074   0.024  0.00  0.00    +0.000 A 
ATOM      3  C   UNL     1       3.231   1.134  -0.257  0.00  0.00    +0.000 A 
ATOM      4  C   UNL     1       4.632   1.199  -0.365  0.00  0.00    +0.000 A 
ATOM      5  C   UNL     1       5.377   0.014  -0.219  0.00  0.00    +0.000 A 
ATOM      6  C   UNL     1       4.722  -1.197   0.046  0.00  0.00    +0.000 A 
ATOM      7  C   UNL     1       3.332  -1.241   0.164  0.00  0.00    +0.000 A 
ENDROOT
BRANCH   5   8
ATOM      8  C   UNL     1       6.808   0.005  -0.333  0.00  0.00    +0.000 C 
ATOM      9  N   UNL     1       7.965  -0.016  -0.435  0.00  0.00    +0.000 NA
ENDBRANCH   5   8
BRANCH   4  10
ATOM     10  C   UNL     1       5.279   2.487  -0.675  0.00  0.00    +0.000 C 
ATOM     11  C   UNL     1       5.025   3.611   0.015  0.00  0.00    +0.000 C 
BRANCH  11  12
ATOM     12  C   UNL     1       5.662   4.853  -0.283  0.00  0.00    +0.000 A 
ATOM     13  C   UNL     1       6.713   5.161  -1.133  0.00  0.00    +0.000 A 
ATOM     14  C   UNL     1       7.050   6.546  -1.138  0.00  0.00    +0.000 A 
ATOM     15  C   UNL     1       6.249   7.271  -0.288  0.00  0.00    +0.000 A 
ATOM     16  S   UNL     1       5.107   6.285   0.509  0.00  0.00    +0.000 S 
ENDBRANCH  11  12
ENDBRANCH   4  10
TORSDOF 3
