REMARK  Name = *****
REMARK  3 active torsions:
REMARK  status: ('A' for Active; 'I' for Inactive)
REMARK    1  A    between atoms: C_1  and  C_2
REMARK    2  A    between atoms: C_5  and  C_8
REMARK    3  A    between atoms: C_9  and  N_10
REMARK                            x       y       z     vdW  Elec       q    Type
REMARK                         _______ _______ _______ _____ _____    ______ ____
ROOT
ATOM      1  C   UNL     1      -3.145   0.534   0.492  0.00  0.00    +0.000 C 
ATOM      2  C   UNL     1      -3.773   1.691   0.228  0.00  0.00    +0.000 C 
ENDROOT
BRANCH   1   7
ATOM      3  C   UNL     1       2.482  -0.516  -0.367  0.00  0.00    +0.000 C 
ATOM      4  C   UNL     1       1.025  -0.220  -0.172  0.00  0.00    +0.000 A 
ATOM      5  C   UNL     1       0.612   1.006   0.359  0.00  0.00    +0.000 A 
ATOM      6  C   UNL     1      -0.746   1.268   0.569  0.00  0.00    +0.000 A 
ATOM      7  C   UNL     1      -1.714   0.308   0.252  0.00  0.00    +0.000 A 
ATOM      8  C   UNL     1      -1.296  -0.930  -0.249  0.00  0.00    +0.000 A 
ATOM      9  C   UNL     1       0.061  -1.192  -0.461  0.00  0.00    +0.000 A 
ENDBRANCH   1   7
BRANCH   2  10
ATOM     10  N   UNL     1      -5.087   2.097   0.376  0.00  0.00    +0.000 N 
ATOM     11  C   UNL     1      -5.829   1.608   1.543  0.00  0.00    +0.000 C 
ATOM     12  C   UNL     1      -6.147   1.105   0.169  0.00  0.00    +0.000 C 
ATOM     13  C   UNL     1      -7.461   1.538  -0.401  0.00  0.00    +0.000 C 
ATOM     14  C   UNL     1      -8.577   1.336   0.626  0.00  0.00    +0.000 C 
ATOM     15  C   UNL     1      -8.251   1.861   2.038  0.00  0.00    +0.000 C 
ATOM     16  C   UNL     1      -6.861   2.486   2.178  0.00  0.00    +0.000 C 
ENDBRANCH   2  10
TORSDOF 2
