MODEL 1
REMARK VINA RESULT:      -5.3      0.000      0.000
REMARK  Name = *****
REMARK  2 active torsions:
REMARK  status: ('A' for Active; 'I' for Inactive)
REMARK    1  A    between atoms: C_1  and  C_2
REMARK    2  A    between atoms: C_3  and  C_12
REMARK                            x       y       z     vdW  Elec       q    Type
REMARK                         _______ _______ _______ _____ _____    ______ ____
ROOT
ATOM      1  C   UNL     1     103.205 126.235  80.405  0.00  0.00    +0.000 C 
ATOM      2  C   UNL     1     103.364 125.343  81.608  0.00  0.00    +0.000 A 
ATOM      3  C   UNL     1     102.702 125.620  82.810  0.00  0.00    +0.000 A 
ATOM      4  N   UNL     1     102.883 124.847  83.902  0.00  0.00    +0.000 NA
ATOM      5  N   UNL     1     103.699 123.748  83.852  0.00  0.00    +0.000 NA
ATOM      6  C   UNL     1     104.320 123.408  82.718  0.00  0.00    +0.000 A 
ATOM      7  C   UNL     1     105.118 122.269  82.701  0.00  0.00    +0.000 A 
ATOM      8  C   UNL     1     105.786 121.857  81.547  0.00  0.00    +0.000 A 
ATOM      9  C   UNL     1     105.654 122.598  80.383  0.00  0.00    +0.000 A 
ATOM     10  C   UNL     1     104.860 123.747  80.382  0.00  0.00    +0.000 A 
ATOM     11  C   UNL     1     104.180 124.179  81.548  0.00  0.00    +0.000 A 
ENDROOT
BRANCH   3  12
ATOM     12  C   UNL     1     101.763 126.730  83.019  0.00  0.00    +0.000 A 
ATOM     13  C   UNL     1     102.187 127.950  83.580  0.00  0.00    +0.000 A 
ATOM     14  C   UNL     1     101.287 129.002  83.769  0.00  0.00    +0.000 A 
ATOM     15  C   UNL     1      99.960 128.844  83.390  0.00  0.00    +0.000 A 
ATOM     16  C   UNL     1      99.515 127.658  82.821  0.00  0.00    +0.000 A 
ATOM     17  C   UNL     1     100.415 126.606  82.632  0.00  0.00    +0.000 A 
ATOM     18  F   UNL     1      99.098 129.854  83.571  0.00  0.00    +0.000 F 
ENDBRANCH   3  12
TORSDOF 1
ENDMDL
