MODEL 1
REMARK VINA RESULT:      -4.4      0.000      0.000
REMARK  Name = *****
REMARK  3 active torsions:
REMARK  status: ('A' for Active; 'I' for Inactive)
REMARK    1  A    between atoms: C_1  and  C_2
REMARK    2  A    between atoms: C_5  and  S_8
REMARK    3  A    between atoms: S_8  and  C_9
REMARK                            x       y       z     vdW  Elec       q    Type
REMARK                         _______ _______ _______ _____ _____    ______ ____
ROOT
ATOM      1  S   UNL     1     102.497 127.838  82.772  0.00  0.00    +0.000 S 
ENDROOT
BRANCH   1   6
ATOM      2  C   UNL     1     104.869 122.679  80.574  0.00  0.00    +0.000 C 
ATOM      3  C   UNL     1     104.307 123.960  81.116  0.00  0.00    +0.000 A 
ATOM      4  C   UNL     1     103.977 125.013  80.255  0.00  0.00    +0.000 A 
ATOM      5  C   UNL     1     103.425 126.194  80.760  0.00  0.00    +0.000 A 
ATOM      6  C   UNL     1     103.170 126.326  82.127  0.00  0.00    +0.000 A 
ATOM      7  C   UNL     1     103.508 125.281  82.990  0.00  0.00    +0.000 A 
ATOM      8  C   UNL     1     104.060 124.100  82.487  0.00  0.00    +0.000 A 
ENDBRANCH   1   6
BRANCH   1   9
ATOM      9  C   UNL     1     100.850 127.339  83.413  0.00  0.00    +0.000 C 
ATOM     10  C   UNL     1      99.881 126.713  82.366  0.00  0.00    +0.000 C 
ATOM     11  C   UNL     1      98.536 127.396  82.704  0.00  0.00    +0.000 C 
ATOM     12  C   UNL     1      98.997 128.830  82.971  0.00  0.00    +0.000 C 
ATOM     13  C   UNL     1      99.966 128.422  84.089  0.00  0.00    +0.000 C 
ATOM     14  C   UNL     1      98.969 127.661  84.948  0.00  0.00    +0.000 C 
ATOM     15  C   UNL     1      98.131 127.026  84.113  0.00  0.00    +0.000 C 
ENDBRANCH   1   9
TORSDOF 2
ENDMDL
