MODEL 1
REMARK VINA RESULT:      -4.9      0.000      0.000
REMARK  Name = *****
REMARK  4 active torsions:
REMARK  status: ('A' for Active; 'I' for Inactive)
REMARK    1  A    between atoms: C_4  and  C_7
REMARK    2  A    between atoms: C_7  and  C_9
REMARK    3  A    between atoms: C_9  and  C_10
REMARK    4  A    between atoms: C_10  and  C_11
REMARK                            x       y       z     vdW  Elec       q    Type
REMARK                         _______ _______ _______ _____ _____    ______ ____
ROOT
ATOM      1  C   UNL     1     100.468 126.567  82.758  0.00  0.00    +0.000 C 
ENDROOT
BRANCH   1   2
ATOM      2  C   UNL     1      99.195 127.392  82.760  0.00  0.00    +0.000 C 
ATOM      3  O   UNL     1      98.247 127.135  82.019  0.00  0.00    +0.000 OA
BRANCH   2   7
ATOM      4  C   UNL     1      98.875 130.667  85.526  0.00  0.00    +0.000 A 
ATOM      5  C   UNL     1      99.286 130.915  84.218  0.00  0.00    +0.000 A 
ATOM      6  C   UNL     1      99.396 129.864  83.303  0.00  0.00    +0.000 A 
ATOM      7  C   UNL     1      99.094 128.553  83.697  0.00  0.00    +0.000 A 
ATOM      8  C   UNL     1      98.683 128.313  85.016  0.00  0.00    +0.000 A 
ATOM      9  C   UNL     1      98.574 129.367  85.927  0.00  0.00    +0.000 A 
ENDBRANCH   2   7
ENDBRANCH   1   2
BRANCH   1  10
ATOM     10  C   UNL     1     101.714 127.454  82.769  0.00  0.00    +0.000 C 
BRANCH  10  11
ATOM     11  C   UNL     1     102.780 126.914  81.847  0.00  0.00    +0.000 A 
ATOM     12  C   UNL     1     103.044 125.538  81.797  0.00  0.00    +0.000 A 
ATOM     13  C   UNL     1     104.015 125.042  80.927  0.00  0.00    +0.000 A 
ATOM     14  C   UNL     1     104.729 125.905  80.097  0.00  0.00    +0.000 A 
ATOM     15  C   UNL     1     104.469 127.274  80.138  0.00  0.00    +0.000 A 
ATOM     16  C   UNL     1     103.498 127.776  81.006  0.00  0.00    +0.000 A 
ATOM     17 CL   UNL     1     104.330 123.351  80.873  0.00  0.00    +0.000 Cl
ENDBRANCH  10  11
ENDBRANCH   1  10
TORSDOF 4
ENDMDL
