MODEL 1
REMARK VINA RESULT:      -4.0      0.000      0.000
REMARK  Name = *****
REMARK  4 active torsions:
REMARK  status: ('A' for Active; 'I' for Inactive)
REMARK    1  A    between atoms: C_4  and  C_7
REMARK    2  A    between atoms: C_7  and  C_8
REMARK    3  A    between atoms: C_8  and  S_9
REMARK    4  A    between atoms: S_9  and  C_10
REMARK                            x       y       z     vdW  Elec       q    Type
REMARK                         _______ _______ _______ _____ _____    ______ ____
ROOT
ATOM      1  C   UNL     1      84.764  70.442  89.313  0.00  0.00    +0.000 C 
ENDROOT
BRANCH   1   2
ATOM      2  C   UNL     1      85.120  71.870  88.902  0.00  0.00    +0.000 C 
BRANCH   2   6
ATOM      3  C   UNL     1      84.553  72.510  84.674  0.00  0.00    +0.000 A 
ATOM      4  C   UNL     1      85.710  71.884  85.135  0.00  0.00    +0.000 A 
ATOM      5  C   UNL     1      85.891  71.670  86.502  0.00  0.00    +0.000 A 
ATOM      6  C   UNL     1      84.913  72.078  87.420  0.00  0.00    +0.000 A 
ATOM      7  C   UNL     1      83.757  72.711  86.946  0.00  0.00    +0.000 A 
ATOM      8  C   UNL     1      83.578  72.924  85.579  0.00  0.00    +0.000 A 
ENDBRANCH   2   6
ENDBRANCH   1   2
BRANCH   1   9
ATOM      9  S   UNL     1      86.123  69.719  90.295  0.00  0.00    +0.000 S 
BRANCH   9  10
ATOM     10  C   UNL     1      87.354  69.585  89.000  0.00  0.00    +0.000 A 
ATOM     11  C   UNL     1      87.212  68.532  88.085  0.00  0.00    +0.000 A 
ATOM     12  C   UNL     1      88.132  68.358  87.049  0.00  0.00    +0.000 A 
ATOM     13  C   UNL     1      89.209  69.232  86.918  0.00  0.00    +0.000 A 
ATOM     14  C   UNL     1      89.368  70.277  87.827  0.00  0.00    +0.000 A 
ATOM     15  C   UNL     1      88.449  70.456  88.867  0.00  0.00    +0.000 A 
ATOM     16 CL   UNL     1      88.729  71.772  89.955  0.00  0.00    +0.000 Cl
ENDBRANCH   9  10
ENDBRANCH   1   9
TORSDOF 4
ENDMDL
