MODEL 1
REMARK VINA RESULT:      -4.9      0.000      0.000
REMARK  Name = *****
REMARK  2 active torsions:
REMARK  status: ('A' for Active; 'I' for Inactive)
REMARK    1  A    between atoms: C_2  and  C_11
REMARK    2  A    between atoms: C_11  and  C_12
REMARK                            x       y       z     vdW  Elec       q    Type
REMARK                         _______ _______ _______ _____ _____    ______ ____
ROOT
ATOM      1  C   UNL     1      90.027  69.603  84.349  0.00  0.00    +0.000 C 
ATOM      2  C   UNL     1      88.925  69.464  85.411  0.00  0.00    +0.000 C 
ATOM      3  C   UNL     1      89.164  68.038  85.780  0.00  0.00    +0.000 A 
ATOM      4  C   UNL     1      89.927  67.438  84.788  0.00  0.00    +0.000 A 
ATOM      5  O   UNL     1      90.303  68.296  83.788  0.00  0.00    +0.000 OA
ATOM      6  C   UNL     1      90.247  66.095  84.815  0.00  0.00    +0.000 A 
ATOM      7  C   UNL     1      89.789  65.338  85.895  0.00  0.00    +0.000 A 
ATOM      8  C   UNL     1      89.016  65.938  86.902  0.00  0.00    +0.000 A 
ATOM      9  C   UNL     1      88.689  67.295  86.849  0.00  0.00    +0.000 A 
ATOM     10 CL   UNL     1      88.452  64.980  88.218  0.00  0.00    +0.000 Cl
ENDROOT
BRANCH   2  11
ATOM     11  C   UNL     1      89.038  70.478  86.553  0.00  0.00    +0.000 C 
ATOM     12  F   UNL     1      89.746  69.885  87.566  0.00  0.00    +0.000 F 
BRANCH  11  13
ATOM     13  C   UNL     1      87.684  70.939  87.050  0.00  0.00    +0.000 A 
ATOM     14  C   UNL     1      86.705  71.362  86.138  0.00  0.00    +0.000 A 
ATOM     15  C   UNL     1      85.463  71.811  86.589  0.00  0.00    +0.000 A 
ATOM     16  C   UNL     1      85.187  71.841  87.954  0.00  0.00    +0.000 A 
ATOM     17  C   UNL     1      86.149  71.417  88.869  0.00  0.00    +0.000 A 
ATOM     18  C   UNL     1      87.391  70.967  88.421  0.00  0.00    +0.000 A 
ENDBRANCH  11  13
ENDBRANCH   2  11
TORSDOF 2
ENDMDL
