MODEL 1
REMARK VINA RESULT:      -4.9      0.000      0.000
REMARK  Name = *****
REMARK  5 active torsions:
REMARK  status: ('A' for Active; 'I' for Inactive)
REMARK    1  A    between atoms: C_1  and  C_2
REMARK    2  A    between atoms: C_5  and  S_8
REMARK    3  A    between atoms: S_8  and  N_10
REMARK    4  A    between atoms: N_10  and  C_11
REMARK    5  A    between atoms: C_16  and  C_17
REMARK                            x       y       z     vdW  Elec       q    Type
REMARK                         _______ _______ _______ _____ _____    ______ ____
ROOT
ATOM      1  S   UNL     1      89.226  64.167  86.284  0.00  0.00    +0.000 S 
ATOM      2  O   UNL     1      90.622  63.911  85.801  0.00  0.00    +0.000 OA
ENDROOT
BRANCH   1   7
ATOM      3  C   UNL     1      88.802  70.198  87.215  0.00  0.00    +0.000 C 
ATOM      4  C   UNL     1      88.892  68.721  86.964  0.00  0.00    +0.000 A 
ATOM      5  C   UNL     1      90.014  68.175  86.329  0.00  0.00    +0.000 A 
ATOM      6  C   UNL     1      90.112  66.796  86.127  0.00  0.00    +0.000 A 
ATOM      7  C   UNL     1      89.090  65.946  86.566  0.00  0.00    +0.000 A 
ATOM      8  C   UNL     1      87.977  66.487  87.216  0.00  0.00    +0.000 A 
ATOM      9  C   UNL     1      87.881  67.866  87.417  0.00  0.00    +0.000 A 
ENDBRANCH   1   7
BRANCH   1  10
ATOM     10  N   UNL     1      89.092  63.797  87.905  0.00  0.00    +0.000 N 
ATOM     11  H   UNL     1      89.889  63.923  88.468  0.00  0.00    +0.000 HD
BRANCH  10  12
ATOM     12  C   UNL     1      87.920  63.315  88.530  0.00  0.00    +0.000 A 
ATOM     13  C   UNL     1      86.909  62.641  87.824  0.00  0.00    +0.000 A 
ATOM     14  C   UNL     1      85.773  62.141  88.465  0.00  0.00    +0.000 A 
ATOM     15  C   UNL     1      85.628  62.288  89.838  0.00  0.00    +0.000 A 
ATOM     16  C   UNL     1      86.627  62.920  90.570  0.00  0.00    +0.000 A 
ATOM     17  C   UNL     1      87.780  63.422  89.936  0.00  0.00    +0.000 A 
ATOM     18  C   UNL     1      88.835  64.073  90.794  0.00  0.00    +0.000 C 
ENDBRANCH  10  12
ENDBRANCH   1  10
TORSDOF 3
ENDMDL
