MODEL 1
REMARK VINA RESULT:      -4.4      0.000      0.000
REMARK  Name = *****
REMARK  2 active torsions:
REMARK  status: ('A' for Active; 'I' for Inactive)
REMARK    1  A    between atoms: C_4  and  C_7
REMARK    2  A    between atoms: C_8  and  C_9
REMARK                            x       y       z     vdW  Elec       q    Type
REMARK                         _______ _______ _______ _____ _____    ______ ____
ROOT
ATOM      1  C   UNL     1     102.602 125.745  82.156  0.00  0.00    +0.000 C 
ATOM      2  C   UNL     1     103.175 125.701  80.943  0.00  0.00    +0.000 C 
ATOM      3  F   UNL     1     102.949 124.849  83.109  0.00  0.00    +0.000 F 
ENDROOT
BRANCH   1   7
ATOM      4  C   UNL     1      99.444 128.434  83.253  0.00  0.00    +0.000 A 
ATOM      5  C   UNL     1      99.166 127.234  82.603  0.00  0.00    +0.000 A 
ATOM      6  C   UNL     1     100.208 126.372  82.252  0.00  0.00    +0.000 A 
ATOM      7  C   UNL     1     101.543 126.700  82.535  0.00  0.00    +0.000 A 
ATOM      8  C   UNL     1     101.804 127.906  83.203  0.00  0.00    +0.000 A 
ATOM      9  C   UNL     1     100.761 128.769  83.556  0.00  0.00    +0.000 A 
ENDBRANCH   1   7
BRANCH   2  10
ATOM     10  C   UNL     1     104.192 124.770  80.568  0.00  0.00    +0.000 A 
ATOM     11  C   UNL     1     104.357 123.420  80.840  0.00  0.00    +0.000 A 
ATOM     12  C   UNL     1     105.537 122.863  80.262  0.00  0.00    +0.000 A 
ATOM     13  C   UNL     1     106.255 123.800  79.561  0.00  0.00    +0.000 A 
ATOM     14  S   UNL     1     105.512 125.334  79.600  0.00  0.00    +0.000 S 
ENDBRANCH   2  10
TORSDOF 2
ENDMDL
