MODEL 1
REMARK VINA RESULT:      -4.9      0.000      0.000
REMARK  Name = *****
REMARK  2 active torsions:
REMARK  status: ('A' for Active; 'I' for Inactive)
REMARK    1  A    between atoms: C_6  and  C_7
REMARK    2  A    between atoms: C_8  and  C_9
REMARK                            x       y       z     vdW  Elec       q    Type
REMARK                         _______ _______ _______ _____ _____    ______ ____
ROOT
ATOM      1  C   UNL     1     101.309 127.320  82.635  0.00  0.00    +0.000 A 
ATOM      2  C   UNL     1      99.947 127.034  82.522  0.00  0.00    +0.000 A 
ATOM      3  C   UNL     1      99.001 127.841  83.149  0.00  0.00    +0.000 A 
ATOM      4  C   UNL     1      99.408 128.940  83.893  0.00  0.00    +0.000 A 
ATOM      5  C   UNL     1     100.759 129.234  84.012  0.00  0.00    +0.000 A 
ATOM      6  C   UNL     1     101.706 128.429  83.386  0.00  0.00    +0.000 A 
ATOM      7  F   UNL     1     103.007 128.728  83.513  0.00  0.00    +0.000 F 
ATOM      8  F   UNL     1     101.152 130.295  84.730  0.00  0.00    +0.000 F 
ATOM      9  F   UNL     1      98.496 129.715  84.496  0.00  0.00    +0.000 F 
ATOM     10  F   UNL     1      97.697 127.555  83.032  0.00  0.00    +0.000 F 
ATOM     11  F   UNL     1      99.536 125.977  81.807  0.00  0.00    +0.000 F 
ENDROOT
BRANCH   1  13
ATOM     12  C   UNL     1     103.102 125.801  81.451  0.00  0.00    +0.000 C 
ATOM     13  C   UNL     1     102.282 126.493  81.992  0.00  0.00    +0.000 C 
BRANCH  12  19
ATOM     14  C   UNL     1     104.274 123.668  81.221  0.00  0.00    +0.000 A 
ATOM     15  C   UNL     1     105.231 122.914  80.564  0.00  0.00    +0.000 A 
ATOM     16  N   UNL     1     105.983 123.381  79.544  0.00  0.00    +0.000 NA
ATOM     17  C   UNL     1     105.769 124.659  79.163  0.00  0.00    +0.000 A 
ATOM     18  C   UNL     1     104.837 125.493  79.756  0.00  0.00    +0.000 A 
ATOM     19  C   UNL     1     104.078 124.981  80.805  0.00  0.00    +0.000 A 
ENDBRANCH  12  19
ENDBRANCH   1  13
TORSDOF 2
ENDMDL
