MODEL 1
REMARK VINA RESULT:      -4.7      0.000      0.000
REMARK  Name = *****
REMARK  2 active torsions:
REMARK  status: ('A' for Active; 'I' for Inactive)
REMARK    1  A    between atoms: C_4  and  O_7
REMARK    2  A    between atoms: O_7  and  P_8
REMARK                            x       y       z     vdW  Elec       q    Type
REMARK                         _______ _______ _______ _____ _____    ______ ____
ROOT
ATOM      1  P   UNL     1      88.900  65.866  86.284  0.00  0.00    +0.000 P 
ATOM      2  N   UNL     1      89.435  64.679  87.333  0.00  0.00    +0.000 N 
ATOM      3  C   UNL     1      88.543  64.563  88.411  0.00  0.00    +0.000 A 
ATOM      4  C   UNL     1      88.610  63.677  89.469  0.00  0.00    +0.000 A 
ATOM      5  C   UNL     1      87.653  63.789  90.485  0.00  0.00    +0.000 A 
ATOM      6  C   UNL     1      86.665  64.790  90.440  0.00  0.00    +0.000 A 
ATOM      7  C   UNL     1      86.621  65.699  89.381  0.00  0.00    +0.000 A 
ATOM      8  C   UNL     1      87.573  65.566  88.391  0.00  0.00    +0.000 A 
ATOM      9  O   UNL     1      87.680  66.366  87.277  0.00  0.00    +0.000 OA
ATOM     10  H   UNL     1      90.252  64.141  87.212  0.00  0.00    +0.000 HD
ENDROOT
BRANCH   1  11
ATOM     11  O   UNL     1      89.994  67.001  86.671  0.00  0.00    +0.000 OA
BRANCH  11  15
ATOM     12  C   UNL     1      89.659  70.909  85.299  0.00  0.00    +0.000 A 
ATOM     13  C   UNL     1      89.522  70.649  86.663  0.00  0.00    +0.000 A 
ATOM     14  C   UNL     1      89.626  69.342  87.140  0.00  0.00    +0.000 A 
ATOM     15  C   UNL     1      89.853  68.295  86.243  0.00  0.00    +0.000 A 
ATOM     16  C   UNL     1      90.016  68.556  84.883  0.00  0.00    +0.000 A 
ATOM     17  C   UNL     1      89.910  69.864  84.409  0.00  0.00    +0.000 A 
ENDBRANCH  11  15
ENDBRANCH   1  11
TORSDOF 2
ENDMDL
