MODEL 1
REMARK VINA RESULT:      -4.3      0.000      0.000
REMARK  Name = *****
REMARK  2 active torsions:
REMARK  status: ('A' for Active; 'I' for Inactive)
REMARK    1  A    between atoms: C_3  and  C_6
REMARK    2  A    between atoms: C_7  and  C_8
REMARK                            x       y       z     vdW  Elec       q    Type
REMARK                         _______ _______ _______ _____ _____    ______ ____
ROOT
ATOM      1  C   UNL     1      85.914  62.693  90.805  0.00  0.00    +0.000 C 
ATOM      2  C   UNL     1      85.810  61.553  90.100  0.00  0.00    +0.000 C 
ENDROOT
BRANCH   2   3
ATOM      3  C   UNL     1      84.966  60.414  90.487  0.00  0.00    +0.000 A 
ATOM      4  C   UNL     1      83.568  60.499  90.536  0.00  0.00    +0.000 A 
ATOM      5  C   UNL     1      82.797  59.383  90.878  0.00  0.00    +0.000 A 
ATOM      6  C   UNL     1      83.421  58.171  91.163  0.00  0.00    +0.000 A 
ATOM      7  C   UNL     1      84.809  58.064  91.102  0.00  0.00    +0.000 A 
ATOM      8  C   UNL     1      85.576  59.183  90.760  0.00  0.00    +0.000 A 
ATOM      9  I   UNL     1      82.278  56.512  91.670  0.00  0.00    +0.000 I 
ENDBRANCH   2   3
BRANCH   1  12
ATOM     10  C   UNL     1      88.892  63.619  89.415  0.00  0.00    +0.000 C 
ATOM     11  C   UNL     1      87.576  63.547  89.153  0.00  0.00    +0.000 C 
ATOM     12  C   UNL     1      86.786  63.847  90.401  0.00  0.00    +0.000 C 
ATOM     13  C   UNL     1      87.888  64.095  91.397  0.00  0.00    +0.000 C 
ATOM     14  C   UNL     1      89.084  63.958  90.803  0.00  0.00    +0.000 C 
ENDBRANCH   1  12
TORSDOF 2
ENDMDL
