MODEL 1
REMARK VINA RESULT:      -4.6      0.000      0.000
REMARK  Name = *****
REMARK  3 active torsions:
REMARK  status: ('A' for Active; 'I' for Inactive)
REMARK    1  A    between atoms: C_4  and  C_7
REMARK    2  A    between atoms: C_8  and  C_9
REMARK    3  A    between atoms: C_14  and  N_15
REMARK                            x       y       z     vdW  Elec       q    Type
REMARK                         _______ _______ _______ _____ _____    ______ ____
ROOT
ATOM      1  C   UNL     1     104.118 125.518  80.798  0.00  0.00    +0.000 A 
ATOM      2  C   UNL     1     103.925 124.179  81.175  0.00  0.00    +0.000 A 
ATOM      3  C   UNL     1     104.827 123.194  80.781  0.00  0.00    +0.000 A 
ATOM      4  C   UNL     1     105.935 123.540  80.017  0.00  0.00    +0.000 A 
ATOM      5  C   UNL     1     106.137 124.870  79.637  0.00  0.00    +0.000 A 
ATOM      6  C   UNL     1     105.227 125.881  79.993  0.00  0.00    +0.000 A 
ENDROOT
BRANCH   6   7
ATOM      7  N   UNL     1     105.460 127.246  79.660  0.00  0.00    +0.000 N 
ATOM      8  I   UNL     1     106.679 128.378  80.760  0.00  0.00    +0.000 I 
ATOM      9  H   UNL     1     105.012 127.636  78.874  0.00  0.00    +0.000 HD
ENDBRANCH   6   7
BRANCH   1  11
ATOM     10  C   UNL     1     102.078 126.119  82.023  0.00  0.00    +0.000 C 
ATOM     11  C   UNL     1     103.120 126.492  81.264  0.00  0.00    +0.000 C 
BRANCH  10  15
ATOM     12  C   UNL     1      99.157 128.820  83.598  0.00  0.00    +0.000 A 
ATOM     13  C   UNL     1      98.739 127.685  82.908  0.00  0.00    +0.000 A 
ATOM     14  C   UNL     1      99.681 126.798  82.380  0.00  0.00    +0.000 A 
ATOM     15  C   UNL     1     101.053 127.042  82.529  0.00  0.00    +0.000 A 
ATOM     16  C   UNL     1     101.461 128.179  83.240  0.00  0.00    +0.000 A 
ATOM     17  C   UNL     1     100.518 129.067  83.766  0.00  0.00    +0.000 A 
ENDBRANCH  10  15
ENDBRANCH   1  11
TORSDOF 3
ENDMDL
