REMARK  Name = *****
REMARK  2 active torsions:
REMARK  status: ('A' for Active; 'I' for Inactive)
REMARK    1  A    between atoms: C_1  and  C_2
REMARK    2  A    between atoms: C_7  and  C_8
REMARK                            x       y       z     vdW  Elec       q    Type
REMARK                         _______ _______ _______ _____ _____    ______ ____
ROOT
ATOM      1  C   UNL     1       0.845  -2.574   0.353  0.00  0.00    +0.000 C 
ATOM      2  N   UNL     1       0.484  -3.688   0.896  0.00  0.00    +0.000 NA
ATOM      3  C   UNL     1       0.812  -4.885   0.264  0.00  0.00    +0.000 A 
ATOM      4  C   UNL     1       0.395  -6.090   0.834  0.00  0.00    +0.000 A 
ATOM      5  C   UNL     1       0.701  -7.308   0.224  0.00  0.00    +0.000 A 
ATOM      6  C   UNL     1       1.430  -7.325  -0.963  0.00  0.00    +0.000 A 
ATOM      7  C   UNL     1       1.850  -6.125  -1.536  0.00  0.00    +0.000 A 
ATOM      8  C   UNL     1       1.538  -4.904  -0.922  0.00  0.00    +0.000 A 
ATOM      9  C   UNL     1       1.978  -3.604  -1.508  0.00  0.00    +0.000 C 
ATOM     10  O   UNL     1       1.537  -2.433  -0.802  0.00  0.00    +0.000 OA
ENDROOT
BRANCH   1  17
ATOM     11  C   UNL     1      -1.763  -2.016   1.746  0.00  0.00    +0.000 C 
ATOM     12  C   UNL     1      -0.689  -0.976   1.581  0.00  0.00    +0.000 A 
ATOM     13  C   UNL     1      -0.904   0.304   2.122  0.00  0.00    +0.000 A 
ATOM     14  C   UNL     1       0.056   1.309   1.996  0.00  0.00    +0.000 A 
ATOM     15  C   UNL     1       1.251   1.051   1.333  0.00  0.00    +0.000 A 
ATOM     16  C   UNL     1       1.488  -0.216   0.799  0.00  0.00    +0.000 A 
ATOM     17  C   UNL     1       0.528  -1.237   0.918  0.00  0.00    +0.000 A 
ENDBRANCH   1  17
TORSDOF 1
