MODEL 1
REMARK VINA RESULT:      -4.7      0.000      0.000
REMARK  Name = *****
REMARK  5 active torsions:
REMARK  status: ('A' for Active; 'I' for Inactive)
REMARK    1  A    between atoms: C_1  and  C_2
REMARK    2  A    between atoms: C_5  and  C_8
REMARK    3  A    between atoms: C_8  and  S_10
REMARK    4  A    between atoms: S_10  and  C_11
REMARK    5  A    between atoms: C_14  and  C_17
REMARK                            x       y       z     vdW  Elec       q    Type
REMARK                         _______ _______ _______ _____ _____    ______ ____
ROOT
ATOM      1  C   UNL     1      87.820  70.806  85.642  0.00  0.00    +0.000 C 
ATOM      2  O   UNL     1      87.902  70.688  84.425  0.00  0.00    +0.000 OA
ENDROOT
BRANCH   1   7
ATOM      3  C   UNL     1      82.947  73.100  87.843  0.00  0.00    +0.000 C 
ATOM      4  C   UNL     1      84.195  72.474  87.292  0.00  0.00    +0.000 A 
ATOM      5  C   UNL     1      85.167  71.956  88.154  0.00  0.00    +0.000 A 
ATOM      6  C   UNL     1      86.350  71.404  87.647  0.00  0.00    +0.000 A 
ATOM      7  C   UNL     1      86.584  71.372  86.265  0.00  0.00    +0.000 A 
ATOM      8  C   UNL     1      85.607  71.898  85.405  0.00  0.00    +0.000 A 
ATOM      9  C   UNL     1      84.427  72.451  85.914  0.00  0.00    +0.000 A 
ENDBRANCH   1   7
BRANCH   1  10
ATOM     10  S   UNL     1      89.171  70.395  86.696  0.00  0.00    +0.000 S 
BRANCH  10  11
ATOM     11  C   UNL     1      89.042  68.621  86.778  0.00  0.00    +0.000 A 
ATOM     12  C   UNL     1      90.043  67.792  86.266  0.00  0.00    +0.000 A 
ATOM     13  C   UNL     1      89.937  66.403  86.374  0.00  0.00    +0.000 A 
ATOM     14  C   UNL     1      88.827  65.822  86.996  0.00  0.00    +0.000 A 
ATOM     15  C   UNL     1      87.837  66.653  87.532  0.00  0.00    +0.000 A 
ATOM     16  C   UNL     1      87.944  68.043  87.422  0.00  0.00    +0.000 A 
ATOM     17  C   UNL     1      88.734  64.332  87.144  0.00  0.00    +0.000 C 
ENDBRANCH  10  11
ENDBRANCH   1  10
TORSDOF 3
ENDMDL
