REMARK  Name = *****
REMARK  4 active torsions:
REMARK  status: ('A' for Active; 'I' for Inactive)
REMARK    1  A    between atoms: C_2  and  C_3
REMARK    2  A    between atoms: C_2  and  O_9
REMARK    3  A    between atoms: O_9  and  C_10
REMARK    4  A    between atoms: C_10  and  C_12
REMARK                            x       y       z     vdW  Elec       q    Type
REMARK                         _______ _______ _______ _____ _____    ______ ____
ROOT
ATOM      1  O   UNL     1       3.046   1.300  -0.543  0.00  0.00    +0.000 OA
ENDROOT
BRANCH   1   3
ATOM      2  C   UNL     1       0.970   0.400   0.207  0.00  0.00    +0.000 C 
ATOM      3  C   UNL     1       2.304   0.311   0.119  0.00  0.00    +0.000 C 
BRANCH   3   4
ATOM      4  C   UNL     1       3.094  -0.736   0.794  0.00  0.00    +0.000 A 
ATOM      5  C   UNL     1       2.717  -2.085   0.729  0.00  0.00    +0.000 A 
ATOM      6  C   UNL     1       3.479  -3.069   1.362  0.00  0.00    +0.000 A 
ATOM      7  C   UNL     1       4.631  -2.717   2.063  0.00  0.00    +0.000 A 
ATOM      8  C   UNL     1       5.023  -1.382   2.128  0.00  0.00    +0.000 A 
ATOM      9  C   UNL     1       4.261  -0.397   1.494  0.00  0.00    +0.000 A 
ENDBRANCH   3   4
ENDBRANCH   1   3
BRANCH   1  10
ATOM     10  C   UNL     1       3.278   1.008  -1.858  0.00  0.00    +0.000 C 
ATOM     11  O   UNL     1       2.881   0.037  -2.487  0.00  0.00    +0.000 OA
BRANCH  10  12
ATOM     12  C   UNL     1       4.116   2.078  -2.470  0.00  0.00    +0.000 A 
ATOM     13  C   UNL     1       4.525   3.219  -1.763  0.00  0.00    +0.000 A 
ATOM     14  C   UNL     1       5.310   4.190  -2.391  0.00  0.00    +0.000 A 
ATOM     15  C   UNL     1       5.689   4.030  -3.723  0.00  0.00    +0.000 A 
ATOM     16  C   UNL     1       5.286   2.900  -4.433  0.00  0.00    +0.000 A 
ATOM     17  C   UNL     1       4.502   1.927  -3.810  0.00  0.00    +0.000 A 
ENDBRANCH  10  12
ENDBRANCH   1  10
TORSDOF 4
