MODEL 1
REMARK VINA RESULT:      -4.4      0.000      0.000
REMARK  Name = *****
REMARK  3 active torsions:
REMARK  status: ('A' for Active; 'I' for Inactive)
REMARK    1  A    between atoms: C_1  and  C_2
REMARK    2  A    between atoms: C_4  and  C_7
REMARK    3  A    between atoms: C_8  and  C_9
REMARK                            x       y       z     vdW  Elec       q    Type
REMARK                         _______ _______ _______ _____ _____    ______ ____
ROOT
ATOM      1  C   UNL     1     103.096 125.523  81.429  0.00  0.00    +0.000 C 
ATOM      2  C   UNL     1     102.267 126.221  81.947  0.00  0.00    +0.000 C 
ENDROOT
BRANCH   2   3
ATOM      3  C   UNL     1     101.299 127.082  82.553  0.00  0.00    +0.000 A 
ATOM      4  C   UNL     1      99.934 126.801  82.434  0.00  0.00    +0.000 A 
ATOM      5  C   UNL     1      98.996 127.654  83.020  0.00  0.00    +0.000 A 
ATOM      6  C   UNL     1      99.428 128.778  83.716  0.00  0.00    +0.000 A 
ATOM      7  C   UNL     1     100.783 129.065  83.842  0.00  0.00    +0.000 A 
ATOM      8  C   UNL     1     101.723 128.214  83.259  0.00  0.00    +0.000 A 
ATOM      9  F   UNL     1      98.527 129.597  84.274  0.00  0.00    +0.000 F 
ENDBRANCH   2   3
BRANCH   1  13
ATOM     10  C   UNL     1     106.581 124.555  78.153  0.00  0.00    +0.000 C 
ATOM     11  C   UNL     1     105.662 124.354  79.307  0.00  0.00    +0.000 A 
ATOM     12  N   UNL     1     104.775 125.235  79.718  0.00  0.00    +0.000 NA
ATOM     13  C   UNL     1     104.102 124.729  80.808  0.00  0.00    +0.000 A 
ATOM     14  C   UNL     1     104.475 123.470  81.219  0.00  0.00    +0.000 A 
ATOM     15  S   UNL     1     105.725 122.886  80.204  0.00  0.00    +0.000 S 
ENDBRANCH   1  13
TORSDOF 2
ENDMDL
