MODEL 1
REMARK VINA RESULT:      -4.5      0.000      0.000
REMARK  Name = *****
REMARK  2 active torsions:
REMARK  status: ('A' for Active; 'I' for Inactive)
REMARK    1  A    between atoms: C_5  and  C_6
REMARK    2  A    between atoms: C_6  and  C_7
REMARK                            x       y       z     vdW  Elec       q    Type
REMARK                         _______ _______ _______ _____ _____    ______ ____
ROOT
ATOM      1  C   UNL     1      89.625  65.254  86.086  0.00  0.00    +0.000 C 
ATOM      2  C   UNL     1      88.817  65.839  87.244  0.00  0.00    +0.000 C 
ATOM      3  C   UNL     1      88.186  67.184  86.878  0.00  0.00    +0.000 C 
ATOM      4  C   UNL     1      89.231  68.144  86.359  0.00  0.00    +0.000 C 
ATOM      5  C   UNL     1      89.485  69.372  86.852  0.00  0.00    +0.000 C 
ATOM      6  C   UNL     1      90.039  67.590  85.205  0.00  0.00    +0.000 C 
ATOM      7  C   UNL     1      90.669  66.247  85.574  0.00  0.00    +0.000 C 
ENDROOT
BRANCH   5   8
ATOM      8  C   UNL     1      88.792  70.083  87.982  0.00  0.00    +0.000 C 
BRANCH   8   9
ATOM      9  C   UNL     1      87.516  70.757  87.534  0.00  0.00    +0.000 A 
ATOM     10  C   UNL     1      87.278  71.010  86.176  0.00  0.00    +0.000 A 
ATOM     11  C   UNL     1      86.103  71.647  85.770  0.00  0.00    +0.000 A 
ATOM     12  C   UNL     1      85.159  72.041  86.716  0.00  0.00    +0.000 A 
ATOM     13  C   UNL     1      85.389  71.802  88.070  0.00  0.00    +0.000 A 
ATOM     14  C   UNL     1      86.563  71.167  88.478  0.00  0.00    +0.000 A 
ENDBRANCH   8   9
ENDBRANCH   5   8
TORSDOF 2
ENDMDL
