MODEL 1
REMARK VINA RESULT:      -5.1      0.000      0.000
REMARK  Name = *****
REMARK  3 active torsions:
REMARK  status: ('A' for Active; 'I' for Inactive)
REMARK    1  A    between atoms: C_4  and  C_7
REMARK    2  A    between atoms: C_7  and  C_10
REMARK    3  A    between atoms: C_10  and  C_12
REMARK                            x       y       z     vdW  Elec       q    Type
REMARK                         _______ _______ _______ _____ _____    ______ ____
ROOT
ATOM      1  C   UNL     1     100.125 127.499  83.228  0.00  0.00    +0.000 C 
ATOM      2  C   UNL     1      99.053 127.077  82.617  0.00  0.00    +0.000 C 
ATOM      3  O   UNL     1      98.077 126.712  82.072  0.00  0.00    +0.000 OA
ENDROOT
BRANCH   1   7
ATOM      4  C   UNL     1     100.443 131.539  84.676  0.00  0.00    +0.000 A 
ATOM      5  C   UNL     1     101.315 130.556  85.135  0.00  0.00    +0.000 A 
ATOM      6  C   UNL     1     101.208 129.246  84.662  0.00  0.00    +0.000 A 
ATOM      7  C   UNL     1     100.228 128.895  83.717  0.00  0.00    +0.000 A 
ATOM      8  C   UNL     1      99.353 129.901  83.270  0.00  0.00    +0.000 A 
ATOM      9  C   UNL     1      99.462 131.211  83.745  0.00  0.00    +0.000 A 
ENDBRANCH   1   7
BRANCH   1  10
ATOM     10  C   UNL     1     101.295 126.562  83.286  0.00  0.00    +0.000 C 
ATOM     11  N   UNL     1     101.448 125.690  84.236  0.00  0.00    +0.000 NA
ATOM     12  H   UNL     1     100.780 125.624  84.955  0.00  0.00    +0.000 HD
BRANCH  10  13
ATOM     13  C   UNL     1     102.324 126.642  82.206  0.00  0.00    +0.000 A 
ATOM     14  C   UNL     1     102.562 125.505  81.422  0.00  0.00    +0.000 A 
ATOM     15  C   UNL     1     103.508 125.542  80.397  0.00  0.00    +0.000 A 
ATOM     16  C   UNL     1     104.213 126.717  80.142  0.00  0.00    +0.000 A 
ATOM     17  C   UNL     1     103.967 127.859  80.903  0.00  0.00    +0.000 A 
ATOM     18  C   UNL     1     103.021 127.827  81.931  0.00  0.00    +0.000 A 
ENDBRANCH  10  13
ENDBRANCH   1  10
TORSDOF 3
ENDMDL
