MODEL 1
REMARK VINA RESULT:      -4.2      0.000      0.000
REMARK  Name = *****
REMARK  2 active torsions:
REMARK  status: ('A' for Active; 'I' for Inactive)
REMARK    1  A    between atoms: C_3  and  C_8
REMARK    2  A    between atoms: N_9  and  C_10
REMARK                            x       y       z     vdW  Elec       q    Type
REMARK                         _______ _______ _______ _____ _____    ______ ____
ROOT
ATOM      1  C   UNL     1      89.723  70.041  85.204  0.00  0.00    +0.000 C 
ATOM      2  N   UNL     1      89.960  68.844  84.761  0.00  0.00    +0.000 NA
ATOM      3 CL   UNL     1      90.584  71.293  84.360  0.00  0.00    +0.000 Cl
ENDROOT
BRANCH   1   6
ATOM      4  C   UNL     1      86.663  71.179  87.121  0.00  0.00    +0.000 A 
ATOM      5  C   UNL     1      87.505  70.837  86.062  0.00  0.00    +0.000 A 
ATOM      6  C   UNL     1      88.818  70.421  86.319  0.00  0.00    +0.000 A 
ATOM      7  C   UNL     1      89.281  70.324  87.633  0.00  0.00    +0.000 A 
ATOM      8  C   UNL     1      88.430  70.667  88.676  0.00  0.00    +0.000 A 
ATOM      9  C   UNL     1      87.129  71.096  88.432  0.00  0.00    +0.000 A 
ATOM     10  F   UNL     1      88.870  70.585  89.937  0.00  0.00    +0.000 F 
ENDBRANCH   1   6
BRANCH   2  11
ATOM     11  C   UNL     1      89.302  67.724  85.278  0.00  0.00    +0.000 A 
ATOM     12  C   UNL     1      88.057  67.314  84.784  0.00  0.00    +0.000 A 
ATOM     13  C   UNL     1      87.433  66.177  85.301  0.00  0.00    +0.000 A 
ATOM     14  C   UNL     1      88.067  65.440  86.295  0.00  0.00    +0.000 A 
ATOM     15  C   UNL     1      89.316  65.814  86.775  0.00  0.00    +0.000 A 
ATOM     16  C   UNL     1      89.936  66.953  86.259  0.00  0.00    +0.000 A 
ATOM     17  F   UNL     1      87.470  64.348  86.790  0.00  0.00    +0.000 F 
ENDBRANCH   2  11
TORSDOF 2
ENDMDL
