REMARK  Name = *****
REMARK  6 active torsions:
REMARK  status: ('A' for Active; 'I' for Inactive)
REMARK    1  A    between atoms: C_1  and  C_2
REMARK    2  A    between atoms: C_4  and  O_16
REMARK    3  A    between atoms: C_5  and  C_8
REMARK    4  A    between atoms: C_8  and  C_9
REMARK    5  A    between atoms: C_9  and  C_10
REMARK    6  A    between atoms: O_16  and  C_17
REMARK                            x       y       z     vdW  Elec       q    Type
REMARK                         _______ _______ _______ _____ _____    ______ ____
ROOT
ATOM      1  C   UNL     1       2.425  -0.497   0.354  0.00  0.00    +0.000 C 
ATOM      2  C   UNL     1       0.942  -0.285   0.281  0.00  0.00    +0.000 A 
ATOM      3  C   UNL     1       0.362   0.874   0.812  0.00  0.00    +0.000 A 
ATOM      4  C   UNL     1      -1.025   1.066   0.777  0.00  0.00    +0.000 A 
ATOM      5  C   UNL     1      -1.861   0.075   0.217  0.00  0.00    +0.000 A 
ATOM      6  C   UNL     1      -1.269  -1.083  -0.309  0.00  0.00    +0.000 A 
ATOM      7  C   UNL     1       0.115  -1.266  -0.268  0.00  0.00    +0.000 A 
ENDROOT
BRANCH   4   8
ATOM      8  O   UNL     1      -1.664   2.182   1.256  0.00  0.00    +0.000 OA
ATOM      9  C   UNL     1      -0.869   3.176   1.889  0.00  0.00    +0.000 C 
ENDBRANCH   4   8
BRANCH   5  10
ATOM     10  C   UNL     1      -3.362   0.313   0.161  0.00  0.00    +0.000 C 
BRANCH  10  11
ATOM     11  C   UNL     1      -4.291  -0.876  -0.141  0.00  0.00    +0.000 C 
BRANCH  11  12
ATOM     12  C   UNL     1      -4.385  -1.997   0.874  0.00  0.00    +0.000 A 
ATOM     13  C   UNL     1      -3.872  -1.909   2.175  0.00  0.00    +0.000 A 
ATOM     14  C   UNL     1      -4.013  -2.972   3.072  0.00  0.00    +0.000 A 
ATOM     15  C   UNL     1      -4.677  -4.133   2.685  0.00  0.00    +0.000 A 
ATOM     16  C   UNL     1      -5.202  -4.233   1.400  0.00  0.00    +0.000 A 
ATOM     17  C   UNL     1      -5.059  -3.173   0.503  0.00  0.00    +0.000 A 
ENDBRANCH  11  12
ENDBRANCH  10  11
ENDBRANCH   5  10
TORSDOF 4
