MODEL 1
REMARK VINA RESULT:      -4.8      0.000      0.000
REMARK  Name = *****
REMARK  4 active torsions:
REMARK  status: ('A' for Active; 'I' for Inactive)
REMARK    1  A    between atoms: C_1  and  O_2
REMARK    2  A    between atoms: O_2  and  C_3
REMARK    3  A    between atoms: C_6  and  C_9
REMARK    4  A    between atoms: C_10  and  C_11
REMARK                            x       y       z     vdW  Elec       q    Type
REMARK                         _______ _______ _______ _____ _____    ______ ____
ROOT
ATOM      1  C   UNL     1     101.818 127.034  82.206  0.00  0.00    +0.000 C 
ATOM      2  C   UNL     1     100.584 126.800  82.683  0.00  0.00    +0.000 C 
ENDROOT
BRANCH   2   3
ATOM      3  C   UNL     1      99.635 127.834  83.115  0.00  0.00    +0.000 C 
ATOM      4  C   UNL     1     100.172 129.085  83.768  0.00  0.00    +0.000 C 
ATOM      5  C   UNL     1      99.447 128.059  84.597  0.00  0.00    +0.000 C 
ATOM      6  C   UNL     1      98.125 128.490  85.157  0.00  0.00    +0.000 C 
ATOM      7  C   UNL     1      98.253 129.866  85.818  0.00  0.00    +0.000 C 
ATOM      8  C   UNL     1      98.988 130.917  84.964  0.00  0.00    +0.000 C 
ATOM      9  C   UNL     1      99.475 130.404  83.606  0.00  0.00    +0.000 C 
ENDBRANCH   2   3
BRANCH   1  13
ATOM     10  C   UNL     1     104.604 123.983  81.060  0.00  0.00    +0.000 A 
ATOM     11  C   UNL     1     104.196 124.933  80.126  0.00  0.00    +0.000 A 
ATOM     12  C   UNL     1     103.281 125.930  80.487  0.00  0.00    +0.000 A 
ATOM     13  C   UNL     1     102.754 125.986  81.783  0.00  0.00    +0.000 A 
ATOM     14  C   UNL     1     103.182 125.040  82.721  0.00  0.00    +0.000 A 
ATOM     15  C   UNL     1     104.094 124.045  82.359  0.00  0.00    +0.000 A 
BRANCH  10  17
ATOM     16  C   UNL     1     104.993 121.639  81.011  0.00  0.00    +0.000 C 
ATOM     17  O   UNL     1     105.487 122.963  80.840  0.00  0.00    +0.000 OA
ENDBRANCH  10  17
ENDBRANCH   1  13
TORSDOF 3
ENDMDL
