MODEL 1
REMARK VINA RESULT:      -3.5      0.000      0.000
REMARK  Name = *****
REMARK  3 active torsions:
REMARK  status: ('A' for Active; 'I' for Inactive)
REMARK    1  A    between atoms: C_3  and  S_7
REMARK    2  A    between atoms: S_7  and  S_8
REMARK    3  A    between atoms: S_8  and  C_9
REMARK                            x       y       z     vdW  Elec       q    Type
REMARK                         _______ _______ _______ _____ _____    ______ ____
ROOT
ATOM      1  S   UNL     1      86.578  64.149  87.283  0.00  0.00    +0.000 S 
ENDROOT
BRANCH   1   4
ATOM      2  C   UNL     1      89.051  63.806  90.493  0.00  0.00    +0.000 C 
ATOM      3  C   UNL     1      88.752  63.910  88.993  0.00  0.00    +0.000 C 
ATOM      4  C   UNL     1      87.343  64.511  88.904  0.00  0.00    +0.000 C 
ATOM      5  C   UNL     1      86.651  63.990  90.168  0.00  0.00    +0.000 C 
ATOM      6  C   UNL     1      87.751  64.166  91.214  0.00  0.00    +0.000 C 
ATOM      7 CL   UNL     1      86.187  62.261  90.078  0.00  0.00    +0.000 Cl
ENDBRANCH   1   4
BRANCH   1   8
ATOM      8  S   UNL     1      88.111  64.427  85.940  0.00  0.00    +0.000 S 
BRANCH   8   9
ATOM      9  C   UNL     1      88.509  66.205  86.087  0.00  0.00    +0.000 C 
ATOM     10  C   UNL     1      88.263  66.935  84.760  0.00  0.00    +0.000 C 
ATOM     11  C   UNL     1      89.103  68.214  84.842  0.00  0.00    +0.000 C 
ATOM     12  C   UNL     1      89.943  68.093  86.115  0.00  0.00    +0.000 C 
ATOM     13  C   UNL     1      89.941  66.604  86.455  0.00  0.00    +0.000 C 
ATOM     14 CL   UNL     1      91.196  65.770  85.483  0.00  0.00    +0.000 Cl
ENDBRANCH   8   9
ENDBRANCH   1   8
TORSDOF 3
ENDMDL
