MODEL 1
REMARK VINA RESULT:      -5.2      0.000      0.000
REMARK  Name = *****
REMARK  5 active torsions:
REMARK  status: ('A' for Active; 'I' for Inactive)
REMARK    1  A    between atoms: C_1  and  C_2
REMARK    2  A    between atoms: C_4  and  C_19
REMARK    3  A    between atoms: C_5  and  N_9
REMARK    4  A    between atoms: C_6  and  C_8
REMARK    5  A    between atoms: C_10  and  C_12
REMARK                            x       y       z     vdW  Elec       q    Type
REMARK                         _______ _______ _______ _____ _____    ______ ____
ROOT
ATOM      1  N   UNL     1     102.561 127.218  82.872  0.00  0.00    +0.000 N 
ATOM      2  C   UNL     1     101.207 127.523  82.854  0.00  0.00    +0.000 C 
ATOM      3  O   UNL     1     100.322 126.863  82.324  0.00  0.00    +0.000 OA
ATOM      4  H   UNL     1     103.145 127.830  83.375  0.00  0.00    +0.000 HD
ENDROOT
BRANCH   1   9
ATOM      5  C   UNL     1     105.045 122.601  80.514  0.00  0.00    +0.000 C 
ATOM      6  C   UNL     1     104.392 123.811  81.113  0.00  0.00    +0.000 A 
ATOM      7  C   UNL     1     104.148 124.944  80.334  0.00  0.00    +0.000 A 
ATOM      8  C   UNL     1     103.575 126.110  80.882  0.00  0.00    +0.000 A 
ATOM      9  C   UNL     1     103.187 126.115  82.239  0.00  0.00    +0.000 A 
ATOM     10  C   UNL     1     103.488 124.991  83.047  0.00  0.00    +0.000 A 
ATOM     11  C   UNL     1     104.087 123.855  82.472  0.00  0.00    +0.000 A 
ATOM     12  C   UNL     1     103.154 124.939  84.516  0.00  0.00    +0.000 C 
ATOM     13  C   UNL     1     103.476 127.296  79.961  0.00  0.00    +0.000 C 
ENDBRANCH   1   9
BRANCH   2  14
ATOM     14  C   UNL     1     100.909 128.810  83.624  0.00  0.00    +0.000 C 
ATOM     15  C   UNL     1     100.982 128.609  85.153  0.00  0.00    +0.000 C 
ATOM     16  C   UNL     1      99.602 129.094  85.635  0.00  0.00    +0.000 C 
ATOM     17  C   UNL     1      99.510 130.618  85.449  0.00  0.00    +0.000 C 
ATOM     18  C   UNL     1      99.388 130.775  83.926  0.00  0.00    +0.000 C 
ATOM     19  C   UNL     1      99.462 129.322  83.423  0.00  0.00    +0.000 C 
ATOM     20  C   UNL     1      98.691 128.585  84.521  0.00  0.00    +0.000 C 
ENDBRANCH   2  14
TORSDOF 2
ENDMDL
