REMARK  Name = *****
REMARK  2 active torsions:
REMARK  status: ('A' for Active; 'I' for Inactive)
REMARK    1  A    between atoms: C_5  and  C_6
REMARK    2  A    between atoms: C_6  and  C_7
REMARK                            x       y       z     vdW  Elec       q    Type
REMARK                         _______ _______ _______ _____ _____    ______ ____
ROOT
ATOM      1  C   UNL     1      -2.820  -1.759   1.291  0.00  0.00    +0.000 C 
ATOM      2  C   UNL     1      -2.041  -2.034   2.489  0.00  0.00    +0.000 C 
ATOM      3  C   UNL     1      -2.780  -2.729   3.369  0.00  0.00    +0.000 C 
ATOM      4  C   UNL     1      -4.099  -2.941   2.776  0.00  0.00    +0.000 A 
ATOM      5  C   UNL     1      -5.196  -3.602   3.302  0.00  0.00    +0.000 A 
ATOM      6  C   UNL     1      -6.358  -3.669   2.527  0.00  0.00    +0.000 A 
ATOM      7  C   UNL     1      -6.406  -3.082   1.251  0.00  0.00    +0.000 A 
ATOM      8  C   UNL     1      -5.294  -2.416   0.726  0.00  0.00    +0.000 A 
ATOM      9  C   UNL     1      -4.148  -2.352   1.500  0.00  0.00    +0.000 A 
ENDROOT
BRANCH   1  10
ATOM     10  C   UNL     1      -2.443  -1.080   0.198  0.00  0.00    +0.000 C 
BRANCH  10  15
ATOM     11  C   UNL     1      -1.000   0.931  -0.522  0.00  0.00    +0.000 C 
ATOM     12  C   UNL     1       0.489   1.040  -0.690  0.00  0.00    +0.000 C 
ATOM     13  C   UNL     1       1.069  -0.129  -0.371  0.00  0.00    +0.000 C 
ATOM     14  C   UNL     1       0.052  -1.076   0.014  0.00  0.00    +0.000 C 
ATOM     15  C   UNL     1      -1.154  -0.491  -0.047  0.00  0.00    +0.000 C 
ENDBRANCH  10  15
ENDBRANCH   1  10
TORSDOF 2
