MODEL 1
REMARK VINA RESULT:      -4.0      0.000      0.000
REMARK  Name = *****
REMARK  2 active torsions:
REMARK  status: ('A' for Active; 'I' for Inactive)
REMARK    1  A    between atoms: C_4  and  S_8
REMARK    2  A    between atoms: S_8  and  C_9
REMARK                            x       y       z     vdW  Elec       q    Type
REMARK                         _______ _______ _______ _____ _____    ______ ____
ROOT
ATOM      1  C   UNL     1     106.019 127.149  80.526  0.00  0.00    +0.000 C 
ATOM      2  C   UNL     1     104.805 127.900  81.062  0.00  0.00    +0.000 C 
ATOM      3  C   UNL     1     103.472 127.426  80.482  0.00  0.00    +0.000 C 
ATOM      4  C   UNL     1     102.969 126.034  80.894  0.00  0.00    +0.000 C 
ATOM      5  C   UNL     1     103.822 124.878  80.444  0.00  0.00    +0.000 C 
ATOM      6  C   UNL     1     105.156 124.744  80.493  0.00  0.00    +0.000 C 
ATOM      7  C   UNL     1     106.149 125.721  81.042  0.00  0.00    +0.000 C 
ENDROOT
BRANCH   4   8
ATOM      8  S   UNL     1     102.676 125.926  82.707  0.00  0.00    +0.000 S 
BRANCH   8   9
ATOM      9  C   UNL     1     101.280 127.024  82.874  0.00  0.00    +0.000 A 
ATOM     10  C   UNL     1     100.031 126.629  82.387  0.00  0.00    +0.000 A 
ATOM     11  C   UNL     1      98.926 127.473  82.516  0.00  0.00    +0.000 A 
ATOM     12  C   UNL     1      99.065 128.713  83.139  0.00  0.00    +0.000 A 
ATOM     13  C   UNL     1     100.306 129.107  83.637  0.00  0.00    +0.000 A 
ATOM     14  C   UNL     1     101.411 128.262  83.509  0.00  0.00    +0.000 A 
ENDBRANCH   8   9
ENDBRANCH   4   8
TORSDOF 2
ENDMDL
