MODEL 1
REMARK VINA RESULT:      -5.0      0.000      0.000
REMARK  Name = *****
REMARK  4 active torsions:
REMARK  status: ('A' for Active; 'I' for Inactive)
REMARK    1  A    between atoms: C_1  and  C_2
REMARK    2  A    between atoms: C_3  and  O_9
REMARK    3  A    between atoms: O_9  and  C_10
REMARK    4  A    between atoms: C_10  and  C_12
REMARK                            x       y       z     vdW  Elec       q    Type
REMARK                         _______ _______ _______ _____ _____    ______ ____
ROOT
ATOM      1  C   UNL     1     102.213 125.722  82.697  0.00  0.00    +0.000 C 
ATOM      2  O   UNL     1     102.688 125.035  83.586  0.00  0.00    +0.000 OA
ENDROOT
BRANCH   1   3
ATOM      3  C   UNL     1     101.355 126.890  82.966  0.00  0.00    +0.000 A 
ATOM      4  C   UNL     1     100.023 126.930  82.551  0.00  0.00    +0.000 A 
ATOM      5  C   UNL     1      99.244 128.047  82.824  0.00  0.00    +0.000 A 
ATOM      6  C   UNL     1      99.789 129.124  83.515  0.00  0.00    +0.000 A 
ATOM      7  C   UNL     1     101.112 129.093  83.948  0.00  0.00    +0.000 A 
ATOM      8  C   UNL     1     101.898 127.970  83.680  0.00  0.00    +0.000 A 
ATOM      9  F   UNL     1      99.040 130.203  83.776  0.00  0.00    +0.000 F 
ATOM     10  F   UNL     1      97.964 128.085  82.427  0.00  0.00    +0.000 F 
ATOM     11  F   UNL     1      99.468 125.890  81.911  0.00  0.00    +0.000 F 
ENDBRANCH   1   3
BRANCH   1  12
ATOM     12  O   UNL     1     102.435 125.639  81.334  0.00  0.00    +0.000 OA
BRANCH  12  15
ATOM     13  C   UNL     1     103.931 127.796  80.329  0.00  0.00    +0.000 C 
ATOM     14  C   UNL     1     104.462 126.391  80.301  0.00  0.00    +0.000 A 
ATOM     15  C   UNL     1     103.696 125.315  80.782  0.00  0.00    +0.000 A 
ATOM     16  C   UNL     1     104.202 124.014  80.781  0.00  0.00    +0.000 A 
ATOM     17  C   UNL     1     105.476 123.770  80.264  0.00  0.00    +0.000 A 
ATOM     18  C   UNL     1     106.237 124.826  79.769  0.00  0.00    +0.000 A 
ATOM     19  C   UNL     1     105.740 126.130  79.788  0.00  0.00    +0.000 A 
ATOM     20 CL   UNL     1     107.810 124.523  79.140  0.00  0.00    +0.000 Cl
ENDBRANCH  12  15
ENDBRANCH   1  12
TORSDOF 3
ENDMDL
