MODEL 1
REMARK VINA RESULT:      -4.8      0.000      0.000
REMARK  Name = *****
REMARK  5 active torsions:
REMARK  status: ('A' for Active; 'I' for Inactive)
REMARK    1  A    between atoms: C_1  and  C_2
REMARK    2  A    between atoms: C_3  and  C_18
REMARK    3  A    between atoms: C_5  and  N_8
REMARK    4  A    between atoms: N_8  and  C_9
REMARK    5  A    between atoms: C_10  and  C_12
REMARK                            x       y       z     vdW  Elec       q    Type
REMARK                         _______ _______ _______ _____ _____    ______ ____
ROOT
ATOM      1  N   UNL     1     103.194 125.565  81.797  0.00  0.00    +0.000 N 
ATOM      2  C   UNL     1     103.556 125.719  80.383  0.00  0.00    +0.000 C 
ATOM      3  C   UNL     1     103.755 124.531  82.575  0.00  0.00    +0.000 C 
ATOM      4  O   UNL     1     103.449 124.204  83.719  0.00  0.00    +0.000 OA
ENDROOT
BRANCH   1   9
ATOM      5  C   UNL     1      99.474 129.442  84.001  0.00  0.00    +0.000 C 
ATOM      6  C   UNL     1     100.410 128.419  83.422  0.00  0.00    +0.000 A 
ATOM      7  C   UNL     1      99.936 127.269  82.774  0.00  0.00    +0.000 A 
ATOM      8  C   UNL     1     100.856 126.335  82.248  0.00  0.00    +0.000 A 
ATOM      9  C   UNL     1     102.244 126.515  82.336  0.00  0.00    +0.000 A 
ATOM     10  C   UNL     1     102.687 127.680  82.983  0.00  0.00    +0.000 A 
ATOM     11  C   UNL     1     101.790 128.615  83.516  0.00  0.00    +0.000 A 
ATOM     12  C   UNL     1      98.461 126.999  82.634  0.00  0.00    +0.000 C 
ENDBRANCH   1   9
BRANCH   3  13
ATOM     13  C   UNL     1     104.874 123.752  81.996  0.00  0.00    +0.000 A 
ATOM     14  C   UNL     1     106.192 124.200  82.138  0.00  0.00    +0.000 A 
ATOM     15  C   UNL     1     107.235 123.443  81.604  0.00  0.00    +0.000 A 
ATOM     16  C   UNL     1     106.961 122.243  80.946  0.00  0.00    +0.000 A 
ATOM     17  C   UNL     1     105.647 121.787  80.829  0.00  0.00    +0.000 A 
ATOM     18  C   UNL     1     104.599 122.537  81.361  0.00  0.00    +0.000 A 
ENDBRANCH   3  13
TORSDOF 2
ENDMDL
