MODEL 1
REMARK VINA RESULT:      -4.7      0.000      0.000
REMARK  Name = *****
REMARK  4 active torsions:
REMARK  status: ('A' for Active; 'I' for Inactive)
REMARK    1  A    between atoms: C_1  and  C_2
REMARK    2  A    between atoms: C_5  and  C_8
REMARK    3  A    between atoms: C_9  and  C_10
REMARK    4  A    between atoms: C_13  and  C_16
REMARK                            x       y       z     vdW  Elec       q    Type
REMARK                         _______ _______ _______ _____ _____    ______ ____
ROOT
ATOM      1  C   UNL     1     101.839 125.961  82.412  0.00  0.00    +0.000 C 
ATOM      2  C   UNL     1     103.110 125.683  82.745  0.00  0.00    +0.000 C 
ENDROOT
BRANCH   1   7
ATOM      3  C   UNL     1      99.148 130.749  84.244  0.00  0.00    +0.000 C 
ATOM      4  C   UNL     1      99.839 129.519  83.735  0.00  0.00    +0.000 A 
ATOM      5  C   UNL     1      99.107 128.487  83.139  0.00  0.00    +0.000 A 
ATOM      6  C   UNL     1      99.748 127.327  82.693  0.00  0.00    +0.000 A 
ATOM      7  C   UNL     1     101.133 127.178  82.836  0.00  0.00    +0.000 A 
ATOM      8  C   UNL     1     101.858 128.199  83.462  0.00  0.00    +0.000 A 
ATOM      9  C   UNL     1     101.218 129.360  83.906  0.00  0.00    +0.000 A 
ENDBRANCH   1   7
BRANCH   2  10
ATOM     10  C   UNL     1     103.810 124.457  82.336  0.00  0.00    +0.000 A 
ATOM     11  C   UNL     1     104.161 124.206  81.005  0.00  0.00    +0.000 A 
ATOM     12  C   UNL     1     104.855 123.043  80.658  0.00  0.00    +0.000 A 
ATOM     13  C   UNL     1     105.211 122.108  81.637  0.00  0.00    +0.000 A 
ATOM     14  C   UNL     1     104.888 122.372  82.973  0.00  0.00    +0.000 A 
ATOM     15  C   UNL     1     104.195 123.536  83.318  0.00  0.00    +0.000 A 
ATOM     16  C   UNL     1     105.985 120.878  81.271  0.00  0.00    +0.000 C 
ENDBRANCH   2  10
TORSDOF 2
ENDMDL
