MODEL 1
REMARK VINA RESULT:      -4.9      0.000      0.000
REMARK  Name = *****
REMARK  3 active torsions:
REMARK  status: ('A' for Active; 'I' for Inactive)
REMARK    1  A    between atoms: C_1  and  C_2
REMARK    2  A    between atoms: C_5  and  C_8
REMARK    3  A    between atoms: C_9  and  C_10
REMARK                            x       y       z     vdW  Elec       q    Type
REMARK                         _______ _______ _______ _____ _____    ______ ____
ROOT
ATOM      1  C   UNL     1     103.008 125.609  81.607  0.00  0.00    +0.000 C 
ATOM      2  C   UNL     1     102.313 125.805  82.740  0.00  0.00    +0.000 C 
ENDROOT
BRANCH   2   3
ATOM      3  C   UNL     1     101.380 126.921  82.944  0.00  0.00    +0.000 A 
ATOM      4  C   UNL     1     100.023 126.832  82.604  0.00  0.00    +0.000 A 
ATOM      5  C   UNL     1      99.172 127.908  82.846  0.00  0.00    +0.000 A 
ATOM      6  C   UNL     1      99.654 129.071  83.434  0.00  0.00    +0.000 A 
ATOM      7  C   UNL     1     100.992 129.173  83.792  0.00  0.00    +0.000 A 
ATOM      8  C   UNL     1     101.853 128.097  83.553  0.00  0.00    +0.000 A 
ATOM      9  F   UNL     1      98.831 130.103  83.666  0.00  0.00    +0.000 F 
ATOM     10  F   UNL     1      97.879 127.809  82.511  0.00  0.00    +0.000 F 
ENDBRANCH   2   3
BRANCH   1  15
ATOM     11  C   UNL     1     106.819 121.291  81.008  0.00  0.00    +0.000 C 
ATOM     12  C   UNL     1     105.807 122.391  81.141  0.00  0.00    +0.000 A 
ATOM     13  C   UNL     1     105.539 123.244  80.066  0.00  0.00    +0.000 A 
ATOM     14  C   UNL     1     104.621 124.290  80.202  0.00  0.00    +0.000 A 
ATOM     15  C   UNL     1     103.955 124.502  81.415  0.00  0.00    +0.000 A 
ATOM     16  C   UNL     1     104.249 123.666  82.499  0.00  0.00    +0.000 A 
ATOM     17  C   UNL     1     105.167 122.619  82.363  0.00  0.00    +0.000 A 
ENDBRANCH   1  15
TORSDOF 2
ENDMDL
