MODEL 1
REMARK VINA RESULT:      -5.3      0.000      0.000
REMARK  Name = *****
REMARK  5 active torsions:
REMARK  status: ('A' for Active; 'I' for Inactive)
REMARK    1  A    between atoms: C_1  and  C_2
REMARK    2  A    between atoms: C_4  and  O_8
REMARK    3  A    between atoms: O_8  and  C_9
REMARK    4  A    between atoms: C_9  and  C_11
REMARK    5  A    between atoms: C_13  and  C_17
REMARK                            x       y       z     vdW  Elec       q    Type
REMARK                         _______ _______ _______ _____ _____    ______ ____
ROOT
ATOM      1  C   UNL     1     102.754 125.711  83.495  0.00  0.00    +0.000 C 
ATOM      2  O   UNL     1     102.382 125.102  84.486  0.00  0.00    +0.000 OA
ENDROOT
BRANCH   1   3
ATOM      3  C   UNL     1     103.468 125.059  82.360  0.00  0.00    +0.000 A 
ATOM      4  C   UNL     1     103.902 123.725  82.399  0.00  0.00    +0.000 A 
ATOM      5  C   UNL     1     104.570 123.155  81.300  0.00  0.00    +0.000 A 
ATOM      6  C   UNL     1     104.811 123.945  80.166  0.00  0.00    +0.000 A 
ATOM      7  C   UNL     1     104.381 125.271  80.121  0.00  0.00    +0.000 A 
ATOM      8  C   UNL     1     103.713 125.826  81.212  0.00  0.00    +0.000 A 
BRANCH   5   9
ATOM      9  C   UNL     1     105.056 121.727  81.362  0.00  0.00    +0.000 C 
ATOM     10  F   UNL     1     104.133 120.835  80.908  0.00  0.00    +0.000 F 
ATOM     11  F   UNL     1     106.179 121.508  80.623  0.00  0.00    +0.000 F 
ATOM     12  F   UNL     1     105.359 121.340  82.630  0.00  0.00    +0.000 F 
ENDBRANCH   5   9
ENDBRANCH   1   3
BRANCH   1  13
ATOM     13  O   UNL     1     102.596 127.060  83.231  0.00  0.00    +0.000 OA
BRANCH  13  17
ATOM     14  C   UNL     1      99.318 130.598  84.113  0.00  0.00    +0.000 C 
ATOM     15  C   UNL     1      99.666 129.259  83.532  0.00  0.00    +0.000 A 
ATOM     16  C   UNL     1     100.976 128.773  83.605  0.00  0.00    +0.000 A 
ATOM     17  C   UNL     1     101.279 127.517  83.079  0.00  0.00    +0.000 A 
ATOM     18  C   UNL     1     100.289 126.711  82.521  0.00  0.00    +0.000 A 
ATOM     19  C   UNL     1      98.981 127.186  82.458  0.00  0.00    +0.000 A 
ATOM     20  C   UNL     1      98.670 128.453  82.963  0.00  0.00    +0.000 A 
ENDBRANCH  13  17
ENDBRANCH   1  13
TORSDOF 4
ENDMDL
