MODEL 1
REMARK VINA RESULT:      -4.0      0.000      0.000
REMARK  Name = *****
REMARK  3 active torsions:
REMARK  status: ('A' for Active; 'I' for Inactive)
REMARK    1  A    between atoms: C_4  and  C_7
REMARK    2  A    between atoms: C_7  and  C_8
REMARK    3  A    between atoms: C_8  and  C_9
REMARK                            x       y       z     vdW  Elec       q    Type
REMARK                         _______ _______ _______ _____ _____    ______ ____
ROOT
ATOM      1  C   UNL     1     102.750 127.335  82.749  0.00  0.00    +0.000 C 
ENDROOT
BRANCH   1   5
ATOM      2  C   UNL     1      98.513 128.060  83.091  0.00  0.00    +0.000 A 
ATOM      3  C   UNL     1      98.974 126.892  82.487  0.00  0.00    +0.000 A 
ATOM      4  C   UNL     1     100.345 126.653  82.383  0.00  0.00    +0.000 A 
ATOM      5  C   UNL     1     101.267 127.582  82.884  0.00  0.00    +0.000 A 
ATOM      6  C   UNL     1     100.793 128.757  83.482  0.00  0.00    +0.000 A 
ATOM      7  C   UNL     1      99.422 128.993  83.586  0.00  0.00    +0.000 A 
ENDBRANCH   1   5
BRANCH   1   8
ATOM      8  C   UNL     1     103.127 126.914  81.326  0.00  0.00    +0.000 C 
BRANCH   8   9
ATOM      9  C   UNL     1     103.722 125.536  81.298  0.00  0.00    +0.000 A 
ATOM     10  C   UNL     1     104.214 124.842  80.209  0.00  0.00    +0.000 A 
ATOM     11  C   UNL     1     104.703 123.553  80.567  0.00  0.00    +0.000 A 
ATOM     12  C   UNL     1     104.569 123.305  81.914  0.00  0.00    +0.000 A 
ATOM     13  S   UNL     1     103.853 124.621  82.740  0.00  0.00    +0.000 S 
ENDBRANCH   8   9
ENDBRANCH   1   8
TORSDOF 3
ENDMDL
