MODEL 1
REMARK VINA RESULT:      -4.6      0.000      0.000
REMARK  Name = *****
REMARK  3 active torsions:
REMARK  status: ('A' for Active; 'I' for Inactive)
REMARK    1  A    between atoms: C_1  and  C_2
REMARK    2  A    between atoms: P_9  and  O_12
REMARK    3  A    between atoms: O_12  and  C_13
REMARK                            x       y       z     vdW  Elec       q    Type
REMARK                         _______ _______ _______ _____ _____    ______ ____
ROOT
ATOM      1  C   UNL     1      89.718  70.764  86.053  0.00  0.00    +0.000 C 
ATOM      2  C   UNL     1      88.976  69.475  86.253  0.00  0.00    +0.000 A 
ATOM      3  C   UNL     1      89.675  68.278  86.468  0.00  0.00    +0.000 A 
ATOM      4  C   UNL     1      88.977  67.079  86.610  0.00  0.00    +0.000 A 
ATOM      5  C   UNL     1      87.569  67.081  86.577  0.00  0.00    +0.000 A 
ATOM      6  C   UNL     1      86.868  68.262  86.351  0.00  0.00    +0.000 A 
ATOM      7  C   UNL     1      87.574  69.454  86.180  0.00  0.00    +0.000 A 
ATOM      8  S   UNL     1      86.747  65.511  86.801  0.00  0.00    +0.000 S 
ATOM      9  P   UNL     1      88.622  64.556  86.884  0.00  0.00    +0.000 P 
ATOM     10  O   UNL     1      88.738  63.597  85.730  0.00  0.00    +0.000 OA
ATOM     11  N   UNL     1      89.632  65.867  86.909  0.00  0.00    +0.000 N 
ATOM     12  H   UNL     1      90.593  65.806  87.113  0.00  0.00    +0.000 HD
ENDROOT
BRANCH   9  13
ATOM     13  O   UNL     1      88.750  63.821  88.319  0.00  0.00    +0.000 OA
BRANCH  13  14
ATOM     14  C   UNL     1      87.707  63.249  88.988  0.00  0.00    +0.000 A 
ATOM     15  C   UNL     1      86.955  62.183  88.498  0.00  0.00    +0.000 A 
ATOM     16  C   UNL     1      85.903  61.666  89.260  0.00  0.00    +0.000 A 
ATOM     17  C   UNL     1      85.600  62.218  90.504  0.00  0.00    +0.000 A 
ATOM     18  C   UNL     1      86.345  63.291  90.988  0.00  0.00    +0.000 A 
ATOM     19  C   UNL     1      87.395  63.808  90.227  0.00  0.00    +0.000 A 
ENDBRANCH  13  14
ENDBRANCH   9  13
TORSDOF 2
ENDMDL
