REMARK  Name = *****
REMARK  5 active torsions:
REMARK  status: ('A' for Active; 'I' for Inactive)
REMARK    1  A    between atoms: C_1  and  C_2
REMARK    2  A    between atoms: C_2  and  C_3
REMARK    3  A    between atoms: C_2  and  O_8
REMARK    4  A    between atoms: O_8  and  C_9
REMARK    5  A    between atoms: C_9  and  C_11
REMARK                            x       y       z     vdW  Elec       q    Type
REMARK                         _______ _______ _______ _____ _____    ______ ____
ROOT
ATOM      1  C   UNL     1       2.704  -1.971  -1.361  0.00  0.00    +0.000 C 
ATOM      2  O   UNL     1       2.704  -1.385  -2.430  0.00  0.00    +0.000 OA
ENDROOT
BRANCH   1   3
ATOM      3  C   UNL     1       2.785  -3.426  -1.222  0.00  0.00    +0.000 A 
ATOM      4  C   UNL     1       3.733  -4.134  -1.953  0.00  0.00    +0.000 A 
ATOM      5  C   UNL     1       3.816  -5.523  -1.850  0.00  0.00    +0.000 A 
ATOM      6  C   UNL     1       2.938  -6.213  -1.013  0.00  0.00    +0.000 A 
ATOM      7  C   UNL     1       1.980  -5.508  -0.284  0.00  0.00    +0.000 A 
ATOM      8  C   UNL     1       1.906  -4.120  -0.394  0.00  0.00    +0.000 A 
ATOM      9  F   UNL     1       0.954  -3.476   0.297  0.00  0.00    +0.000 F 
ATOM     10  F   UNL     1       4.605  -3.501  -2.750  0.00  0.00    +0.000 F 
ENDBRANCH   1   3
BRANCH   1  11
ATOM     11  O   UNL     1       2.677  -1.417  -0.126  0.00  0.00    +0.000 OA
BRANCH  11  13
ATOM     12  C   UNL     1       1.137   0.442  -0.204  0.00  0.00    +0.000 C 
ATOM     13  C   UNL     1       2.599   0.021  -0.072  0.00  0.00    +0.000 C 
BRANCH  13  14
ATOM     14  C   UNL     1       3.209   0.510   1.252  0.00  0.00    +0.000 C 
ATOM     15  C   UNL     1       4.681   0.126   1.420  0.00  0.00    +0.000 C 
ATOM     16  C   UNL     1       4.957   0.381   2.896  0.00  0.00    +0.000 C 
ATOM     17  C   UNL     1       3.622   0.175   3.611  0.00  0.00    +0.000 C 
ATOM     18  C   UNL     1       2.587  -0.083   2.519  0.00  0.00    +0.000 C 
ENDBRANCH  13  14
ENDBRANCH  11  13
ENDBRANCH   1  11
TORSDOF 4
