REMARK  Name = *****
REMARK  4 active torsions:
REMARK  status: ('A' for Active; 'I' for Inactive)
REMARK    1  A    between atoms: C_2  and  C_3
REMARK    2  A    between atoms: C_2  and  S_9
REMARK    3  A    between atoms: S_9  and  C_10
REMARK    4  A    between atoms: C_10  and  C_11
REMARK                            x       y       z     vdW  Elec       q    Type
REMARK                         _______ _______ _______ _____ _____    ______ ____
ROOT
ATOM      1  C   UNL     1       0.774   0.562   0.148  0.00  0.00    +0.000 C 
ATOM      2  C   UNL     1       2.102   0.394   0.243  0.00  0.00    +0.000 C 
ENDROOT
BRANCH   2   3
ATOM      3  C   UNL     1       2.965   0.465  -0.930  0.00  0.00    +0.000 C 
ATOM      4  C   UNL     1       2.837  -0.399  -1.956  0.00  0.00    +0.000 C 
ATOM      5  C   UNL     1       3.690  -0.361  -3.190  0.00  0.00    +0.000 C 
ATOM      6  C   UNL     1       4.899   0.567  -3.070  0.00  0.00    +0.000 C 
ATOM      7  C   UNL     1       4.527   1.865  -2.362  0.00  0.00    +0.000 C 
ATOM      8  C   UNL     1       3.983   1.586  -0.959  0.00  0.00    +0.000 C 
ENDBRANCH   2   3
BRANCH   2   9
ATOM      9  S   UNL     1       2.844   0.129   1.793  0.00  0.00    +0.000 S 
BRANCH   9  10
ATOM     10  C   UNL     1       2.347  -1.596   2.086  0.00  0.00    +0.000 C 
BRANCH  10  11
ATOM     11  C   UNL     1       2.937  -2.139   3.364  0.00  0.00    +0.000 A 
ATOM     12  C   UNL     1       2.381  -1.801   4.607  0.00  0.00    +0.000 A 
ATOM     13  C   UNL     1       2.929  -2.302   5.789  0.00  0.00    +0.000 A 
ATOM     14  C   UNL     1       4.037  -3.145   5.742  0.00  0.00    +0.000 A 
ATOM     15  C   UNL     1       4.602  -3.484   4.514  0.00  0.00    +0.000 A 
ATOM     16  C   UNL     1       4.057  -2.982   3.330  0.00  0.00    +0.000 A 
ENDBRANCH  10  11
ENDBRANCH   9  10
ENDBRANCH   2   9
TORSDOF 4
