MODEL 1
REMARK VINA RESULT:      -4.9      0.000      0.000
REMARK  Name = *****
REMARK  4 active torsions:
REMARK  status: ('A' for Active; 'I' for Inactive)
REMARK    1  A    between atoms: C_1  and  C_2
REMARK    2  A    between atoms: C_5  and  C_8
REMARK    3  A    between atoms: N_10  and  C_11
REMARK    4  A    between atoms: C_12  and  C_18
REMARK                            x       y       z     vdW  Elec       q    Type
REMARK                         _______ _______ _______ _____ _____    ______ ____
ROOT
ATOM      1  C   UNL     1     102.210 126.035  83.415  0.00  0.00    +0.000 C 
ATOM      2  O   UNL     1     101.772 125.533  84.443  0.00  0.00    +0.000 OA
ATOM      3  N   UNL     1     101.945 127.303  82.926  0.00  0.00    +0.000 N 
ATOM      4  H   UNL     1     102.322 127.512  82.041  0.00  0.00    +0.000 HD
ENDROOT
BRANCH   3   5
ATOM      5  C   UNL     1     101.197 128.331  83.544  0.00  0.00    +0.000 A 
ATOM      6  C   UNL     1      99.794 128.358  83.361  0.00  0.00    +0.000 A 
ATOM      7  C   UNL     1      99.038 129.383  83.962  0.00  0.00    +0.000 A 
ATOM      8  C   UNL     1      99.658 130.366  84.729  0.00  0.00    +0.000 A 
ATOM      9  C   UNL     1     101.034 130.346  84.907  0.00  0.00    +0.000 A 
ATOM     10  C   UNL     1     101.798 129.335  84.316  0.00  0.00    +0.000 A 
ATOM     11 CL   UNL     1      98.715 131.609  85.453  0.00  0.00    +0.000 Cl
ATOM     12  C   UNL     1      99.067 127.323  82.546  0.00  0.00    +0.000 C 
ENDBRANCH   3   5
BRANCH   1  17
ATOM     13  C   UNL     1     105.688 122.769  80.122  0.00  0.00    +0.000 C 
ATOM     14  C   UNL     1     104.762 123.602  80.959  0.00  0.00    +0.000 A 
ATOM     15  C   UNL     1     104.648 123.365  82.334  0.00  0.00    +0.000 A 
ATOM     16  C   UNL     1     103.816 124.162  83.123  0.00  0.00    +0.000 A 
ATOM     17  C   UNL     1     103.088 125.206  82.542  0.00  0.00    +0.000 A 
ATOM     18  C   UNL     1     103.224 125.470  81.174  0.00  0.00    +0.000 A 
ATOM     19  C   UNL     1     104.058 124.671  80.389  0.00  0.00    +0.000 A 
ENDBRANCH   1  17
TORSDOF 2
ENDMDL
