MODEL 1
REMARK VINA RESULT:      -4.9      0.000      0.000
REMARK  Name = *****
REMARK  6 active torsions:
REMARK  status: ('A' for Active; 'I' for Inactive)
REMARK    1  A    between atoms: C_1  and  C_2
REMARK    2  A    between atoms: C_3  and  C_20
REMARK    3  A    between atoms: C_5  and  O_8
REMARK    4  A    between atoms: O_8  and  C_9
REMARK    5  A    between atoms: C_9  and  C_11
REMARK    6  A    between atoms: C_15  and  C_18
REMARK                            x       y       z     vdW  Elec       q    Type
REMARK                         _______ _______ _______ _____ _____    ______ ____
ROOT
ATOM      1  C   UNL     1      87.455  64.009  86.773  0.00  0.00    +0.000 C 
ATOM      2  O   UNL     1      86.361  64.192  86.264  0.00  0.00    +0.000 OA
ENDROOT
BRANCH   1   3
ATOM      3  C   UNL     1      88.666  64.731  86.377  0.00  0.00    +0.000 A 
ATOM      4  C   UNL     1      88.858  66.037  86.812  0.00  0.00    +0.000 A 
ATOM      5  C   UNL     1      90.005  66.743  86.453  0.00  0.00    +0.000 A 
ATOM      6  C   UNL     1      90.978  66.134  85.656  0.00  0.00    +0.000 A 
ATOM      7  C   UNL     1      90.809  64.811  85.226  0.00  0.00    +0.000 A 
ATOM      8  C   UNL     1      89.642  64.123  85.590  0.00  0.00    +0.000 A 
ATOM      9  F   UNL     1      89.489  62.854  85.183  0.00  0.00    +0.000 F 
ATOM     10  C   UNL     1      91.830  64.149  84.352  0.00  0.00    +0.000 C 
ATOM     11  F   UNL     1      87.935  66.660  87.556  0.00  0.00    +0.000 F 
ENDBRANCH   1   3
BRANCH   1  12
ATOM     12  O   UNL     1      87.809  63.084  87.739  0.00  0.00    +0.000 OA
BRANCH  12  17
ATOM     13  C   UNL     1      87.995  64.709  93.202  0.00  0.00    +0.000 C 
ATOM     14  C   UNL     1      87.936  64.292  91.758  0.00  0.00    +0.000 A 
ATOM     15  C   UNL     1      86.706  64.183  91.074  0.00  0.00    +0.000 A 
ATOM     16  C   UNL     1      86.703  63.793  89.726  0.00  0.00    +0.000 A 
ATOM     17  C   UNL     1      87.903  63.528  89.068  0.00  0.00    +0.000 A 
ATOM     18  C   UNL     1      89.118  63.607  89.741  0.00  0.00    +0.000 A 
ATOM     19  C   UNL     1      89.131  63.998  91.079  0.00  0.00    +0.000 A 
ATOM     20  C   UNL     1      85.398  64.471  91.760  0.00  0.00    +0.000 C 
ENDBRANCH  12  17
ENDBRANCH   1  12
TORSDOF 3
ENDMDL
