MODEL 1
REMARK VINA RESULT:      -4.9      0.000      0.000
REMARK  Name = *****
REMARK  3 active torsions:
REMARK  status: ('A' for Active; 'I' for Inactive)
REMARK    1  A    between atoms: C_1  and  C_2
REMARK    2  A    between atoms: C_7  and  C_9
REMARK    3  A    between atoms: C_10  and  C_11
REMARK                            x       y       z     vdW  Elec       q    Type
REMARK                         _______ _______ _______ _____ _____    ______ ____
ROOT
ATOM      1  C   UNL     1     102.508 126.150  82.376  0.00  0.00    +0.000 C 
ATOM      2  C   UNL     1     102.785 125.634  81.167  0.00  0.00    +0.000 C 
ENDROOT
BRANCH   1   9
ATOM      3  C   UNL     1     101.026 130.232  84.440  0.00  0.00    +0.000 C 
ATOM      4  C   UNL     1     100.593 129.003  83.706  0.00  0.00    +0.000 A 
ATOM      5  C   UNL     1      99.314 128.746  83.402  0.00  0.00    +0.000 A 
ATOM      6  C   UNL     1      98.991 127.507  82.676  0.00  0.00    +0.000 A 
ATOM      7  O   UNL     1      97.838 127.225  82.373  0.00  0.00    +0.000 OA
ATOM      8  C   UNL     1     100.113 126.619  82.332  0.00  0.00    +0.000 A 
ATOM      9  C   UNL     1     101.354 126.977  82.685  0.00  0.00    +0.000 A 
ATOM     10  O   UNL     1     101.633 128.152  83.366  0.00  0.00    +0.000 OA
ENDBRANCH   1   9
BRANCH   2  11
ATOM     11  C   UNL     1     103.966 124.808  80.879  0.00  0.00    +0.000 A 
ATOM     12  C   UNL     1     104.775 125.026  79.754  0.00  0.00    +0.000 A 
ATOM     13  C   UNL     1     105.908 124.237  79.530  0.00  0.00    +0.000 A 
ATOM     14  C   UNL     1     106.244 123.234  80.436  0.00  0.00    +0.000 A 
ATOM     15  C   UNL     1     105.460 123.015  81.567  0.00  0.00    +0.000 A 
ATOM     16  C   UNL     1     104.328 123.806  81.789  0.00  0.00    +0.000 A 
ATOM     17 CL   UNL     1     107.638 122.264  80.162  0.00  0.00    +0.000 Cl
ENDBRANCH   2  11
TORSDOF 2
ENDMDL
