MODEL 1
REMARK VINA RESULT:      -4.6      0.000      0.000
REMARK  Name = *****
REMARK  5 active torsions:
REMARK  status: ('A' for Active; 'I' for Inactive)
REMARK    1  A    between atoms: C_1  and  O_2
REMARK    2  A    between atoms: O_2  and  C_3
REMARK    3  A    between atoms: C_6  and  C_9
REMARK    4  A    between atoms: C_9  and  C_10
REMARK    5  A    between atoms: C_10  and  C_11
REMARK                            x       y       z     vdW  Elec       q    Type
REMARK                         _______ _______ _______ _____ _____    ______ ____
ROOT
ATOM      1  C   UNL     1     103.370 127.685  81.825  0.00  0.00    +0.000 C 
ENDROOT
BRANCH   1   5
ATOM      2  C   UNL     1     104.779 123.816  80.499  0.00  0.00    +0.000 A 
ATOM      3  C   UNL     1     104.883 124.928  79.662  0.00  0.00    +0.000 A 
ATOM      4  C   UNL     1     104.432 126.180  80.096  0.00  0.00    +0.000 A 
ATOM      5  C   UNL     1     103.874 126.337  81.370  0.00  0.00    +0.000 A 
ATOM      6  C   UNL     1     103.772 125.219  82.206  0.00  0.00    +0.000 A 
ATOM      7  C   UNL     1     104.224 123.972  81.771  0.00  0.00    +0.000 A 
BRANCH   2   9
ATOM      8  C   UNL     1     104.689 121.505  81.041  0.00  0.00    +0.000 C 
ATOM      9  O   UNL     1     105.178 122.543  80.201  0.00  0.00    +0.000 OA
ENDBRANCH   2   9
ENDBRANCH   1   5
BRANCH   1  10
ATOM     10  C   UNL     1     102.671 127.596  83.186  0.00  0.00    +0.000 C 
BRANCH  10  11
ATOM     11  C   UNL     1     101.175 127.725  83.059  0.00  0.00    +0.000 A 
ATOM     12  C   UNL     1     100.409 126.690  82.503  0.00  0.00    +0.000 A 
ATOM     13  C   UNL     1      99.021 126.817  82.400  0.00  0.00    +0.000 A 
ATOM     14  C   UNL     1      98.384 127.973  82.854  0.00  0.00    +0.000 A 
ATOM     15  C   UNL     1      99.136 129.004  83.411  0.00  0.00    +0.000 A 
ATOM     16  C   UNL     1     100.518 128.874  83.509  0.00  0.00    +0.000 A 
ATOM     17  F   UNL     1     101.226 129.876  84.051  0.00  0.00    +0.000 F 
ENDBRANCH  10  11
ENDBRANCH   1  10
TORSDOF 4
ENDMDL
