MODEL 1
REMARK VINA RESULT:      -3.7      0.000      0.000
REMARK  Name = *****
REMARK  4 active torsions:
REMARK  status: ('A' for Active; 'I' for Inactive)
REMARK    1  A    between atoms: C_1  and  O_2
REMARK    2  A    between atoms: O_2  and  C_3
REMARK    3  A    between atoms: C_6  and  C_8
REMARK    4  A    between atoms: C_9  and  C_10
REMARK                            x       y       z     vdW  Elec       q    Type
REMARK                         _______ _______ _______ _____ _____    ______ ____
ROOT
ATOM      1  C   UNL     1     105.588 123.241  81.126  0.00  0.00    +0.000 A 
ATOM      2  C   UNL     1     105.340 123.985  79.985  0.00  0.00    +0.000 A 
ATOM      3  C   UNL     1     104.251 124.895  80.140  0.00  0.00    +0.000 A 
ATOM      4  C   UNL     1     103.694 124.821  81.396  0.00  0.00    +0.000 A 
ATOM      5  S   UNL     1     104.484 123.670  82.371  0.00  0.00    +0.000 S 
ENDROOT
BRANCH   1   7
ATOM      6  C   UNL     1     106.017 120.975  81.573  0.00  0.00    +0.000 C 
ATOM      7  O   UNL     1     106.502 122.298  81.388  0.00  0.00    +0.000 OA
ENDBRANCH   1   7
BRANCH   4   8
ATOM      8  C   UNL     1     102.592 125.604  81.846  0.00  0.00    +0.000 C 
ATOM      9  C   UNL     1     101.663 126.266  82.224  0.00  0.00    +0.000 C 
BRANCH   9  10
ATOM     10  C   UNL     1     100.563 127.054  82.669  0.00  0.00    +0.000 A 
ATOM     11  C   UNL     1      99.240 126.797  82.380  0.00  0.00    +0.000 A 
ATOM     12  C   UNL     1      98.363 127.759  82.961  0.00  0.00    +0.000 A 
ATOM     13  C   UNL     1      99.051 128.718  83.673  0.00  0.00    +0.000 A 
ATOM     14  S   UNL     1     100.741 128.452  83.637  0.00  0.00    +0.000 S 
ENDBRANCH   9  10
ENDBRANCH   4   8
TORSDOF 3
ENDMDL
