MODEL 1
REMARK VINA RESULT:      -4.6      0.000      0.000
REMARK  Name = *****
REMARK  4 active torsions:
REMARK  status: ('A' for Active; 'I' for Inactive)
REMARK    1  A    between atoms: C_7  and  C_8
REMARK    2  A    between atoms: C_8  and  O_10
REMARK    3  A    between atoms: O_10  and  C_11
REMARK    4  A    between atoms: C_11  and  C_12
REMARK                            x       y       z     vdW  Elec       q    Type
REMARK                         _______ _______ _______ _____ _____    ______ ____
ROOT
ATOM      1  C   UNL     1     103.287 126.495  80.635  0.00  0.00    +0.000 C 
ATOM      2  O   UNL     1     103.490 127.409  79.846  0.00  0.00    +0.000 OA
ENDROOT
BRANCH   1   9
ATOM      3  C   UNL     1     101.646 127.293  84.618  0.00  0.00    +0.000 C 
ATOM      4  C   UNL     1     101.937 125.843  84.203  0.00  0.00    +0.000 C 
ATOM      5  C   UNL     1     101.849 125.900  82.666  0.00  0.00    +0.000 C 
ATOM      6  C   UNL     1     100.715 126.907  82.462  0.00  0.00    +0.000 C 
ATOM      7  C   UNL     1     101.412 127.997  83.271  0.00  0.00    +0.000 C 
ATOM      8  C   UNL     1     102.754 128.128  82.530  0.00  0.00    +0.000 C 
ATOM      9  C   UNL     1     103.082 126.670  82.132  0.00  0.00    +0.000 C 
ENDBRANCH   1   9
BRANCH   1  10
ATOM     10  O   UNL     1     103.291 125.173  80.313  0.00  0.00    +0.000 OA
BRANCH  10  11
ATOM     11  C   UNL     1     104.574 124.539  80.275  0.00  0.00    +0.000 C 
BRANCH  11  12
ATOM     12  C   UNL     1     104.556 123.318  81.159  0.00  0.00    +0.000 A 
ATOM     13  C   UNL     1     104.487 123.448  82.552  0.00  0.00    +0.000 A 
ATOM     14  C   UNL     1     104.486 122.314  83.368  0.00  0.00    +0.000 A 
ATOM     15  C   UNL     1     104.564 121.044  82.800  0.00  0.00    +0.000 A 
ATOM     16  C   UNL     1     104.648 120.905  81.415  0.00  0.00    +0.000 A 
ATOM     17  C   UNL     1     104.647 122.037  80.599  0.00  0.00    +0.000 A 
ENDBRANCH  11  12
ENDBRANCH  10  11
ENDBRANCH   1  10
TORSDOF 4
ENDMDL
