MODEL 1
REMARK VINA RESULT:      -4.3      0.000      0.000
REMARK  Name = *****
REMARK  6 active torsions:
REMARK  status: ('A' for Active; 'I' for Inactive)
REMARK    1  A    between atoms: C_1  and  C_2
REMARK    2  A    between atoms: C_5  and  C_8
REMARK    3  A    between atoms: C_8  and  O_9
REMARK    4  A    between atoms: O_9  and  C_10
REMARK    5  A    between atoms: C_10  and  C_11
REMARK    6  A    between atoms: C_14  and  C_17
REMARK                            x       y       z     vdW  Elec       q    Type
REMARK                         _______ _______ _______ _____ _____    ______ ____
ROOT
ATOM      1  O   UNL     1      86.956  64.223  86.931  0.00  0.00    +0.000 OA
ENDROOT
BRANCH   1   2
ATOM      2  C   UNL     1      87.885  64.635  85.928  0.00  0.00    +0.000 C 
BRANCH   2   7
ATOM      3  C   UNL     1      89.450  70.113  87.315  0.00  0.00    +0.000 C 
ATOM      4  C   UNL     1      89.098  68.696  86.964  0.00  0.00    +0.000 C 
ATOM      5  C   UNL     1      89.917  67.917  86.234  0.00  0.00    +0.000 C 
ATOM      6  C   UNL     1      89.586  66.509  85.826  0.00  0.00    +0.000 C 
ATOM      7  C   UNL     1      88.104  66.146  86.032  0.00  0.00    +0.000 C 
ATOM      8  C   UNL     1      87.606  66.680  87.379  0.00  0.00    +0.000 C 
ATOM      9  C   UNL     1      87.769  68.199  87.474  0.00  0.00    +0.000 C 
ENDBRANCH   2   7
ENDBRANCH   1   2
BRANCH   1  10
ATOM     10  C   UNL     1      87.289  62.944  87.471  0.00  0.00    +0.000 C 
BRANCH  10  11
ATOM     11  C   UNL     1      87.492  63.073  88.984  0.00  0.00    +0.000 C 
ATOM     12  C   UNL     1      88.822  63.766  89.299  0.00  0.00    +0.000 C 
ATOM     13  C   UNL     1      89.064  63.849  90.809  0.00  0.00    +0.000 C 
ATOM     14  C   UNL     1      87.846  64.266  91.593  0.00  0.00    +0.000 C 
ATOM     15  C   UNL     1      86.616  64.267  91.048  0.00  0.00    +0.000 C 
ATOM     16  C   UNL     1      86.324  63.829  89.640  0.00  0.00    +0.000 C 
ATOM     17  C   UNL     1      88.087  64.672  93.018  0.00  0.00    +0.000 C 
ENDBRANCH  10  11
ENDBRANCH   1  10
TORSDOF 4
ENDMDL
