MODEL 1
REMARK VINA RESULT:      -4.8      0.000      0.000
REMARK  Name = *****
REMARK  5 active torsions:
REMARK  status: ('A' for Active; 'I' for Inactive)
REMARK    1  A    between atoms: C_4  and  C_7
REMARK    2  A    between atoms: C_8  and  C_9
REMARK    3  A    between atoms: C_8  and  C_13
REMARK    4  A    between atoms: C_9  and  C_10
REMARK    5  A    between atoms: C_10  and  C_11
REMARK                            x       y       z     vdW  Elec       q    Type
REMARK                         _______ _______ _______ _____ _____    ______ ____
ROOT
ATOM      1  C   UNL     1     101.878 125.947  82.641  0.00  0.00    +0.000 C 
ATOM      2  C   UNL     1     102.871 125.979  81.729  0.00  0.00    +0.000 C 
ENDROOT
BRANCH   1   6
ATOM      3  C   UNL     1      99.050 129.066  83.321  0.00  0.00    +0.000 A 
ATOM      4  C   UNL     1     100.360 129.212  83.771  0.00  0.00    +0.000 A 
ATOM      5  C   UNL     1     101.293 128.197  83.549  0.00  0.00    +0.000 A 
ATOM      6  C   UNL     1     100.917 127.025  82.887  0.00  0.00    +0.000 A 
ATOM      7  C   UNL     1      99.601 126.889  82.427  0.00  0.00    +0.000 A 
ATOM      8  C   UNL     1      98.670 127.907  82.646  0.00  0.00    +0.000 A 
ENDBRANCH   1   6
BRANCH   2   9
ATOM      9  C   UNL     1     103.747 124.797  81.625  0.00  0.00    +0.000 A 
ATOM     10  C   UNL     1     104.293 124.431  80.388  0.00  0.00    +0.000 A 
ATOM     11  C   UNL     1     105.116 123.307  80.285  0.00  0.00    +0.000 A 
ATOM     12  C   UNL     1     105.399 122.542  81.416  0.00  0.00    +0.000 A 
ATOM     13  C   UNL     1     104.859 122.899  82.651  0.00  0.00    +0.000 A 
ATOM     14  C   UNL     1     104.034 124.020  82.755  0.00  0.00    +0.000 A 
ENDBRANCH   2   9
BRANCH   2  15
ATOM     15  C   UNL     1     103.156 127.109  80.762  0.00  0.00    +0.000 C 
BRANCH  15  16
ATOM     16  C   UNL     1     104.201 128.076  81.311  0.00  0.00    +0.000 C 
BRANCH  16  17
ATOM     17  C   UNL     1     105.428 128.140  80.436  0.00  0.00    +0.000 C 
ATOM     18  O   UNL     1     106.332 127.311  80.436  0.00  0.00    +0.000 OA
ENDBRANCH  16  17
ENDBRANCH  15  16
ENDBRANCH   2  15
TORSDOF 5
ENDMDL
