REMARK  Name = *****
REMARK  6 active torsions:
REMARK  status: ('A' for Active; 'I' for Inactive)
REMARK    1  A    between atoms: C_1  and  O_2
REMARK    2  A    between atoms: O_2  and  C_3
REMARK    3  A    between atoms: C_3  and  C_5
REMARK    4  A    between atoms: C_10  and  C_11
REMARK    5  A    between atoms: C_11  and  C_12
REMARK    6  A    between atoms: C_12  and  C_13
REMARK                            x       y       z     vdW  Elec       q    Type
REMARK                         _______ _______ _______ _____ _____    ______ ____
ROOT
ATOM      1  C   UNL     1       4.784  -0.916  -0.755  0.00  0.00    +0.000 A 
ATOM      2  C   UNL     1       5.426  -1.078   0.486  0.00  0.00    +0.000 A 
ATOM      3  C   UNL     1       6.815  -1.143   0.560  0.00  0.00    +0.000 A 
ATOM      4  C   UNL     1       7.570  -1.038  -0.602  0.00  0.00    +0.000 A 
ATOM      5  C   UNL     1       6.941  -0.876  -1.841  0.00  0.00    +0.000 A 
ATOM      6  C   UNL     1       5.540  -0.824  -1.948  0.00  0.00    +0.000 A 
ENDROOT
BRANCH   1   7
ATOM      7  C   UNL     1       3.300  -0.807  -0.765  0.00  0.00    +0.000 C 
ATOM      8  O   UNL     1       2.667  -0.024  -1.452  0.00  0.00    +0.000 OA
BRANCH   7  10
ATOM      9  C   UNL     1       1.354  -1.743   0.120  0.00  0.00    +0.000 C 
ATOM     10  O   UNL     1       2.781  -1.734   0.081  0.00  0.00    +0.000 OA
ENDBRANCH   7  10
ENDBRANCH   1   7
BRANCH   6  11
ATOM     11  C   UNL     1       4.852  -0.646  -3.292  0.00  0.00    +0.000 C 
BRANCH  11  12
ATOM     12  C   UNL     1       5.682  -0.973  -4.543  0.00  0.00    +0.000 C 
BRANCH  12  13
ATOM     13  C   UNL     1       4.866  -0.856  -5.809  0.00  0.00    +0.000 A 
ATOM     14  C   UNL     1       4.870   0.333  -6.549  0.00  0.00    +0.000 A 
ATOM     15  C   UNL     1       4.105   0.446  -7.711  0.00  0.00    +0.000 A 
ATOM     16  C   UNL     1       3.324  -0.626  -8.139  0.00  0.00    +0.000 A 
ATOM     17  C   UNL     1       3.307  -1.811  -7.406  0.00  0.00    +0.000 A 
ATOM     18  C   UNL     1       4.074  -1.926  -6.245  0.00  0.00    +0.000 A 
ENDBRANCH  12  13
ENDBRANCH  11  12
ENDBRANCH   6  11
TORSDOF 5
