MODEL 1
REMARK VINA RESULT:      -3.8      0.000      0.000
REMARK  Name = *****
REMARK  4 active torsions:
REMARK  status: ('A' for Active; 'I' for Inactive)
REMARK    1  A    between atoms: C_4  and  C_7
REMARK    2  A    between atoms: C_7  and  S_8
REMARK    3  A    between atoms: S_8  and  S_9
REMARK    4  A    between atoms: S_9  and  C_12
REMARK                            x       y       z     vdW  Elec       q    Type
REMARK                         _______ _______ _______ _____ _____    ______ ____
ROOT
ATOM      1  S   UNL     1      89.820  67.252  85.227  0.00  0.00    +0.000 S 
ATOM      2  O   UNL     1      90.585  67.293  86.457  0.00  0.00    +0.000 OA
ATOM      3  O   UNL     1      90.297  66.521  84.072  0.00  0.00    +0.000 OA
ENDROOT
BRANCH   1   4
ATOM      4  C   UNL     1      89.504  68.927  84.724  0.00  0.00    +0.000 A 
ATOM      5  C   UNL     1      88.714  69.171  83.594  0.00  0.00    +0.000 A 
ATOM      6  C   UNL     1      88.449  70.489  83.214  0.00  0.00    +0.000 A 
ATOM      7  C   UNL     1      88.963  71.546  83.965  0.00  0.00    +0.000 A 
ATOM      8  C   UNL     1      89.738  71.301  85.100  0.00  0.00    +0.000 A 
ATOM      9  C   UNL     1      90.008  69.986  85.486  0.00  0.00    +0.000 A 
ATOM     10 CL   UNL     1      88.631  73.167  83.493  0.00  0.00    +0.000 Cl
ENDBRANCH   1   4
BRANCH   1  11
ATOM     11  S   UNL     1      87.929  66.528  85.689  0.00  0.00    +0.000 S 
BRANCH  11  12
ATOM     12  C   UNL     1      87.763  67.184  87.365  0.00  0.00    +0.000 C 
BRANCH  12  16
ATOM     13  C   UNL     1      86.441  71.288  87.325  0.00  0.00    +0.000 A 
ATOM     14  C   UNL     1      85.937  70.386  86.392  0.00  0.00    +0.000 A 
ATOM     15  C   UNL     1      86.362  69.056  86.404  0.00  0.00    +0.000 A 
ATOM     16  C   UNL     1      87.293  68.615  87.358  0.00  0.00    +0.000 A 
ATOM     17  C   UNL     1      87.799  69.536  88.288  0.00  0.00    +0.000 A 
ATOM     18  C   UNL     1      87.373  70.865  88.272  0.00  0.00    +0.000 A 
ENDBRANCH  12  16
ENDBRANCH  11  12
ENDBRANCH   1  11
TORSDOF 4
ENDMDL
