MODEL 1
REMARK VINA RESULT:      -4.7      0.000      0.000
REMARK  Name = *****
REMARK  3 active torsions:
REMARK  status: ('A' for Active; 'I' for Inactive)
REMARK    1  A    between atoms: C_5  and  N_7
REMARK    2  A    between atoms: N_7  and  C_8
REMARK    3  A    between atoms: C_8  and  C_10
REMARK                            x       y       z     vdW  Elec       q    Type
REMARK                         _______ _______ _______ _____ _____    ______ ____
ROOT
ATOM      1  N   UNL     1     102.514 125.572  82.022  0.00  0.00    +0.000 N 
ATOM      2  H   UNL     1     101.633 125.233  81.746  0.00  0.00    +0.000 HD
ENDROOT
BRANCH   1   7
ATOM      3  C   UNL     1     105.212 123.279  80.739  0.00  0.00    +0.000 A 
ATOM      4  C   UNL     1     105.748 124.065  79.722  0.00  0.00    +0.000 A 
ATOM      5  C   UNL     1     105.221 125.329  79.483  0.00  0.00    +0.000 A 
ATOM      6  C   UNL     1     104.156 125.794  80.259  0.00  0.00    +0.000 A 
ATOM      7  C   UNL     1     103.588 125.006  81.285  0.00  0.00    +0.000 A 
ATOM      8  C   UNL     1     104.144 123.747  81.516  0.00  0.00    +0.000 A 
ATOM      9 CL   UNL     1     103.546 127.382  79.917  0.00  0.00    +0.000 Cl
ENDBRANCH   1   7
BRANCH   1  10
ATOM     10  C   UNL     1     102.442 126.502  83.050  0.00  0.00    +0.000 C 
ATOM     11  S   UNL     1     103.564 126.863  84.241  0.00  0.00    +0.000 S 
BRANCH  10  12
ATOM     12  C   UNL     1     101.134 127.223  83.038  0.00  0.00    +0.000 A 
ATOM     13  C   UNL     1     101.071 128.520  83.562  0.00  0.00    +0.000 A 
ATOM     14  C   UNL     1      99.860 129.208  83.531  0.00  0.00    +0.000 A 
ATOM     15  C   UNL     1      98.721 128.618  82.980  0.00  0.00    +0.000 A 
ATOM     16  C   UNL     1      98.790 127.327  82.453  0.00  0.00    +0.000 A 
ATOM     17  C   UNL     1      99.997 126.627  82.479  0.00  0.00    +0.000 A 
ATOM     18 CL   UNL     1      99.769 130.801  84.174  0.00  0.00    +0.000 Cl
ENDBRANCH  10  12
ENDBRANCH   1  10
TORSDOF 3
ENDMDL
