REMARK  Name = *****
REMARK  5 active torsions:
REMARK  status: ('A' for Active; 'I' for Inactive)
REMARK    1  A    between atoms: C_4  and  N_7
REMARK    2  A    between atoms: C_8  and  C_9
REMARK    3  A    between atoms: C_12  and  C_15
REMARK    4  A    between atoms: C_15  and  S_18
REMARK    5  A    between atoms: C_16  and  S_17
REMARK                            x       y       z     vdW  Elec       q    Type
REMARK                         _______ _______ _______ _____ _____    ______ ____
ROOT
ATOM      1  C   UNL     1      -5.081  -0.118  -0.494  0.00  0.00    +0.000 A 
ATOM      2  C   UNL     1      -5.570   0.267  -1.746  0.00  0.00    +0.000 A 
ATOM      3  C   UNL     1      -6.946   0.405  -1.943  0.00  0.00    +0.000 A 
ATOM      4  C   UNL     1      -7.839   0.162  -0.889  0.00  0.00    +0.000 A 
ATOM      5  C   UNL     1      -7.338  -0.229   0.362  0.00  0.00    +0.000 A 
ATOM      6  C   UNL     1      -5.962  -0.367   0.561  0.00  0.00    +0.000 A 
ENDROOT
BRANCH   1   8
ATOM      7  N   UNL     1      -2.764  -0.066  -1.204  0.00  0.00    +0.000 NA
ATOM      8  C   UNL     1      -3.631  -0.270  -0.263  0.00  0.00    +0.000 C 
BRANCH   7  12
ATOM      9  C   UNL     1       1.271  -0.591  -0.157  0.00  0.00    +0.000 A 
ATOM     10  C   UNL     1       0.509  -1.686  -0.563  0.00  0.00    +0.000 A 
ATOM     11  C   UNL     1      -0.832  -1.512  -0.911  0.00  0.00    +0.000 A 
ATOM     12  C   UNL     1      -1.421  -0.246  -0.845  0.00  0.00    +0.000 A 
ATOM     13  C   UNL     1      -0.647   0.848  -0.452  0.00  0.00    +0.000 A 
ATOM     14  C   UNL     1       0.695   0.677  -0.104  0.00  0.00    +0.000 A 
ENDBRANCH   7  12
ENDBRANCH   1   8
BRANCH   4  15
ATOM     15  C   UNL     1      -9.289   0.296  -1.100  0.00  0.00    +0.000 C 
ATOM     16  C   UNL     1      -9.981  -0.757  -1.569  0.00  0.00    +0.000 C 
BRANCH  16  17
ATOM     17  S   UNL     1     -11.686  -0.794  -1.879  0.00  0.00    +0.000 S 
ATOM     18  H   UNL     1     -12.228   0.416  -1.573  0.00  0.00    +0.000 HD
ENDBRANCH  16  17
BRANCH  15  19
ATOM     19  S   UNL     1      -9.962   1.845  -0.704  0.00  0.00    +0.000 S 
ATOM     20  H   UNL     1      -8.974   2.668  -0.260  0.00  0.00    +0.000 HD
ENDBRANCH  15  19
ENDBRANCH   4  15
TORSDOF 5
