MODEL 1
REMARK VINA RESULT:      -4.6      0.000      0.000
REMARK  Name = *****
REMARK  3 active torsions:
REMARK  status: ('A' for Active; 'I' for Inactive)
REMARK    1  A    between atoms: C_5  and  C_6
REMARK    2  A    between atoms: C_6  and  S_7
REMARK    3  A    between atoms: S_7  and  C_9
REMARK                            x       y       z     vdW  Elec       q    Type
REMARK                         _______ _______ _______ _____ _____    ______ ____
ROOT
ATOM      1  C   UNL     1      96.383 116.521  79.500  0.00  0.00    +0.000 C 
ENDROOT
BRANCH   1   6
ATOM      2  C   UNL     1      97.767 120.713  81.235  0.00  0.00    +0.000 C 
ATOM      3  C   UNL     1      96.797 120.157  82.284  0.00  0.00    +0.000 C 
ATOM      4  C   UNL     1      96.197 118.950  81.519  0.00  0.00    +0.000 C 
ATOM      5  C   UNL     1      97.423 118.463  80.747  0.00  0.00    +0.000 C 
ATOM      6  C   UNL     1      97.504 117.443  79.878  0.00  0.00    +0.000 C 
ATOM      7  C   UNL     1      98.558 119.406  81.124  0.00  0.00    +0.000 C 
ATOM      8  C   UNL     1      98.866 119.198  82.590  0.00  0.00    +0.000 C 
ATOM      9  C   UNL     1      97.811 119.648  83.291  0.00  0.00    +0.000 C 
ENDBRANCH   1   6
BRANCH   1  10
ATOM     10  S   UNL     1      96.820 115.589  77.989  0.00  0.00    +0.000 S 
ATOM     11  O   UNL     1      95.955 114.361  77.945  0.00  0.00    +0.000 OA
BRANCH  10  12
ATOM     12  C   UNL     1      96.095 116.747  76.805  0.00  0.00    +0.000 A 
ATOM     13  C   UNL     1      96.658 116.875  75.529  0.00  0.00    +0.000 A 
ATOM     14  C   UNL     1      96.110 117.765  74.605  0.00  0.00    +0.000 A 
ATOM     15  C   UNL     1      94.994 118.528  74.949  0.00  0.00    +0.000 A 
ATOM     16  C   UNL     1      94.422 118.398  76.214  0.00  0.00    +0.000 A 
ATOM     17  C   UNL     1      94.970 117.508  77.140  0.00  0.00    +0.000 A 
ENDBRANCH  10  12
ENDBRANCH   1  10
TORSDOF 3
ENDMDL
