MODEL 1
REMARK VINA RESULT:      -4.6      0.000      0.000
REMARK  Name = *****
REMARK  3 active torsions:
REMARK  status: ('A' for Active; 'I' for Inactive)
REMARK    1  A    between atoms: C_4  and  C_8
REMARK    2  A    between atoms: C_8  and  O_10
REMARK    3  A    between atoms: O_10  and  C_11
REMARK                            x       y       z     vdW  Elec       q    Type
REMARK                         _______ _______ _______ _____ _____    ______ ____
ROOT
ATOM      1  C   UNL     1     101.942 126.014  82.571  0.00  0.00    +0.000 C 
ATOM      2  O   UNL     1     102.367 125.242  83.415  0.00  0.00    +0.000 OA
ENDROOT
BRANCH   1   6
ATOM      3  C   UNL     1      99.237 129.186  83.461  0.00  0.00    +0.000 A 
ATOM      4  C   UNL     1     100.574 129.266  83.854  0.00  0.00    +0.000 A 
ATOM      5  C   UNL     1     101.450 128.223  83.555  0.00  0.00    +0.000 A 
ATOM      6  C   UNL     1     101.007 127.104  82.860  0.00  0.00    +0.000 A 
ATOM      7  C   UNL     1      99.671 127.024  82.477  0.00  0.00    +0.000 A 
ATOM      8  C   UNL     1      98.785 128.061  82.770  0.00  0.00    +0.000 A 
ATOM      9  F   UNL     1      99.202 125.944  81.836  0.00  0.00    +0.000 F 
ATOM     10  F   UNL     1     102.732 128.339  83.930  0.00  0.00    +0.000 F 
ENDBRANCH   1   6
BRANCH   1  11
ATOM     11  O   UNL     1     102.259 126.064  81.228  0.00  0.00    +0.000 OA
BRANCH  11  12
ATOM     12  C   UNL     1     103.603 125.762  80.999  0.00  0.00    +0.000 A 
ATOM     13  C   UNL     1     104.556 126.780  80.892  0.00  0.00    +0.000 A 
ATOM     14  C   UNL     1     105.886 126.450  80.631  0.00  0.00    +0.000 A 
ATOM     15  C   UNL     1     106.253 125.111  80.468  0.00  0.00    +0.000 A 
ATOM     16  C   UNL     1     105.287 124.106  80.559  0.00  0.00    +0.000 A 
ATOM     17  C   UNL     1     103.955 124.423  80.818  0.00  0.00    +0.000 A 
ATOM     18 CL   UNL     1     105.745 122.461  80.341  0.00  0.00    +0.000 Cl
ATOM     19 CL   UNL     1     104.121 128.440  81.055  0.00  0.00    +0.000 Cl
ENDBRANCH  11  12
ENDBRANCH   1  11
TORSDOF 3
ENDMDL
