MODEL 1
REMARK VINA RESULT:      -4.5      0.000      0.000
REMARK  Name = *****
REMARK  4 active torsions:
REMARK  status: ('A' for Active; 'I' for Inactive)
REMARK    1  A    between atoms: C_3  and  C_16
REMARK    2  A    between atoms: C_6  and  C_7
REMARK    3  A    between atoms: C_7  and  C_8
REMARK    4  A    between atoms: C_8  and  C_9
REMARK                            x       y       z     vdW  Elec       q    Type
REMARK                         _______ _______ _______ _____ _____    ______ ____
ROOT
ATOM      1  C   UNL     1      86.903  69.247  88.295  0.00  0.00    +0.000 C 
ENDROOT
BRANCH   1   7
ATOM      2  C   UNL     1      87.810  66.998  87.604  0.00  0.00    +0.000 A 
ATOM      3  C   UNL     1      88.759  66.189  86.971  0.00  0.00    +0.000 A 
ATOM      4  C   UNL     1      89.834  66.768  86.293  0.00  0.00    +0.000 A 
ATOM      5  C   UNL     1      89.957  68.159  86.256  0.00  0.00    +0.000 A 
ATOM      6  C   UNL     1      89.010  68.967  86.894  0.00  0.00    +0.000 A 
ATOM      7  C   UNL     1      87.917  68.396  87.563  0.00  0.00    +0.000 A 
BRANCH   4   8
ATOM      8  C   UNL     1      90.813  65.942  85.648  0.00  0.00    +0.000 C 
ATOM      9  N   UNL     1      91.603  65.273  85.125  0.00  0.00    +0.000 NA
ENDBRANCH   4   8
ENDBRANCH   1   7
BRANCH   1  10
ATOM     10  C   UNL     1      87.143  70.758  88.183  0.00  0.00    +0.000 C 
BRANCH  10  11
ATOM     11  C   UNL     1      86.113  71.431  87.307  0.00  0.00    +0.000 A 
ATOM     12  C   UNL     1      84.956  71.986  87.874  0.00  0.00    +0.000 A 
ATOM     13  C   UNL     1      83.999  72.605  87.067  0.00  0.00    +0.000 A 
ATOM     14  C   UNL     1      84.194  72.669  85.690  0.00  0.00    +0.000 A 
ATOM     15  C   UNL     1      85.334  72.115  85.112  0.00  0.00    +0.000 A 
ATOM     16  C   UNL     1      86.291  71.495  85.919  0.00  0.00    +0.000 A 
ATOM     17 CL   UNL     1      83.017  73.434  84.694  0.00  0.00    +0.000 Cl
ENDBRANCH  10  11
ENDBRANCH   1  10
TORSDOF 4
ENDMDL
