REMARK  Name = *****
REMARK  4 active torsions:
REMARK  status: ('A' for Active; 'I' for Inactive)
REMARK    1  A    between atoms: C_1  and  C_2
REMARK    2  A    between atoms: C_2  and  C_4
REMARK    3  A    between atoms: C_8  and  C_10
REMARK    4  A    between atoms: C_11  and  C_12
REMARK                            x       y       z     vdW  Elec       q    Type
REMARK                         _______ _______ _______ _____ _____    ______ ____
ROOT
ATOM      1  C   UNL     1       3.274  -0.368   1.096  0.00  0.00    +0.000 A 
ATOM      2  C   UNL     1       2.744  -1.358   1.930  0.00  0.00    +0.000 A 
ATOM      3  C   UNL     1       3.485  -1.821   3.018  0.00  0.00    +0.000 A 
ATOM      4  C   UNL     1       4.757  -1.305   3.274  0.00  0.00    +0.000 A 
ATOM      5  C   UNL     1       5.313  -0.327   2.439  0.00  0.00    +0.000 A 
ATOM      6  C   UNL     1       4.553   0.145   1.360  0.00  0.00    +0.000 A 
ENDROOT
BRANCH   1   8
ATOM      7  C   UNL     1       1.196  -0.447  -0.438  0.00  0.00    +0.000 C 
ATOM      8  C   UNL     1       2.519   0.173  -0.073  0.00  0.00    +0.000 C 
ATOM      9  O   UNL     1       2.979   1.113  -0.719  0.00  0.00    +0.000 OA
ENDBRANCH   1   8
BRANCH   5  10
ATOM     10  C   UNL     1       6.638   0.265   2.685  0.00  0.00    +0.000 C 
ATOM     11  C   UNL     1       7.676  -0.400   3.221  0.00  0.00    +0.000 C 
BRANCH  11  12
ATOM     12  C   UNL     1       9.008   0.184   3.447  0.00  0.00    +0.000 A 
ATOM     13  C   UNL     1       9.196   1.532   3.783  0.00  0.00    +0.000 A 
ATOM     14  C   UNL     1      10.479   2.035   4.019  0.00  0.00    +0.000 A 
ATOM     15  C   UNL     1      11.586   1.195   3.933  0.00  0.00    +0.000 A 
ATOM     16  C   UNL     1      11.412  -0.150   3.617  0.00  0.00    +0.000 A 
ATOM     17  C   UNL     1      10.130  -0.653   3.380  0.00  0.00    +0.000 A 
ENDBRANCH  11  12
ENDBRANCH   5  10
TORSDOF 3
