REMARK  Name = *****
REMARK  2 active torsions:
REMARK  status: ('A' for Active; 'I' for Inactive)
REMARK    1  A    between atoms: C_6  and  C_7
REMARK    2  A    between atoms: C_7  and  C_8
REMARK                            x       y       z     vdW  Elec       q    Type
REMARK                         _______ _______ _______ _____ _____    ______ ____
ROOT
ATOM      1  C   UNL     1       0.926   1.236  -0.325  0.00  0.00    +0.000 C 
ATOM      2  C   UNL     1       1.537   0.001   0.338  0.00  0.00    +0.000 C 
ATOM      3  C   UNL     1       0.780  -1.275  -0.030  0.00  0.00    +0.000 C 
ATOM      4  C   UNL     1      -0.697  -1.129   0.239  0.00  0.00    +0.000 C 
ATOM      5  C   UNL     1      -1.379  -2.003   0.925  0.00  0.00    +0.000 C 
ATOM      6  C   UNL     1      -2.074  -2.868   1.605  0.00  0.00    +0.000 C 
ATOM      7  C   UNL     1      -1.332   0.093  -0.378  0.00  0.00    +0.000 C 
ATOM      8  C   UNL     1      -0.564   1.361  -0.007  0.00  0.00    +0.000 C 
ENDROOT
BRANCH   6   9
ATOM      9  C   UNL     1      -2.773  -4.058   1.018  0.00  0.00    +0.000 C 
BRANCH   9  10
ATOM     10  C   UNL     1      -4.275  -3.897   1.008  0.00  0.00    +0.000 A 
ATOM     11  C   UNL     1      -4.900  -3.156  -0.006  0.00  0.00    +0.000 A 
ATOM     12  C   UNL     1      -6.285  -2.991  -0.011  0.00  0.00    +0.000 A 
ATOM     13  C   UNL     1      -7.059  -3.559   0.999  0.00  0.00    +0.000 A 
ATOM     14  C   UNL     1      -6.448  -4.290   2.016  0.00  0.00    +0.000 A 
ATOM     15  C   UNL     1      -5.062  -4.457   2.024  0.00  0.00    +0.000 A 
ENDBRANCH   9  10
ENDBRANCH   6   9
TORSDOF 2
