MODEL 1
REMARK VINA RESULT:      -4.1      0.000      0.000
REMARK  Name = *****
REMARK  5 active torsions:
REMARK  status: ('A' for Active; 'I' for Inactive)
REMARK    1  A    between atoms: C_1  and  C_2
REMARK    2  A    between atoms: C_5  and  C_7
REMARK    3  A    between atoms: C_7  and  O_8
REMARK    4  A    between atoms: O_8  and  C_9
REMARK    5  A    between atoms: C_9  and  C_11
REMARK                            x       y       z     vdW  Elec       q    Type
REMARK                         _______ _______ _______ _____ _____    ______ ____
ROOT
ATOM      1  O   UNL     1     103.277 125.287  80.311  0.00  0.00    +0.000 OA
ENDROOT
BRANCH   1   2
ATOM      2  C   UNL     1     103.252 126.629  80.479  0.00  0.00    +0.000 C 
ATOM      3  O   UNL     1     103.691 127.462  79.701  0.00  0.00    +0.000 OA
BRANCH   2   4
ATOM      4  C   UNL     1     102.590 126.979  81.765  0.00  0.00    +0.000 A 
ATOM      5  C   UNL     1     101.547 126.159  82.218  0.00  0.00    +0.000 A 
ATOM      6  C   UNL     1     100.895 126.448  83.418  0.00  0.00    +0.000 A 
ATOM      7  C   UNL     1     101.277 127.557  84.170  0.00  0.00    +0.000 A 
ATOM      8  C   UNL     1     102.310 128.381  83.724  0.00  0.00    +0.000 A 
ATOM      9  C   UNL     1     102.966 128.096  82.524  0.00  0.00    +0.000 A 
ENDBRANCH   2   4
ENDBRANCH   1   2
BRANCH   1  10
ATOM     10  C   UNL     1     104.573 124.703  80.118  0.00  0.00    +0.000 C 
BRANCH  10  15
ATOM     11  C   UNL     1     104.529 121.243  84.184  0.00  0.00    +0.000 C 
ATOM     12  C   UNL     1     104.609 121.858  82.830  0.00  0.00    +0.000 A 
ATOM     13  C   UNL     1     104.826 121.239  81.616  0.00  0.00    +0.000 A 
ATOM     14  C   UNL     1     104.836 122.165  80.534  0.00  0.00    +0.000 A 
ATOM     15  C   UNL     1     104.628 123.463  80.953  0.00  0.00    +0.000 A 
ATOM     16  S   UNL     1     104.425 123.549  82.650  0.00  0.00    +0.000 S 
ENDBRANCH  10  15
ENDBRANCH   1  10
TORSDOF 4
ENDMDL
