REMARK  Name = *****
REMARK  3 active torsions:
REMARK  status: ('A' for Active; 'I' for Inactive)
REMARK    1  A    between atoms: C_4  and  C_7
REMARK    2  A    between atoms: C_7  and  S_9
REMARK    3  A    between atoms: S_9  and  C_10
REMARK                            x       y       z     vdW  Elec       q    Type
REMARK                         _______ _______ _______ _____ _____    ______ ____
ROOT
ATOM      1  C   UNL     1       2.833  -0.721  -0.502  0.00  0.00    +0.000 C 
ATOM      2  O   UNL     1       2.966  -1.269  -1.590  0.00  0.00    +0.000 OA
ENDROOT
BRANCH   1   6
ATOM      3  C   UNL     1      -1.362   0.382  -0.189  0.00  0.00    +0.000 C 
ATOM      4  C   UNL     1      -0.953  -1.021   0.250  0.00  0.00    +0.000 C 
ATOM      5  C   UNL     1       0.425  -1.396  -0.287  0.00  0.00    +0.000 C 
ATOM      6  C   UNL     1       1.487  -0.361   0.111  0.00  0.00    +0.000 C 
ATOM      7  C   UNL     1       1.073   1.046  -0.334  0.00  0.00    +0.000 C 
ATOM      8  C   UNL     1      -0.311   1.420   0.194  0.00  0.00    +0.000 C 
ENDBRANCH   1   6
BRANCH   1   9
ATOM      9  S   UNL     1       4.228  -0.290   0.493  0.00  0.00    +0.000 S 
BRANCH   9  10
ATOM     10  C   UNL     1       5.059   0.859  -0.586  0.00  0.00    +0.000 A 
ATOM     11  C   UNL     1       5.192   2.195  -0.194  0.00  0.00    +0.000 A 
ATOM     12  C   UNL     1       5.856   3.110  -1.016  0.00  0.00    +0.000 A 
ATOM     13  C   UNL     1       6.396   2.691  -2.230  0.00  0.00    +0.000 A 
ATOM     14  C   UNL     1       6.277   1.360  -2.623  0.00  0.00    +0.000 A 
ATOM     15  C   UNL     1       5.614   0.445  -1.801  0.00  0.00    +0.000 A 
ENDBRANCH   9  10
ENDBRANCH   1   9
TORSDOF 3
