MODEL 1
REMARK VINA RESULT:      -4.7      0.000      0.000
REMARK  Name = *****
REMARK  6 active torsions:
REMARK  status: ('A' for Active; 'I' for Inactive)
REMARK    1  A    between atoms: C_1  and  C_2
REMARK    2  A    between atoms: C_4  and  C_11
REMARK    3  A    between atoms: C_5  and  C_8
REMARK    4  A    between atoms: C_8  and  C_10
REMARK    5  A    between atoms: C_11  and  C_12
REMARK    6  A    between atoms: C_12  and  C_13
REMARK                            x       y       z     vdW  Elec       q    Type
REMARK                         _______ _______ _______ _____ _____    ______ ____
ROOT
ATOM      1  C   UNL     1      89.231  65.529  86.513  0.00  0.00    +0.000 C 
ATOM      2  C   UNL     1      89.452  66.910  85.966  0.00  0.00    +0.000 A 
ATOM      3  C   UNL     1      89.338  68.029  86.806  0.00  0.00    +0.000 A 
ATOM      4  C   UNL     1      89.513  69.339  86.321  0.00  0.00    +0.000 A 
ATOM      5  C   UNL     1      89.776  69.502  84.941  0.00  0.00    +0.000 A 
ATOM      6  C   UNL     1      89.869  68.386  84.097  0.00  0.00    +0.000 A 
ATOM      7  C   UNL     1      89.707  67.098  84.607  0.00  0.00    +0.000 A 
ENDROOT
BRANCH   5   8
ATOM      8  C   UNL     1      89.930  70.853  84.329  0.00  0.00    +0.000 C 
ATOM      9  O   UNL     1      91.035  71.385  84.256  0.00  0.00    +0.000 OA
ATOM     10  C   UNL     1      88.689  71.551  83.836  0.00  0.00    +0.000 C 
ENDBRANCH   5   8
BRANCH   4  11
ATOM     11  C   UNL     1      89.397  70.549  87.235  0.00  0.00    +0.000 C 
BRANCH  11  12
ATOM     12  C   UNL     1      88.389  70.461  88.394  0.00  0.00    +0.000 C 
BRANCH  12  13
ATOM     13  C   UNL     1      87.030  71.088  88.154  0.00  0.00    +0.000 A 
ATOM     14  C   UNL     1      86.195  71.538  89.185  0.00  0.00    +0.000 A 
ATOM     15  C   UNL     1      84.961  72.129  88.898  0.00  0.00    +0.000 A 
ATOM     16  C   UNL     1      84.550  72.288  87.577  0.00  0.00    +0.000 A 
ATOM     17  C   UNL     1      85.374  71.859  86.540  0.00  0.00    +0.000 A 
ATOM     18  C   UNL     1      86.606  71.266  86.826  0.00  0.00    +0.000 A 
ENDBRANCH  12  13
ENDBRANCH  11  12
ENDBRANCH   4  11
TORSDOF 4
ENDMDL
