MODEL 1
REMARK VINA RESULT:      -5.0      0.000      0.000
REMARK  Name = *****
REMARK  6 active torsions:
REMARK  status: ('A' for Active; 'I' for Inactive)
REMARK    1  A    between atoms: C_1  and  C_2
REMARK    2  A    between atoms: C_4  and  C_11
REMARK    3  A    between atoms: C_5  and  C_8
REMARK    4  A    between atoms: C_8  and  C_10
REMARK    5  A    between atoms: C_11  and  C_12
REMARK    6  A    between atoms: C_12  and  C_13
REMARK                            x       y       z     vdW  Elec       q    Type
REMARK                         _______ _______ _______ _____ _____    ______ ____
ROOT
ATOM      1  C   UNL     1      85.438  71.905  84.537  0.00  0.00    +0.000 C 
ATOM      2  C   UNL     1      85.964  71.668  85.923  0.00  0.00    +0.000 A 
ATOM      3  C   UNL     1      87.198  71.024  86.111  0.00  0.00    +0.000 A 
ATOM      4  C   UNL     1      87.709  70.760  87.396  0.00  0.00    +0.000 A 
ATOM      5  C   UNL     1      86.919  71.137  88.506  0.00  0.00    +0.000 A 
ATOM      6  C   UNL     1      85.676  71.762  88.321  0.00  0.00    +0.000 A 
ATOM      7  C   UNL     1      85.203  72.024  87.038  0.00  0.00    +0.000 A 
ENDROOT
BRANCH   5   8
ATOM      8  C   UNL     1      87.354  70.859  89.904  0.00  0.00    +0.000 C 
ATOM      9  O   UNL     1      86.958  69.857  90.492  0.00  0.00    +0.000 OA
ATOM     10  C   UNL     1      88.260  71.860  90.573  0.00  0.00    +0.000 C 
ENDBRANCH   5   8
BRANCH   4  11
ATOM     11  C   UNL     1      89.051  70.078  87.596  0.00  0.00    +0.000 C 
BRANCH  11  12
ATOM     12  C   UNL     1      89.644  69.335  86.389  0.00  0.00    +0.000 C 
BRANCH  12  13
ATOM     13  C   UNL     1      89.414  67.843  86.469  0.00  0.00    +0.000 A 
ATOM     14  C   UNL     1      88.294  67.332  87.142  0.00  0.00    +0.000 A 
ATOM     15  C   UNL     1      88.088  65.954  87.224  0.00  0.00    +0.000 A 
ATOM     16  C   UNL     1      89.001  65.089  86.634  0.00  0.00    +0.000 A 
ATOM     17  C   UNL     1      90.117  65.575  85.966  0.00  0.00    +0.000 A 
ATOM     18  C   UNL     1      90.327  66.952  85.883  0.00  0.00    +0.000 A 
ATOM     19  F   UNL     1      88.802  63.766  86.712  0.00  0.00    +0.000 F 
ENDBRANCH  12  13
ENDBRANCH  11  12
ENDBRANCH   4  11
TORSDOF 4
ENDMDL
