REMARK  Name = *****
REMARK  6 active torsions:
REMARK  status: ('A' for Active; 'I' for Inactive)
REMARK    1  A    between atoms: C_1  and  C_2
REMARK    2  A    between atoms: C_5  and  C_8
REMARK    3  A    between atoms: C_8  and  O_10
REMARK    4  A    between atoms: O_10  and  C_11
REMARK    5  A    between atoms: C_11  and  C_12
REMARK    6  A    between atoms: C_11  and  C_13
REMARK                            x       y       z     vdW  Elec       q    Type
REMARK                         _______ _______ _______ _____ _____    ______ ____
ROOT
ATOM      1  C   UNL     1      -3.473  -0.013  -1.395  0.00  0.00    +0.000 C 
ATOM      2  O   UNL     1      -4.031  -0.468  -2.380  0.00  0.00    +0.000 OA
ENDROOT
BRANCH   1   7
ATOM      3  C   UNL     1       2.111  -1.115  -0.269  0.00  0.00    +0.000 C 
ATOM      4  C   UNL     1       0.675  -0.792  -0.562  0.00  0.00    +0.000 A 
ATOM      5  C   UNL     1       0.084  -1.217  -1.757  0.00  0.00    +0.000 A 
ATOM      6  C   UNL     1      -1.263  -0.951  -2.015  0.00  0.00    +0.000 A 
ATOM      7  C   UNL     1      -2.040  -0.261  -1.076  0.00  0.00    +0.000 A 
ATOM      8  C   UNL     1      -1.455   0.154   0.127  0.00  0.00    +0.000 A 
ATOM      9  C   UNL     1      -0.107  -0.116   0.383  0.00  0.00    +0.000 A 
ENDBRANCH   1   7
BRANCH   1  10
ATOM     10  O   UNL     1      -4.031   0.786  -0.453  0.00  0.00    +0.000 OA
BRANCH  10  11
ATOM     11  C   UNL     1      -5.423   1.122  -0.615  0.00  0.00    +0.000 C 
ATOM     12  C   UNL     1      -6.200   0.383   0.470  0.00  0.00    +0.000 C 
BRANCH  11  13
ATOM     13  C   UNL     1      -5.600   2.644  -0.515  0.00  0.00    +0.000 C 
ATOM     14  C   UNL     1      -4.850   3.411  -1.606  0.00  0.00    +0.000 C 
ATOM     15  C   UNL     1      -4.879   4.853  -1.117  0.00  0.00    +0.000 C 
ATOM     16  C   UNL     1      -4.901   4.771   0.409  0.00  0.00    +0.000 C 
ATOM     17  C   UNL     1      -5.046   3.291   0.757  0.00  0.00    +0.000 C 
ENDBRANCH  11  13
ENDBRANCH  10  11
ENDBRANCH   1  10
TORSDOF 4
