MODEL 1
REMARK VINA RESULT:      -4.9      0.000      0.000
REMARK  Name = *****
REMARK  4 active torsions:
REMARK  status: ('A' for Active; 'I' for Inactive)
REMARK    1  A    between atoms: C_1  and  C_2
REMARK    2  A    between atoms: C_4  and  C_16
REMARK    3  A    between atoms: C_6  and  N_8
REMARK    4  A    between atoms: C_9  and  C_10
REMARK                            x       y       z     vdW  Elec       q    Type
REMARK                         _______ _______ _______ _____ _____    ______ ____
ROOT
ATOM      1  C   UNL     1     104.967 121.842  81.989  0.00  0.00    +0.000 C 
ATOM      2  C   UNL     1     104.866 123.086  81.156  0.00  0.00    +0.000 A 
ATOM      3  C   UNL     1     105.731 123.288  80.071  0.00  0.00    +0.000 A 
ATOM      4  C   UNL     1     105.669 124.464  79.312  0.00  0.00    +0.000 A 
ATOM      5  C   UNL     1     104.745 125.456  79.669  0.00  0.00    +0.000 A 
ATOM      6  C   UNL     1     103.876 125.269  80.745  0.00  0.00    +0.000 A 
ATOM      7  C   UNL     1     103.952 124.091  81.493  0.00  0.00    +0.000 A 
ATOM      8  C   UNL     1     106.627 124.692  78.183  0.00  0.00    +0.000 C 
ENDROOT
BRANCH   6   9
ATOM      9  N   UNL     1     102.965 126.276  81.095  0.00  0.00    +0.000 NA
ATOM     10  C   UNL     1     102.155 125.989  82.066  0.00  0.00    +0.000 C 
BRANCH  10  11
ATOM     11  C   UNL     1     101.141 126.947  82.548  0.00  0.00    +0.000 A 
ATOM     12  C   UNL     1      99.779 126.717  82.330  0.00  0.00    +0.000 A 
ATOM     13  C   UNL     1      98.839 127.638  82.796  0.00  0.00    +0.000 A 
ATOM     14  C   UNL     1      99.259 128.782  83.475  0.00  0.00    +0.000 A 
ATOM     15  C   UNL     1     100.619 129.010  83.691  0.00  0.00    +0.000 A 
ATOM     16  C   UNL     1     101.564 128.092  83.229  0.00  0.00    +0.000 A 
ENDBRANCH  10  11
ENDBRANCH   6   9
TORSDOF 2
ENDMDL
