REMARK  Name = *****
REMARK  4 active torsions:
REMARK  status: ('A' for Active; 'I' for Inactive)
REMARK    1  A    between atoms: C_1  and  C_2
REMARK    2  A    between atoms: C_2  and  C_3
REMARK    3  A    between atoms: C_2  and  C_10
REMARK    4  A    between atoms: C_3  and  C_4
REMARK                            x       y       z     vdW  Elec       q    Type
REMARK                         _______ _______ _______ _____ _____    ______ ____
ROOT
ATOM      1  C   UNL     1       0.810  -0.352  -0.052  0.00  0.00    +0.000 C 
ATOM      2  C   UNL     1       2.340  -0.248  -0.032  0.00  0.00    +0.000 C 
ENDROOT
BRANCH   2   3
ATOM      3  C   UNL     1       2.929  -0.675  -1.370  0.00  0.00    +0.000 A 
ATOM      4  C   UNL     1       3.703   0.231  -2.111  0.00  0.00    +0.000 A 
ATOM      5  C   UNL     1       4.259  -0.141  -3.336  0.00  0.00    +0.000 A 
ATOM      6  C   UNL     1       4.048  -1.424  -3.838  0.00  0.00    +0.000 A 
ATOM      7  C   UNL     1       3.283  -2.335  -3.113  0.00  0.00    +0.000 A 
ATOM      8  C   UNL     1       2.728  -1.964  -1.887  0.00  0.00    +0.000 A 
ENDBRANCH   2   3
BRANCH   2   9
ATOM      9  C   UNL     1       2.970  -1.063   1.120  0.00  0.00    +0.000 C 
BRANCH   9  10
ATOM     10  C   UNL     1       2.647  -0.522   2.494  0.00  0.00    +0.000 A 
ATOM     11  C   UNL     1       1.716  -1.172   3.315  0.00  0.00    +0.000 A 
ATOM     12  C   UNL     1       1.413  -0.665   4.580  0.00  0.00    +0.000 A 
ATOM     13  C   UNL     1       2.038   0.494   5.036  0.00  0.00    +0.000 A 
ATOM     14  C   UNL     1       2.966   1.147   4.228  0.00  0.00    +0.000 A 
ATOM     15  C   UNL     1       3.270   0.642   2.963  0.00  0.00    +0.000 A 
ENDBRANCH   9  10
ENDBRANCH   2   9
TORSDOF 3
