MODEL 1
REMARK VINA RESULT:      -4.3      0.000      0.000
REMARK  Name = *****
REMARK  5 active torsions:
REMARK  status: ('A' for Active; 'I' for Inactive)
REMARK    1  A    between atoms: C_1  and  C_2
REMARK    2  A    between atoms: C_3  and  N_17
REMARK    3  A    between atoms: C_4  and  C_8
REMARK    4  A    between atoms: C_8  and  C_9
REMARK    5  A    between atoms: C_9  and  C_11
REMARK                            x       y       z     vdW  Elec       q    Type
REMARK                         _______ _______ _______ _____ _____    ______ ____
ROOT
ATOM      1  C   UNL     1      85.323  71.785  86.683  0.00  0.00    +0.000 C 
ATOM      2  C   UNL     1      86.707  71.286  86.981  0.00  0.00    +0.000 A 
ATOM      3  C   UNL     1      87.664  71.119  85.967  0.00  0.00    +0.000 A 
ATOM      4  C   UNL     1      88.958  70.637  86.238  0.00  0.00    +0.000 A 
ATOM      5  C   UNL     1      89.289  70.338  87.567  0.00  0.00    +0.000 A 
ATOM      6  C   UNL     1      88.349  70.498  88.586  0.00  0.00    +0.000 A 
ATOM      7  C   UNL     1      87.066  70.963  88.295  0.00  0.00    +0.000 A 
ENDROOT
BRANCH   3   8
ATOM      8  N   UNL     1      87.316  71.434  84.654  0.00  0.00    +0.000 NA
ATOM      9  C   UNL     1      87.011  71.692  83.551  0.00  0.00    +0.000 C 
ENDBRANCH   3   8
BRANCH   4  10
ATOM     10  C   UNL     1      90.001  70.478  85.152  0.00  0.00    +0.000 C 
BRANCH  10  11
ATOM     11  C   UNL     1      89.893  69.145  84.428  0.00  0.00    +0.000 C 
ATOM     12  O   UNL     1      90.334  69.005  83.285  0.00  0.00    +0.000 OA
BRANCH  11  13
ATOM     13  C   UNL     1      89.294  67.954  85.112  0.00  0.00    +0.000 A 
ATOM     14  C   UNL     1      87.956  67.567  84.968  0.00  0.00    +0.000 A 
ATOM     15  C   UNL     1      87.474  66.434  85.635  0.00  0.00    +0.000 A 
ATOM     16  C   UNL     1      88.315  65.687  86.455  0.00  0.00    +0.000 A 
ATOM     17  C   UNL     1      89.645  66.068  86.615  0.00  0.00    +0.000 A 
ATOM     18  C   UNL     1      90.131  67.193  85.946  0.00  0.00    +0.000 A 
ENDBRANCH  11  13
ENDBRANCH  10  11
ENDBRANCH   4  10
TORSDOF 4
ENDMDL
