REMARK  Name = *****
REMARK  4 active torsions:
REMARK  status: ('A' for Active; 'I' for Inactive)
REMARK    1  A    between atoms: C_1  and  C_2
REMARK    2  A    between atoms: C_7  and  O_8
REMARK    3  A    between atoms: O_8  and  C_9
REMARK    4  A    between atoms: C_9  and  C_11
REMARK                            x       y       z     vdW  Elec       q    Type
REMARK                         _______ _______ _______ _____ _____    ______ ____
ROOT
ATOM      1  O   UNL     1       1.689  -2.062  -0.858  0.00  0.00    +0.000 OA
ENDROOT
BRANCH   1   8
ATOM      2  C   UNL     1       4.059  -0.011   1.245  0.00  0.00    +0.000 C 
ATOM      3  C   UNL     1       2.796  -0.295   0.426  0.00  0.00    +0.000 C 
ATOM      4  C   UNL     1       2.397   0.921  -0.429  0.00  0.00    +0.000 C 
ATOM      5  C   UNL     1       3.402   1.219  -1.546  0.00  0.00    +0.000 C 
ATOM      6  C   UNL     1       3.904  -0.017  -2.232  0.00  0.00    +0.000 C 
ATOM      7  C   UNL     1       3.696  -1.254  -1.755  0.00  0.00    +0.000 C 
ATOM      8  C   UNL     1       2.975  -1.549  -0.465  0.00  0.00    +0.000 C 
ENDBRANCH   1   8
BRANCH   1   9
ATOM      9  C   UNL     1       1.079  -2.873   0.039  0.00  0.00    +0.000 C 
ATOM     10  O   UNL     1       1.523  -3.202   1.127  0.00  0.00    +0.000 OA
BRANCH   9  11
ATOM     11  C   UNL     1      -0.238  -3.328  -0.484  0.00  0.00    +0.000 A 
ATOM     12  C   UNL     1      -0.992  -4.212   0.301  0.00  0.00    +0.000 A 
ATOM     13  C   UNL     1      -2.235  -4.665  -0.145  0.00  0.00    +0.000 A 
ATOM     14  C   UNL     1      -2.732  -4.238  -1.375  0.00  0.00    +0.000 A 
ATOM     15  C   UNL     1      -1.990  -3.358  -2.162  0.00  0.00    +0.000 A 
ATOM     16  C   UNL     1      -0.745  -2.902  -1.720  0.00  0.00    +0.000 A 
ENDBRANCH   9  11
ENDBRANCH   1   9
TORSDOF 3
