MODEL 1
REMARK VINA RESULT:      -4.5      0.000      0.000
REMARK  Name = *****
REMARK  5 active torsions:
REMARK  status: ('A' for Active; 'I' for Inactive)
REMARK    1  A    between atoms: C_1  and  C_2
REMARK    2  A    between atoms: C_3  and  C_10
REMARK    3  A    between atoms: C_4  and  O_8
REMARK    4  A    between atoms: O_8  and  C_9
REMARK    5  A    between atoms: C_11  and  C_12
REMARK                            x       y       z     vdW  Elec       q    Type
REMARK                         _______ _______ _______ _____ _____    ______ ____
ROOT
ATOM      1  C   UNL     1     104.327 125.216  79.839  0.00  0.00    +0.000 C 
ATOM      2  C   UNL     1     104.653 124.261  80.953  0.00  0.00    +0.000 A 
ATOM      3  C   UNL     1     103.969 124.303  82.185  0.00  0.00    +0.000 A 
ATOM      4  C   UNL     1     104.304 123.382  83.191  0.00  0.00    +0.000 A 
ATOM      5  C   UNL     1     105.332 122.457  83.004  0.00  0.00    +0.000 A 
ATOM      6  C   UNL     1     106.010 122.418  81.788  0.00  0.00    +0.000 A 
ATOM      7  C   UNL     1     105.671 123.308  80.769  0.00  0.00    +0.000 A 
ENDROOT
BRANCH   4   8
ATOM      8  O   UNL     1     103.680 123.417  84.415  0.00  0.00    +0.000 OA
ATOM      9  C   UNL     1     104.315 122.508  85.313  0.00  0.00    +0.000 C 
ENDBRANCH   4   8
BRANCH   3  10
ATOM     10  C   UNL     1     102.936 125.272  82.414  0.00  0.00    +0.000 C 
ATOM     11  C   UNL     1     102.066 126.079  82.601  0.00  0.00    +0.000 C 
BRANCH  11  12
ATOM     12  C   UNL     1     101.023 127.034  82.818  0.00  0.00    +0.000 A 
ATOM     13  C   UNL     1     101.311 128.253  83.436  0.00  0.00    +0.000 A 
ATOM     14  C   UNL     1     100.293 129.185  83.650  0.00  0.00    +0.000 A 
ATOM     15  C   UNL     1      98.989 128.900  83.246  0.00  0.00    +0.000 A 
ATOM     16  C   UNL     1      98.701 127.683  82.627  0.00  0.00    +0.000 A 
ATOM     17  C   UNL     1      99.717 126.749  82.414  0.00  0.00    +0.000 A 
ENDBRANCH  11  12
ENDBRANCH   3  10
TORSDOF 3
ENDMDL
