MODEL 1
REMARK VINA RESULT:      -4.4      0.000      0.000
REMARK  Name = *****
REMARK  5 active torsions:
REMARK  status: ('A' for Active; 'I' for Inactive)
REMARK    1  A    between atoms: C_1  and  C_2
REMARK    2  A    between atoms: C_4  and  C_18
REMARK    3  A    between atoms: C_5  and  O_8
REMARK    4  A    between atoms: O_8  and  C_9
REMARK    5  A    between atoms: C_9  and  C_11
REMARK                            x       y       z     vdW  Elec       q    Type
REMARK                         _______ _______ _______ _____ _____    ______ ____
ROOT
ATOM      1  O   UNL     1      89.853  70.271  85.423  0.00  0.00    +0.000 OA
ENDROOT
BRANCH   1   6
ATOM      2  C   UNL     1      84.603  72.245  86.363  0.00  0.00    +0.000 C 
ATOM      3  C   UNL     1      85.975  71.692  86.108  0.00  0.00    +0.000 A 
ATOM      4  C   UNL     1      86.729  71.154  87.163  0.00  0.00    +0.000 A 
ATOM      5  C   UNL     1      88.023  70.660  86.948  0.00  0.00    +0.000 A 
ATOM      6  C   UNL     1      88.542  70.709  85.649  0.00  0.00    +0.000 A 
ATOM      7  C   UNL     1      87.822  71.272  84.595  0.00  0.00    +0.000 A 
ATOM      8  C   UNL     1      86.538  71.761  84.827  0.00  0.00    +0.000 A 
ATOM      9  C   UNL     1      88.818  70.083  88.081  0.00  0.00    +0.000 C 
ENDBRANCH   1   6
BRANCH   1  10
ATOM     10  C   UNL     1      89.960  69.285  84.461  0.00  0.00    +0.000 C 
ATOM     11  O   UNL     1      90.416  69.392  83.333  0.00  0.00    +0.000 OA
BRANCH  10  12
ATOM     12  C   UNL     1      89.419  68.004  84.997  0.00  0.00    +0.000 A 
ATOM     13  C   UNL     1      88.242  67.414  84.510  0.00  0.00    +0.000 A 
ATOM     14  C   UNL     1      87.784  66.207  85.051  0.00  0.00    +0.000 A 
ATOM     15  C   UNL     1      88.499  65.589  86.076  0.00  0.00    +0.000 A 
ATOM     16  C   UNL     1      89.670  66.163  86.566  0.00  0.00    +0.000 A 
ATOM     17  C   UNL     1      90.129  67.368  86.027  0.00  0.00    +0.000 A 
ATOM     18 CL   UNL     1      87.933  64.106  86.737  0.00  0.00    +0.000 Cl
ENDBRANCH  10  12
ENDBRANCH   1  10
TORSDOF 3
ENDMDL
