MODEL 1
REMARK VINA RESULT:      -4.6      0.000      0.000
REMARK  Name = *****
REMARK  1 active torsions:
REMARK  status: ('A' for Active; 'I' for Inactive)
REMARK    1  A    between atoms: C_6  and  C_7
REMARK                            x       y       z     vdW  Elec       q    Type
REMARK                         _______ _______ _______ _____ _____    ______ ____
ROOT
ATOM      1  C   UNL     1      97.977 118.857  83.405  0.00  0.00    +0.000 C 
ATOM      2  C   UNL     1      98.734 119.364  82.177  0.00  0.00    +0.000 C 
ATOM      3  C   UNL     1      97.930 119.167  80.892  0.00  0.00    +0.000 C 
ATOM      4  C   UNL     1      97.471 117.737  80.752  0.00  0.00    +0.000 C 
ATOM      5  C   UNL     1      97.676 117.032  79.673  0.00  0.00    +0.000 C 
ATOM      6  C   UNL     1      97.896 116.331  78.599  0.00  0.00    +0.000 C 
ATOM      7  C   UNL     1      96.741 117.190  81.954  0.00  0.00    +0.000 C 
ATOM      8  C   UNL     1      97.550 117.399  83.234  0.00  0.00    +0.000 C 
ENDROOT
BRANCH   6   9
ATOM      9  C   UNL     1      96.937 115.387  78.005  0.00  0.00    +0.000 A 
ATOM     10  C   UNL     1      96.803 115.214  76.620  0.00  0.00    +0.000 A 
ATOM     11  C   UNL     1      95.877 114.306  76.098  0.00  0.00    +0.000 A 
ATOM     12  C   UNL     1      95.073 113.559  76.954  0.00  0.00    +0.000 A 
ATOM     13  C   UNL     1      95.196 113.716  78.332  0.00  0.00    +0.000 A 
ATOM     14  C   UNL     1      96.122 114.624  78.854  0.00  0.00    +0.000 A 
ENDBRANCH   6   9
TORSDOF 1
ENDMDL
