MODEL 1
REMARK VINA RESULT:      -4.3      0.000      0.000
REMARK  Name = *****
REMARK  5 active torsions:
REMARK  status: ('A' for Active; 'I' for Inactive)
REMARK    1  A    between atoms: C_1  and  C_2
REMARK    2  A    between atoms: C_2  and  C_3
REMARK    3  A    between atoms: C_2  and  N_9
REMARK    4  A    between atoms: N_9  and  C_10
REMARK    5  A    between atoms: N_9  and  C_11
REMARK                            x       y       z     vdW  Elec       q    Type
REMARK                         _______ _______ _______ _____ _____    ______ ____
ROOT
ATOM      1  C   UNL     1     102.090 125.681  84.667  0.00  0.00    +0.000 C 
ATOM      2  C   UNL     1     102.205 126.877  83.712  0.00  0.00    +0.000 C 
ENDROOT
BRANCH   2   3
ATOM      3  C   UNL     1     102.863 126.585  82.363  0.00  0.00    +0.000 A 
ATOM      4  C   UNL     1     103.187 127.582  81.430  0.00  0.00    +0.000 A 
ATOM      5  C   UNL     1     103.791 127.252  80.212  0.00  0.00    +0.000 A 
ATOM      6  C   UNL     1     104.079 125.924  79.909  0.00  0.00    +0.000 A 
ATOM      7  C   UNL     1     103.770 124.921  80.824  0.00  0.00    +0.000 A 
ATOM      8  C   UNL     1     103.167 125.249  82.040  0.00  0.00    +0.000 A 
ENDBRANCH   2   3
BRANCH   2   9
ATOM      9  N   UNL     1     100.865 127.484  83.542  0.00  0.00    +0.000 N 
ATOM     10  C   UNL     1      99.910 126.805  82.667  0.00  0.00    +0.000 C 
BRANCH   9  11
ATOM     11  C   UNL     1     100.699 128.845  83.807  0.00  0.00    +0.000 A 
ATOM     12  C   UNL     1     101.710 129.589  84.438  0.00  0.00    +0.000 A 
ATOM     13  C   UNL     1     101.562 130.952  84.723  0.00  0.00    +0.000 A 
ATOM     14  C   UNL     1     100.386 131.609  84.384  0.00  0.00    +0.000 A 
ATOM     15  C   UNL     1      99.360 130.900  83.771  0.00  0.00    +0.000 A 
ATOM     16  C   UNL     1      99.517 129.536  83.493  0.00  0.00    +0.000 A 
ENDBRANCH   9  11
ENDBRANCH   2   9
TORSDOF 3
ENDMDL
