MODEL 1
REMARK VINA RESULT:      -5.0      0.000      0.000
REMARK  Name = *****
REMARK  1 active torsions:
REMARK  status: ('A' for Active; 'I' for Inactive)
REMARK    1  A    between atoms: C_10  and  C_11
REMARK                            x       y       z     vdW  Elec       q    Type
REMARK                         _______ _______ _______ _____ _____    ______ ____
ROOT
ATOM      1  C   UNL     1      89.303  70.733  85.932  0.00  0.00    +0.000 C 
ATOM      2  C   UNL     1      87.928  70.810  85.284  0.00  0.00    +0.000 C 
ATOM      3  C   UNL     1      86.832  71.289  86.198  0.00  0.00    +0.000 A 
ATOM      4  C   UNL     1      85.670  71.815  85.602  0.00  0.00    +0.000 A 
ATOM      5  C   UNL     1      84.599  72.257  86.378  0.00  0.00    +0.000 A 
ATOM      6  C   UNL     1      84.670  72.172  87.762  0.00  0.00    +0.000 A 
ATOM      7  C   UNL     1      85.808  71.639  88.365  0.00  0.00    +0.000 A 
ATOM      8  C   UNL     1      86.894  71.187  87.596  0.00  0.00    +0.000 A 
ATOM      9  S   UNL     1      88.275  70.516  88.507  0.00  0.00    +0.000 S 
ATOM     10  C   UNL     1      89.342  69.854  87.182  0.00  0.00    +0.000 C 
ENDROOT
BRANCH  10  11
ATOM     11  C   UNL     1      89.161  68.371  86.886  0.00  0.00    +0.000 A 
ATOM     12  C   UNL     1      90.127  67.590  86.230  0.00  0.00    +0.000 A 
ATOM     13  C   UNL     1      89.919  66.225  86.012  0.00  0.00    +0.000 A 
ATOM     14  C   UNL     1      88.746  65.616  86.448  0.00  0.00    +0.000 A 
ATOM     15  C   UNL     1      87.780  66.369  87.107  0.00  0.00    +0.000 A 
ATOM     16  C   UNL     1      87.986  67.733  87.326  0.00  0.00    +0.000 A 
ENDBRANCH  10  11
TORSDOF 1
ENDMDL
