MODEL 1
REMARK VINA RESULT:      -4.5      0.000      0.000
REMARK  Name = *****
REMARK  2 active torsions:
REMARK  status: ('A' for Active; 'I' for Inactive)
REMARK    1  A    between atoms: C_6  and  C_7
REMARK    2  A    between atoms: C_8  and  C_10
REMARK                            x       y       z     vdW  Elec       q    Type
REMARK                         _______ _______ _______ _____ _____    ______ ____
ROOT
ATOM      1  C   UNL     1      89.245  68.867  86.761  0.00  0.00    +0.000 C 
ATOM      2  C   UNL     1      88.848  67.477  86.283  0.00  0.00    +0.000 C 
ATOM      3  O   UNL     1      90.222  67.878  86.404  0.00  0.00    +0.000 OA
ENDROOT
BRANCH   1   9
ATOM      4  C   UNL     1      90.150  70.598  85.135  0.00  0.00    +0.000 A 
ATOM      5  C   UNL     1      89.984  71.698  84.286  0.00  0.00    +0.000 A 
ATOM      6  C   UNL     1      88.725  72.269  84.136  0.00  0.00    +0.000 A 
ATOM      7  C   UNL     1      87.634  71.750  84.826  0.00  0.00    +0.000 A 
ATOM      8  C   UNL     1      87.807  70.649  85.672  0.00  0.00    +0.000 A 
ATOM      9  C   UNL     1      89.067  70.047  85.840  0.00  0.00    +0.000 A 
ATOM     10 CL   UNL     1      88.515  73.623  83.096  0.00  0.00    +0.000 Cl
ENDBRANCH   1   9
BRANCH   2  11
ATOM     11  C   UNL     1      88.316  66.477  87.275  0.00  0.00    +0.000 A 
ATOM     12  C   UNL     1      88.913  65.212  87.418  0.00  0.00    +0.000 A 
ATOM     13  C   UNL     1      88.432  64.279  88.343  0.00  0.00    +0.000 A 
ATOM     14  C   UNL     1      87.342  64.603  89.146  0.00  0.00    +0.000 A 
ATOM     15  C   UNL     1      86.733  65.848  89.031  0.00  0.00    +0.000 A 
ATOM     16  C   UNL     1      87.221  66.775  88.104  0.00  0.00    +0.000 A 
ATOM     17 CL   UNL     1      86.749  63.459  90.284  0.00  0.00    +0.000 Cl
ENDBRANCH   2  11
TORSDOF 2
ENDMDL
