MODEL 1
REMARK VINA RESULT:      -4.9      0.000      0.000
REMARK  Name = *****
REMARK  6 active torsions:
REMARK  status: ('A' for Active; 'I' for Inactive)
REMARK    1  A    between atoms: C_1  and  C_2
REMARK    2  A    between atoms: C_5  and  C_8
REMARK    3  A    between atoms: C_8  and  C_10
REMARK    4  A    between atoms: C_10  and  C_11
REMARK    5  A    between atoms: C_14  and  O_17
REMARK    6  A    between atoms: O_17  and  C_18
REMARK                            x       y       z     vdW  Elec       q    Type
REMARK                         _______ _______ _______ _____ _____    ______ ____
ROOT
ATOM      1  C   UNL     1     103.428 127.429  81.827  0.00  0.00    +0.000 C 
ATOM      2  O   UNL     1     103.681 128.221  80.918  0.00  0.00    +0.000 OA
ENDROOT
BRANCH   1   7
ATOM      3  C   UNL     1     104.974 121.877  81.056  0.00  0.00    +0.000 C 
ATOM      4  C   UNL     1     104.596 123.313  81.270  0.00  0.00    +0.000 A 
ATOM      5  C   UNL     1     104.302 123.783  82.555  0.00  0.00    +0.000 A 
ATOM      6  C   UNL     1     103.921 125.113  82.760  0.00  0.00    +0.000 A 
ATOM      7  C   UNL     1     103.822 125.993  81.676  0.00  0.00    +0.000 A 
ATOM      8  C   UNL     1     104.102 125.517  80.388  0.00  0.00    +0.000 A 
ATOM      9  C   UNL     1     104.479 124.187  80.185  0.00  0.00    +0.000 A 
ENDBRANCH   1   7
BRANCH   1  10
ATOM     10  C   UNL     1     102.723 127.897  83.087  0.00  0.00    +0.000 C 
BRANCH  10  11
ATOM     11  C   UNL     1     101.217 127.793  83.038  0.00  0.00    +0.000 A 
ATOM     12  C   UNL     1     100.397 128.820  83.524  0.00  0.00    +0.000 A 
ATOM     13  C   UNL     1      99.003 128.716  83.460  0.00  0.00    +0.000 A 
ATOM     14  C   UNL     1      98.407 127.591  82.894  0.00  0.00    +0.000 A 
ATOM     15  C   UNL     1      99.220 126.579  82.380  0.00  0.00    +0.000 A 
ATOM     16  C   UNL     1     100.612 126.678  82.445  0.00  0.00    +0.000 A 
BRANCH  14  17
ATOM     17  O   UNL     1      97.065 127.364  82.770  0.00  0.00    +0.000 OA
ATOM     18  C   UNL     1      96.420 126.728  83.868  0.00  0.00    +0.000 C 
ENDBRANCH  14  17
ENDBRANCH  10  11
ENDBRANCH   1  10
TORSDOF 4
ENDMDL
