MODEL 1
REMARK VINA RESULT:      -4.1      0.000      0.000
REMARK  Name = *****
REMARK  4 active torsions:
REMARK  status: ('A' for Active; 'I' for Inactive)
REMARK    1  A    between atoms: C_1  and  C_2
REMARK    2  A    between atoms: C_5  and  C_7
REMARK    3  A    between atoms: C_8  and  C_9
REMARK    4  A    between atoms: C_12  and  C_14
REMARK                            x       y       z     vdW  Elec       q    Type
REMARK                         _______ _______ _______ _____ _____    ______ ____
ROOT
ATOM      1  C   UNL     1     101.547 125.997  82.321  0.00  0.00    +0.000 C 
ATOM      2  C   UNL     1     102.652 126.263  81.606  0.00  0.00    +0.000 C 
ENDROOT
BRANCH   1   7
ATOM      3  C   UNL     1      99.373 130.440  84.164  0.00  0.00    +0.000 C 
ATOM      4  C   UNL     1      99.578 129.108  83.530  0.00  0.00    +0.000 A 
ATOM      5  C   UNL     1      98.642 128.286  82.945  0.00  0.00    +0.000 A 
ATOM      6  C   UNL     1      99.222 127.083  82.443  0.00  0.00    +0.000 A 
ATOM      7  C   UNL     1     100.589 127.004  82.654  0.00  0.00    +0.000 A 
ATOM      8  S   UNL     1     101.141 128.424  83.470  0.00  0.00    +0.000 S 
ENDBRANCH   1   7
BRANCH   2   9
ATOM      9  C   UNL     1     103.611 125.258  81.272  0.00  0.00    +0.000 A 
ATOM     10  C   UNL     1     104.250 124.961  80.077  0.00  0.00    +0.000 A 
ATOM     11  C   UNL     1     105.151 123.859  80.178  0.00  0.00    +0.000 A 
ATOM     12  C   UNL     1     105.184 123.334  81.450  0.00  0.00    +0.000 A 
ATOM     13  S   UNL     1     104.138 124.167  82.504  0.00  0.00    +0.000 S 
BRANCH  12  14
ATOM     14  C   UNL     1     105.967 122.224  81.938  0.00  0.00    +0.000 C 
ATOM     15  O   UNL     1     106.511 121.384  81.223  0.00  0.00    +0.000 OA
ENDBRANCH  12  14
ENDBRANCH   2   9
TORSDOF 3
ENDMDL
