MODEL 1
REMARK VINA RESULT:      -4.7      0.000      0.000
REMARK  Name = *****
REMARK  3 active torsions:
REMARK  status: ('A' for Active; 'I' for Inactive)
REMARK    1  A    between atoms: C_4  and  C_7
REMARK    2  A    between atoms: C_8  and  C_9
REMARK    3  A    between atoms: C_9  and  C_10
REMARK                            x       y       z     vdW  Elec       q    Type
REMARK                         _______ _______ _______ _____ _____    ______ ____
ROOT
ATOM      1  C   UNL     1      89.641  70.391  85.846  0.00  0.00    +0.000 C 
ENDROOT
BRANCH   1   2
ATOM      2  C   UNL     1      88.284  70.775  86.362  0.00  0.00    +0.000 A 
ATOM      3  C   UNL     1      87.287  71.238  85.503  0.00  0.00    +0.000 A 
ATOM      4  C   UNL     1      86.031  71.617  85.977  0.00  0.00    +0.000 A 
ATOM      5  C   UNL     1      85.755  71.541  87.342  0.00  0.00    +0.000 A 
ATOM      6  C   UNL     1      86.739  71.087  88.219  0.00  0.00    +0.000 A 
ATOM      7  C   UNL     1      87.988  70.712  87.725  0.00  0.00    +0.000 A 
ATOM      8  F   UNL     1      88.916  70.279  88.592  0.00  0.00    +0.000 F 
ATOM      9  F   UNL     1      87.530  71.328  84.187  0.00  0.00    +0.000 F 
ENDBRANCH   1   2
BRANCH   1  11
ATOM     10  C   UNL     1      89.994  67.984  86.467  0.00  0.00    +0.000 C 
ATOM     11  C   UNL     1      89.741  68.923  85.540  0.00  0.00    +0.000 C 
BRANCH  10  15
ATOM     12  C   UNL     1      90.221  63.775  85.739  0.00  0.00    +0.000 A 
ATOM     13  C   UNL     1      91.200  64.616  85.214  0.00  0.00    +0.000 A 
ATOM     14  C   UNL     1      91.134  65.994  85.437  0.00  0.00    +0.000 A 
ATOM     15  C   UNL     1      90.082  66.546  86.180  0.00  0.00    +0.000 A 
ATOM     16  C   UNL     1      89.113  65.688  86.718  0.00  0.00    +0.000 A 
ATOM     17  C   UNL     1      89.178  64.310  86.493  0.00  0.00    +0.000 A 
ENDBRANCH  10  15
ENDBRANCH   1  11
TORSDOF 3
ENDMDL
