MODEL 1
REMARK VINA RESULT:      -4.3      0.000      0.000
REMARK  Name = *****
REMARK  5 active torsions:
REMARK  status: ('A' for Active; 'I' for Inactive)
REMARK    1  A    between atoms: C_1  and  C_2
REMARK    2  A    between atoms: C_2  and  C_4
REMARK    3  A    between atoms: C_5  and  C_6
REMARK    4  A    between atoms: C_6  and  C_7
REMARK    5  A    between atoms: C_7  and  C_8
REMARK                            x       y       z     vdW  Elec       q    Type
REMARK                         _______ _______ _______ _____ _____    ______ ____
ROOT
ATOM      1  C   UNL     1     101.933 125.957  82.143  0.00  0.00    +0.000 C 
ENDROOT
BRANCH   1   2
ATOM      2  C   UNL     1     100.931 126.995  82.586  0.00  0.00    +0.000 A 
ATOM      3  C   UNL     1     101.354 128.146  83.262  0.00  0.00    +0.000 A 
ATOM      4  C   UNL     1     100.424 129.098  83.688  0.00  0.00    +0.000 A 
ATOM      5  C   UNL     1      99.066 128.904  83.445  0.00  0.00    +0.000 A 
ATOM      6  C   UNL     1      98.635 127.758  82.779  0.00  0.00    +0.000 A 
ATOM      7  C   UNL     1      99.563 126.806  82.352  0.00  0.00    +0.000 A 
ENDBRANCH   1   2
BRANCH   1   8
ATOM      8  C   UNL     1     102.953 126.539  81.158  0.00  0.00    +0.000 C 
BRANCH   8  10
ATOM      9  C   UNL     1     104.192 124.356  81.106  0.00  0.00    +0.000 C 
ATOM     10  C   UNL     1     103.737 125.451  80.476  0.00  0.00    +0.000 C 
BRANCH   9  12
ATOM     11  C   UNL     1     104.633 121.845  80.864  0.00  0.00    +0.000 C 
ATOM     12  C   UNL     1     104.950 123.270  80.499  0.00  0.00    +0.000 C 
ATOM     13  C   UNL     1     105.925 123.550  79.618  0.00  0.00    +0.000 C 
ENDBRANCH   9  12
ENDBRANCH   8  10
ENDBRANCH   1   8
TORSDOF 4
ENDMDL
