REMARK  Name = *****
REMARK  5 active torsions:
REMARK  status: ('A' for Active; 'I' for Inactive)
REMARK    1  A    between atoms: C_1  and  C_2
REMARK    2  A    between atoms: C_2  and  C_3
REMARK    3  A    between atoms: C_3  and  C_4
REMARK    4  A    between atoms: C_3  and  C_10
REMARK    5  A    between atoms: C_10  and  C_12
REMARK                            x       y       z     vdW  Elec       q    Type
REMARK                         _______ _______ _______ _____ _____    ______ ____
ROOT
ATOM      1  C   UNL     1       2.975  -0.671   0.114  0.00  0.00    +0.000 C 
ENDROOT
BRANCH   1   2
ATOM      2  C   UNL     1       2.661  -1.738  -0.927  0.00  0.00    +0.000 A 
ATOM      3  C   UNL     1       3.197  -1.678  -2.222  0.00  0.00    +0.000 A 
ATOM      4  C   UNL     1       2.886  -2.659  -3.166  0.00  0.00    +0.000 A 
ATOM      5  C   UNL     1       2.030  -3.705  -2.830  0.00  0.00    +0.000 A 
ATOM      6  C   UNL     1       1.478  -3.769  -1.553  0.00  0.00    +0.000 A 
ATOM      7  C   UNL     1       1.787  -2.789  -0.608  0.00  0.00    +0.000 A 
ENDBRANCH   1   2
BRANCH   1   9
ATOM      8  C   UNL     1       2.150   1.576   0.997  0.00  0.00    +0.000 C 
ATOM      9  C   UNL     1       2.121   0.585  -0.160  0.00  0.00    +0.000 C 
ENDBRANCH   1   9
BRANCH   1  10
ATOM     10  C   UNL     1       4.473  -0.334   0.159  0.00  0.00    +0.000 C 
ATOM     11  O   UNL     1       4.945   0.622  -0.459  0.00  0.00    +0.000 OA
BRANCH  10  12
ATOM     12  C   UNL     1       5.400  -1.180   0.977  0.00  0.00    +0.000 A 
ATOM     13  C   UNL     1       5.039  -2.433   1.487  0.00  0.00    +0.000 A 
ATOM     14  C   UNL     1       5.949  -3.171   2.249  0.00  0.00    +0.000 A 
ATOM     15  C   UNL     1       7.223  -2.667   2.507  0.00  0.00    +0.000 A 
ATOM     16  C   UNL     1       7.593  -1.424   1.999  0.00  0.00    +0.000 A 
ATOM     17  C   UNL     1       6.687  -0.685   1.236  0.00  0.00    +0.000 A 
ENDBRANCH  10  12
ENDBRANCH   1  10
TORSDOF 4
