MODEL 1
REMARK VINA RESULT:      -4.6      0.000      0.000
REMARK  Name = *****
REMARK  3 active torsions:
REMARK  status: ('A' for Active; 'I' for Inactive)
REMARK    1  A    between atoms: C_4  and  C_7
REMARK    2  A    between atoms: C_7  and  C_15
REMARK    3  A    between atoms: C_8  and  C_9
REMARK                            x       y       z     vdW  Elec       q    Type
REMARK                         _______ _______ _______ _____ _____    ______ ____
ROOT
ATOM      1  C   UNL     1     103.011 125.790  81.735  0.00  0.00    +0.000 C 
ATOM      2  C   UNL     1     101.987 125.821  82.614  0.00  0.00    +0.000 C 
ENDROOT
BRANCH   1   6
ATOM      3  C   UNL     1     105.441 122.264  81.534  0.00  0.00    +0.000 A 
ATOM      4  C   UNL     1     105.186 123.004  80.382  0.00  0.00    +0.000 A 
ATOM      5  C   UNL     1     104.394 124.153  80.447  0.00  0.00    +0.000 A 
ATOM      6  C   UNL     1     103.846 124.571  81.669  0.00  0.00    +0.000 A 
ATOM      7  C   UNL     1     104.113 123.819  82.823  0.00  0.00    +0.000 A 
ATOM      8  C   UNL     1     104.906 122.671  82.755  0.00  0.00    +0.000 A 
ENDBRANCH   1   6
BRANCH   2   9
ATOM      9  C   UNL     1     101.039 126.925  82.817  0.00  0.00    +0.000 A 
ATOM     10  C   UNL     1      99.717 126.796  82.397  0.00  0.00    +0.000 A 
ATOM     11  N   UNL     1      98.764 127.741  82.570  0.00  0.00    +0.000 NA
ATOM     12  C   UNL     1      99.144 128.875  83.195  0.00  0.00    +0.000 A 
ATOM     13  C   UNL     1     100.427 129.100  83.665  0.00  0.00    +0.000 A 
ATOM     14  C   UNL     1     101.385 128.105  83.479  0.00  0.00    +0.000 A 
ENDBRANCH   2   9
BRANCH   1  15
ATOM     15  C   UNL     1     103.293 126.864  80.833  0.00  0.00    +0.000 C 
ATOM     16  N   UNL     1     103.528 127.731  80.098  0.00  0.00    +0.000 NA
ENDBRANCH   1  15
TORSDOF 3
ENDMDL
