MODEL 1
REMARK VINA RESULT:      -4.7      0.000      0.000
REMARK  Name = *****
REMARK  4 active torsions:
REMARK  status: ('A' for Active; 'I' for Inactive)
REMARK    1  A    between atoms: C_1  and  N_2
REMARK    2  A    between atoms: N_2  and  C_3
REMARK    3  A    between atoms: N_2  and  C_9
REMARK    4  A    between atoms: C_10  and  C_11
REMARK                            x       y       z     vdW  Elec       q    Type
REMARK                         _______ _______ _______ _____ _____    ______ ____
ROOT
ATOM      1  C   UNL     1      88.960  65.987  86.447  0.00  0.00    +0.000 C 
ATOM      2  C   UNL     1      89.974  66.860  86.282  0.00  0.00    +0.000 C 
ATOM      3 CL   UNL     1      87.313  66.541  86.312  0.00  0.00    +0.000 Cl
ENDROOT
BRANCH   2   4
ATOM      4  C   UNL     1      89.851  68.293  86.004  0.00  0.00    +0.000 A 
ATOM      5  C   UNL     1      89.940  68.758  84.687  0.00  0.00    +0.000 A 
ATOM      6  C   UNL     1      89.820  70.122  84.415  0.00  0.00    +0.000 A 
ATOM      7  C   UNL     1      89.610  71.026  85.456  0.00  0.00    +0.000 A 
ATOM      8  C   UNL     1      89.519  70.567  86.770  0.00  0.00    +0.000 A 
ATOM      9  C   UNL     1      89.639  69.204  87.045  0.00  0.00    +0.000 A 
ENDBRANCH   2   4
BRANCH   1  11
ATOM     10  C   UNL     1      89.598  63.644  85.724  0.00  0.00    +0.000 C 
ATOM     11  N   UNL     1      89.092  64.616  86.704  0.00  0.00    +0.000 N 
BRANCH  11  12
ATOM     12  C   UNL     1      88.309  63.968  87.702  0.00  0.00    +0.000 A 
ATOM     13  C   UNL     1      87.380  62.981  87.340  0.00  0.00    +0.000 A 
ATOM     14  C   UNL     1      86.605  62.336  88.308  0.00  0.00    +0.000 A 
ATOM     15  C   UNL     1      86.749  62.672  89.652  0.00  0.00    +0.000 A 
ATOM     16  C   UNL     1      87.666  63.650  90.029  0.00  0.00    +0.000 A 
ATOM     17  C   UNL     1      88.442  64.293  89.061  0.00  0.00    +0.000 A 
ENDBRANCH  11  12
ENDBRANCH   1  11
TORSDOF 3
ENDMDL
