MODEL 1
REMARK VINA RESULT:      -5.1      0.000      0.000
REMARK  Name = *****
REMARK  4 active torsions:
REMARK  status: ('A' for Active; 'I' for Inactive)
REMARK    1  A    between atoms: C_1  and  O_2
REMARK    2  A    between atoms: O_2  and  C_3
REMARK    3  A    between atoms: C_7  and  C_9
REMARK    4  A    between atoms: C_10  and  C_11
REMARK                            x       y       z     vdW  Elec       q    Type
REMARK                         _______ _______ _______ _____ _____    ______ ____
ROOT
ATOM      1  C   UNL     1     102.121 126.012  82.330  0.00  0.00    +0.000 C 
ATOM      2  C   UNL     1     102.878 126.119  81.225  0.00  0.00    +0.000 C 
ENDROOT
BRANCH   2   3
ATOM      3  C   UNL     1     103.877 125.121  80.817  0.00  0.00    +0.000 A 
ATOM      4  C   UNL     1     104.691 125.295  79.689  0.00  0.00    +0.000 A 
ATOM      5  C   UNL     1     105.647 124.334  79.359  0.00  0.00    +0.000 A 
ATOM      6  C   UNL     1     105.814 123.198  80.148  0.00  0.00    +0.000 A 
ATOM      7  C   UNL     1     105.022 123.024  81.281  0.00  0.00    +0.000 A 
ATOM      8  C   UNL     1     104.062 123.984  81.615  0.00  0.00    +0.000 A 
ATOM      9 CL   UNL     1     106.635 124.557  77.967  0.00  0.00    +0.000 Cl
ENDBRANCH   2   3
BRANCH   1  14
ATOM     10  C   UNL     1      98.791 127.697  82.879  0.00  0.00    +0.000 A 
ATOM     11  C   UNL     1      99.177 128.910  83.450  0.00  0.00    +0.000 A 
ATOM     12  C   UNL     1     100.531 129.183  83.660  0.00  0.00    +0.000 A 
ATOM     13  C   UNL     1     101.502 128.245  83.306  0.00  0.00    +0.000 A 
ATOM     14  C   UNL     1     101.132 127.016  82.749  0.00  0.00    +0.000 A 
ATOM     15  C   UNL     1      99.771 126.761  82.529  0.00  0.00    +0.000 A 
BRANCH  10  17
ATOM     16  C   UNL     1      96.770 126.738  83.686  0.00  0.00    +0.000 C 
ATOM     17  O   UNL     1      97.508 127.307  82.611  0.00  0.00    +0.000 OA
ENDBRANCH  10  17
ENDBRANCH   1  14
TORSDOF 3
ENDMDL
