REMARK  Name = *****
REMARK  5 active torsions:
REMARK  status: ('A' for Active; 'I' for Inactive)
REMARK    1  A    between atoms: C_1  and  C_2
REMARK    2  A    between atoms: C_5  and  O_8
REMARK    3  A    between atoms: O_8  and  C_9
REMARK    4  A    between atoms: C_9  and  C_11
REMARK    5  A    between atoms: C_16  and  C_17
REMARK                            x       y       z     vdW  Elec       q    Type
REMARK                         _______ _______ _______ _____ _____    ______ ____
ROOT
ATOM      1  C   UNL     1      -4.230   1.102  -0.175  0.00  0.00    +0.000 C 
ATOM      2  O   UNL     1      -5.376   1.015   0.232  0.00  0.00    +0.000 OA
ENDROOT
BRANCH   1   3
ATOM      3  C   UNL     1      -3.725   2.210  -1.058  0.00  0.00    +0.000 A 
ATOM      4  C   UNL     1      -2.388   2.208  -1.502  0.00  0.00    +0.000 A 
ATOM      5  C   UNL     1      -1.897   3.229  -2.319  0.00  0.00    +0.000 A 
ATOM      6  C   UNL     1      -2.732   4.269  -2.706  0.00  0.00    +0.000 A 
ATOM      7  C   UNL     1      -4.058   4.290  -2.280  0.00  0.00    +0.000 A 
ATOM      8  C   UNL     1      -4.574   3.271  -1.457  0.00  0.00    +0.000 A 
ATOM      9  C   UNL     1      -6.017   3.369  -1.039  0.00  0.00    +0.000 C 
ENDBRANCH   1   3
BRANCH   1  10
ATOM     10  O   UNL     1      -3.194   0.212   0.102  0.00  0.00    +0.000 OA
BRANCH  10  15
ATOM     11  C   UNL     1      -3.099  -4.430   3.433  0.00  0.00    +0.000 C 
ATOM     12  C   UNL     1      -3.159  -3.207   2.566  0.00  0.00    +0.000 A 
ATOM     13  C   UNL     1      -4.327  -2.439   2.490  0.00  0.00    +0.000 A 
ATOM     14  C   UNL     1      -4.382  -1.300   1.681  0.00  0.00    +0.000 A 
ATOM     15  C   UNL     1      -3.267  -0.933   0.935  0.00  0.00    +0.000 A 
ATOM     16  C   UNL     1      -2.099  -1.697   0.990  0.00  0.00    +0.000 A 
ATOM     17  C   UNL     1      -2.047  -2.832   1.801  0.00  0.00    +0.000 A 
ENDBRANCH  10  15
ENDBRANCH   1  10
TORSDOF 3
