MODEL 1
REMARK VINA RESULT:      -4.6      0.000      0.000
REMARK  Name = *****
REMARK  5 active torsions:
REMARK  status: ('A' for Active; 'I' for Inactive)
REMARK    1  A    between atoms: C_1  and  C_2
REMARK    2  A    between atoms: C_4  and  C_16
REMARK    3  A    between atoms: C_5  and  C_8
REMARK    4  A    between atoms: C_9  and  C_10
REMARK    5  A    between atoms: C_16  and  C_18
REMARK                            x       y       z     vdW  Elec       q    Type
REMARK                         _______ _______ _______ _____ _____    ______ ____
ROOT
ATOM      1  C   UNL     1     107.492 124.887  81.700  0.00  0.00    +0.000 C 
ATOM      2  C   UNL     1     106.316 125.709  82.229  0.00  0.00    +0.000 C 
ATOM      3  C   UNL     1     105.343 124.873  83.071  0.00  0.00    +0.000 C 
ATOM      4  C   UNL     1     104.365 124.004  82.245  0.00  0.00    +0.000 C 
ATOM      5  C   UNL     1     103.746 124.848  81.087  0.00  0.00    +0.000 C 
ATOM      6  O   UNL     1     104.772 125.514  80.330  0.00  0.00    +0.000 OA
ATOM      7  C   UNL     1     105.573 126.413  81.095  0.00  0.00    +0.000 C 
ENDROOT
BRANCH   4   8
ATOM      8  C   UNL     1     104.986 122.655  81.833  0.00  0.00    +0.000 C 
ATOM      9  C   UNL     1     105.517 121.831  82.757  0.00  0.00    +0.000 C 
ATOM     10  C   UNL     1     104.943 122.216  80.392  0.00  0.00    +0.000 C 
ENDBRANCH   4   8
BRANCH   5  11
ATOM     11  C   UNL     1     102.666 125.861  81.413  0.00  0.00    +0.000 C 
ATOM     12  C   UNL     1     101.932 125.961  82.534  0.00  0.00    +0.000 C 
BRANCH  12  13
ATOM     13  C   UNL     1     100.909 126.994  82.757  0.00  0.00    +0.000 A 
ATOM     14  C   UNL     1      99.565 126.808  82.408  0.00  0.00    +0.000 A 
ATOM     15  C   UNL     1      98.618 127.803  82.666  0.00  0.00    +0.000 A 
ATOM     16  C   UNL     1      99.003 128.989  83.286  0.00  0.00    +0.000 A 
ATOM     17  C   UNL     1     100.333 129.180  83.652  0.00  0.00    +0.000 A 
ATOM     18  C   UNL     1     101.279 128.185  83.395  0.00  0.00    +0.000 A 
ENDBRANCH  12  13
ENDBRANCH   5  11
TORSDOF 3
ENDMDL
