MODEL 1
REMARK VINA RESULT:      -4.2      0.000      0.000
REMARK  Name = *****
REMARK  3 active torsions:
REMARK  status: ('A' for Active; 'I' for Inactive)
REMARK    1  A    between atoms: C_4  and  C_7
REMARK    2  A    between atoms: C_7  and  S_9
REMARK    3  A    between atoms: S_9  and  C_10
REMARK                            x       y       z     vdW  Elec       q    Type
REMARK                         _______ _______ _______ _____ _____    ______ ____
ROOT
ATOM      1  C   UNL     1      87.749  70.769  85.722  0.00  0.00    +0.000 C 
ATOM      2  S   UNL     1      87.840  70.435  84.077  0.00  0.00    +0.000 S 
ENDROOT
BRANCH   1   6
ATOM      3  C   UNL     1      84.276  72.459  87.561  0.00  0.00    +0.000 A 
ATOM      4  C   UNL     1      85.288  71.914  88.353  0.00  0.00    +0.000 A 
ATOM      5  C   UNL     1      86.420  71.358  87.756  0.00  0.00    +0.000 A 
ATOM      6  C   UNL     1      86.539  71.347  86.360  0.00  0.00    +0.000 A 
ATOM      7  C   UNL     1      85.521  71.891  85.567  0.00  0.00    +0.000 A 
ATOM      8  C   UNL     1      84.391  72.448  86.170  0.00  0.00    +0.000 A 
ENDBRANCH   1   6
BRANCH   1   9
ATOM      9  S   UNL     1      89.101  70.412  86.805  0.00  0.00    +0.000 S 
BRANCH   9  10
ATOM     10  C   UNL     1      89.022  68.631  86.838  0.00  0.00    +0.000 A 
ATOM     11  C   UNL     1      87.923  67.994  87.423  0.00  0.00    +0.000 A 
ATOM     12  C   UNL     1      87.858  66.600  87.462  0.00  0.00    +0.000 A 
ATOM     13  C   UNL     1      88.888  65.838  86.911  0.00  0.00    +0.000 A 
ATOM     14  C   UNL     1      89.980  66.468  86.318  0.00  0.00    +0.000 A 
ATOM     15  C   UNL     1      90.047  67.862  86.278  0.00  0.00    +0.000 A 
ENDBRANCH   9  10
ENDBRANCH   1   9
TORSDOF 3
ENDMDL
