REMARK  Name = *****
REMARK  6 active torsions:
REMARK  status: ('A' for Active; 'I' for Inactive)
REMARK    1  A    between atoms: C_1  and  O_2
REMARK    2  A    between atoms: O_2  and  C_3
REMARK    3  A    between atoms: C_6  and  C_9
REMARK    4  A    between atoms: C_10  and  C_11
REMARK    5  A    between atoms: C_14  and  O_17
REMARK    6  A    between atoms: O_17  and  C_18
REMARK                            x       y       z     vdW  Elec       q    Type
REMARK                         _______ _______ _______ _____ _____    ______ ____
ROOT
ATOM      1  C   UNL     1       5.388   1.014  -4.629  0.00  0.00    +0.000 C 
ATOM      2  C   UNL     1       6.449   0.328  -5.091  0.00  0.00    +0.000 C 
ATOM      3  F   UNL     1       6.904  -0.742  -4.394  0.00  0.00    +0.000 F 
ATOM      4  F   UNL     1       4.934   2.085  -5.326  0.00  0.00    +0.000 F 
ENDROOT
BRANCH   1   8
ATOM      5  C   UNL     1       3.197   0.288  -0.997  0.00  0.00    +0.000 A 
ATOM      6  C   UNL     1       3.325   1.574  -1.516  0.00  0.00    +0.000 A 
ATOM      7  C   UNL     1       4.045   1.787  -2.699  0.00  0.00    +0.000 A 
ATOM      8  C   UNL     1       4.660   0.724  -3.379  0.00  0.00    +0.000 A 
ATOM      9  C   UNL     1       4.508  -0.566  -2.857  0.00  0.00    +0.000 A 
ATOM     10  C   UNL     1       3.788  -0.778  -1.676  0.00  0.00    +0.000 A 
BRANCH   5  12
ATOM     11  C   UNL     1       1.932   0.998   0.886  0.00  0.00    +0.000 C 
ATOM     12  O   UNL     1       2.527  -0.059   0.143  0.00  0.00    +0.000 OA
ENDBRANCH   5  12
ENDBRANCH   1   8
BRANCH   2  13
ATOM     13  C   UNL     1       7.182   0.622  -6.337  0.00  0.00    +0.000 A 
ATOM     14  C   UNL     1       7.342   1.917  -6.849  0.00  0.00    +0.000 A 
ATOM     15  C   UNL     1       8.074   2.147  -8.023  0.00  0.00    +0.000 A 
ATOM     16  C   UNL     1       8.668   1.084  -8.700  0.00  0.00    +0.000 A 
ATOM     17  C   UNL     1       8.527  -0.207  -8.190  0.00  0.00    +0.000 A 
ATOM     18  C   UNL     1       7.798  -0.436  -7.018  0.00  0.00    +0.000 A 
BRANCH  16  19
ATOM     19  O   UNL     1       9.405   1.170  -9.848  0.00  0.00    +0.000 OA
ATOM     20  C   UNL     1       9.577   2.466 -10.406  0.00  0.00    +0.000 C 
ENDBRANCH  16  19
ENDBRANCH   2  13
TORSDOF 4
