MODEL 1
REMARK VINA RESULT:      -5.2      0.000      0.000
REMARK  Name = *****
REMARK  3 active torsions:
REMARK  status: ('A' for Active; 'I' for Inactive)
REMARK    1  A    between atoms: C_4  and  C_16
REMARK    2  A    between atoms: C_5  and  C_7
REMARK    3  A    between atoms: C_8  and  C_9
REMARK                            x       y       z     vdW  Elec       q    Type
REMARK                         _______ _______ _______ _____ _____    ______ ____
ROOT
ATOM      1  C   UNL     1     101.733 127.407  83.245  0.00  0.00    +0.000 C 
ATOM      2  C   UNL     1     102.546 127.332  82.180  0.00  0.00    +0.000 C 
ENDROOT
BRANCH   2   3
ATOM      3  C   UNL     1     103.233 126.097  81.788  0.00  0.00    +0.000 A 
ATOM      4  C   UNL     1     103.440 125.047  82.692  0.00  0.00    +0.000 A 
ATOM      5  C   UNL     1     104.076 123.871  82.278  0.00  0.00    +0.000 A 
ATOM      6  C   UNL     1     104.500 123.742  80.958  0.00  0.00    +0.000 A 
ATOM      7  C   UNL     1     104.290 124.775  80.045  0.00  0.00    +0.000 A 
ATOM      8  C   UNL     1     103.654 125.948  80.460  0.00  0.00    +0.000 A 
ATOM      9 CL   UNL     1     105.282 122.297  80.448  0.00  0.00    +0.000 Cl
ENDBRANCH   2   3
BRANCH   1  14
ATOM     10  C   UNL     1     101.291 130.853  84.663  0.00  0.00    +0.000 A 
ATOM     11  C   UNL     1      99.940 131.106  84.445  0.00  0.00    +0.000 A 
ATOM     12  C   UNL     1      99.144 130.142  83.823  0.00  0.00    +0.000 A 
ATOM     13  C   UNL     1      99.697 128.917  83.417  0.00  0.00    +0.000 A 
ATOM     14  C   UNL     1     101.060 128.653  83.646  0.00  0.00    +0.000 A 
ATOM     15  C   UNL     1     101.849 129.636  84.264  0.00  0.00    +0.000 A 
BRANCH  13  16
ATOM     16  C   UNL     1      98.839 127.969  82.762  0.00  0.00    +0.000 C 
ATOM     17  N   UNL     1      98.156 127.211  82.209  0.00  0.00    +0.000 NA
ENDBRANCH  13  16
ENDBRANCH   1  14
TORSDOF 3
ENDMDL
