MODEL 1
REMARK VINA RESULT:      -4.7      0.000      0.000
REMARK  Name = *****
REMARK  4 active torsions:
REMARK  status: ('A' for Active; 'I' for Inactive)
REMARK    1  A    between atoms: C_3  and  C_8
REMARK    2  A    between atoms: C_8  and  O_9
REMARK    3  A    between atoms: O_9  and  C_10
REMARK    4  A    between atoms: C_10  and  C_12
REMARK                            x       y       z     vdW  Elec       q    Type
REMARK                         _______ _______ _______ _____ _____    ______ ____
ROOT
ATOM      1  O   UNL     1     103.541 125.076  80.101  0.00  0.00    +0.000 OA
ENDROOT
BRANCH   1   2
ATOM      2  C   UNL     1     104.687 124.358  80.092  0.00  0.00    +0.000 C 
ATOM      3  O   UNL     1     105.652 124.544  79.367  0.00  0.00    +0.000 OA
BRANCH   2   4
ATOM      4  C   UNL     1     104.634 123.281  81.117  0.00  0.00    +0.000 A 
ATOM      5  C   UNL     1     104.758 121.927  80.788  0.00  0.00    +0.000 A 
ATOM      6  C   UNL     1     104.702 120.971  81.797  0.00  0.00    +0.000 A 
ATOM      7  C   UNL     1     104.525 121.334  83.127  0.00  0.00    +0.000 A 
ATOM      8  C   UNL     1     104.402 122.681  83.463  0.00  0.00    +0.000 A 
ATOM      9  C   UNL     1     104.458 123.652  82.460  0.00  0.00    +0.000 A 
ATOM     10  F   UNL     1     104.820 119.675  81.480  0.00  0.00    +0.000 F 
ENDBRANCH   2   4
ENDBRANCH   1   2
BRANCH   1  11
ATOM     11  C   UNL     1     103.691 126.489  80.287  0.00  0.00    +0.000 C 
BRANCH  11  14
ATOM     12  C   UNL     1     101.113 126.489  83.096  0.00  0.00    +0.000 A 
ATOM     13  C   UNL     1     101.848 126.106  81.970  0.00  0.00    +0.000 A 
ATOM     14  C   UNL     1     102.884 126.919  81.482  0.00  0.00    +0.000 A 
ATOM     15  C   UNL     1     103.182 128.112  82.153  0.00  0.00    +0.000 A 
ATOM     16  C   UNL     1     102.444 128.483  83.272  0.00  0.00    +0.000 A 
ATOM     17  C   UNL     1     101.410 127.684  83.747  0.00  0.00    +0.000 A 
ATOM     18  F   UNL     1     102.735 129.629  83.902  0.00  0.00    +0.000 F 
ENDBRANCH  11  14
ENDBRANCH   1  11
TORSDOF 4
ENDMDL
