REMARK  Name = *****
REMARK  4 active torsions:
REMARK  status: ('A' for Active; 'I' for Inactive)
REMARK    1  A    between atoms: C_1  and  C_2
REMARK    2  A    between atoms: C_2  and  C_3
REMARK    3  A    between atoms: C_4  and  C_12
REMARK    4  A    between atoms: C_5  and  C_6
REMARK                            x       y       z     vdW  Elec       q    Type
REMARK                         _______ _______ _______ _____ _____    ______ ____
ROOT
ATOM      1  C   UNL     1       3.362   1.225  -0.131  0.00  0.00    +0.000 C 
ATOM      2  C   UNL     1       3.027   2.665   0.184  0.00  0.00    +0.000 C 
ATOM      3  C   UNL     1       3.454   2.268  -1.225  0.00  0.00    +0.000 C 
ENDROOT
BRANCH   3   4
ATOM      4  C   UNL     1       2.469   2.313  -2.371  0.00  0.00    +0.000 A 
ATOM      5  C   UNL     1       1.589   3.393  -2.552  0.00  0.00    +0.000 A 
ATOM      6  C   UNL     1       0.695   3.434  -3.626  0.00  0.00    +0.000 A 
ATOM      7  C   UNL     1       0.671   2.396  -4.552  0.00  0.00    +0.000 A 
ATOM      8  C   UNL     1       1.543   1.321  -4.406  0.00  0.00    +0.000 A 
ATOM      9  C   UNL     1       2.433   1.286  -3.330  0.00  0.00    +0.000 A 
ENDBRANCH   3   4
BRANCH   2  10
ATOM     10  C   UNL     1       3.959   3.487   1.044  0.00  0.00    +0.000 A 
ATOM     11  C   UNL     1       4.457   4.724   0.603  0.00  0.00    +0.000 A 
ATOM     12  C   UNL     1       5.308   5.494   1.402  0.00  0.00    +0.000 A 
ATOM     13  C   UNL     1       5.673   5.042   2.666  0.00  0.00    +0.000 A 
ATOM     14  C   UNL     1       5.184   3.824   3.132  0.00  0.00    +0.000 A 
ATOM     15  C   UNL     1       4.334   3.060   2.329  0.00  0.00    +0.000 A 
ENDBRANCH   2  10
BRANCH   1  17
ATOM     16  C   UNL     1       2.098  -0.352   1.330  0.00  0.00    +0.000 C 
ATOM     17  C   UNL     1       2.280   0.187  -0.080  0.00  0.00    +0.000 C 
ENDBRANCH   1  17
TORSDOF 3
