REMARK  Name = *****
REMARK  4 active torsions:
REMARK  status: ('A' for Active; 'I' for Inactive)
REMARK    1  A    between atoms: C_1  and  C_2
REMARK    2  A    between atoms: C_4  and  C_8
REMARK    3  A    between atoms: C_8  and  O_10
REMARK    4  A    between atoms: O_10  and  C_11
REMARK                            x       y       z     vdW  Elec       q    Type
REMARK                         _______ _______ _______ _____ _____    ______ ____
ROOT
ATOM      1  C   UNL     1      -1.548   2.452   0.655  0.00  0.00    +0.000 C 
ATOM      2  O   UNL     1      -2.761   2.600   0.685  0.00  0.00    +0.000 OA
ENDROOT
BRANCH   1   6
ATOM      3  C   UNL     1       2.558  -0.372  -0.217  0.00  0.00    +0.000 C 
ATOM      4  C   UNL     1       1.070  -0.183  -0.245  0.00  0.00    +0.000 A 
ATOM      5  C   UNL     1       0.500   1.021   0.198  0.00  0.00    +0.000 A 
ATOM      6  C   UNL     1      -0.893   1.192   0.204  0.00  0.00    +0.000 A 
ATOM      7  C   UNL     1      -1.715   0.141  -0.224  0.00  0.00    +0.000 A 
ATOM      8  C   UNL     1      -1.155  -1.063  -0.651  0.00  0.00    +0.000 A 
ATOM      9  C   UNL     1       0.231  -1.225  -0.657  0.00  0.00    +0.000 A 
ENDBRANCH   1   6
BRANCH   1  10
ATOM     10  O   UNL     1      -0.587   3.388   0.985  0.00  0.00    +0.000 OA
BRANCH  10  11
ATOM     11  C   UNL     1      -1.140   4.559   1.501  0.00  0.00    +0.000 A 
ATOM     12  C   UNL     1      -1.218   5.685   0.684  0.00  0.00    +0.000 A 
ATOM     13  C   UNL     1      -1.733   6.872   1.209  0.00  0.00    +0.000 A 
ATOM     14  C   UNL     1      -2.150   6.929   2.544  0.00  0.00    +0.000 A 
ATOM     15  C   UNL     1      -2.048   5.800   3.360  0.00  0.00    +0.000 A 
ATOM     16  C   UNL     1      -1.536   4.619   2.836  0.00  0.00    +0.000 A 
ATOM     17  F   UNL     1      -1.415   3.543   3.627  0.00  0.00    +0.000 F 
ENDBRANCH  10  11
ENDBRANCH   1  10
TORSDOF 3
