MODEL 1
REMARK VINA RESULT:      -4.7      0.000      0.000
REMARK  Name = *****
REMARK  6 active torsions:
REMARK  status: ('A' for Active; 'I' for Inactive)
REMARK    1  A    between atoms: C_1  and  C_2
REMARK    2  A    between atoms: C_3  and  C_19
REMARK    3  A    between atoms: C_4  and  C_8
REMARK    4  A    between atoms: C_8  and  C_9
REMARK    5  A    between atoms: C_9  and  C_10
REMARK    6  A    between atoms: C_10  and  C_12
REMARK                            x       y       z     vdW  Elec       q    Type
REMARK                         _______ _______ _______ _____ _____    ______ ____
ROOT
ATOM      1  C   UNL     1      89.801  68.464  86.033  0.00  0.00    +0.000 C 
ENDROOT
BRANCH   1   2
ATOM      2  C   UNL     1      88.556  67.618  85.847  0.00  0.00    +0.000 C 
ATOM      3  O   UNL     1      87.951  67.565  84.778  0.00  0.00    +0.000 OA
BRANCH   2   4
ATOM      4  C   UNL     1      88.050  66.821  87.009  0.00  0.00    +0.000 A 
ATOM      5  C   UNL     1      86.973  67.247  87.799  0.00  0.00    +0.000 A 
ATOM      6  C   UNL     1      86.541  66.465  88.874  0.00  0.00    +0.000 A 
ATOM      7  C   UNL     1      87.182  65.263  89.156  0.00  0.00    +0.000 A 
ATOM      8  C   UNL     1      88.249  64.826  88.383  0.00  0.00    +0.000 A 
ATOM      9  C   UNL     1      88.684  65.604  87.308  0.00  0.00    +0.000 A 
ATOM     10  F   UNL     1      86.764  64.520  90.188  0.00  0.00    +0.000 F 
ENDBRANCH   2   4
ENDBRANCH   1   2
BRANCH   1  11
ATOM     11  C   UNL     1      89.504  69.954  85.869  0.00  0.00    +0.000 C 
BRANCH  11  15
ATOM     12  C   UNL     1      85.040  71.954  87.420  0.00  0.00    +0.000 C 
ATOM     13  C   UNL     1      86.419  71.404  87.675  0.00  0.00    +0.000 A 
ATOM     14  C   UNL     1      87.270  70.993  86.620  0.00  0.00    +0.000 A 
ATOM     15  C   UNL     1      88.539  70.445  86.931  0.00  0.00    +0.000 A 
ATOM     16  C   UNL     1      88.952  70.369  88.272  0.00  0.00    +0.000 A 
ATOM     17  C   UNL     1      88.124  70.805  89.299  0.00  0.00    +0.000 A 
ATOM     18  C   UNL     1      86.866  71.317  89.003  0.00  0.00    +0.000 A 
ATOM     19  C   UNL     1      86.797  71.068  85.188  0.00  0.00    +0.000 C 
ENDBRANCH  11  15
ENDBRANCH   1  11
TORSDOF 4
ENDMDL
