MODEL 1
REMARK VINA RESULT:      -4.4      0.000      0.000
REMARK  Name = *****
REMARK  4 active torsions:
REMARK  status: ('A' for Active; 'I' for Inactive)
REMARK    1  A    between atoms: C_4  and  C_7
REMARK    2  A    between atoms: C_7  and  C_8
REMARK    3  A    between atoms: C_8  and  N_10
REMARK    4  A    between atoms: N_10  and  C_11
REMARK                            x       y       z     vdW  Elec       q    Type
REMARK                         _______ _______ _______ _____ _____    ______ ____
ROOT
ATOM      1  C   UNL     1      88.476  70.726  89.021  0.00  0.00    +0.000 C 
ATOM      2  S   UNL     1      88.430  71.924  90.195  0.00  0.00    +0.000 S 
ENDROOT
BRANCH   1   3
ATOM      3  N   UNL     1      89.555  70.281  88.261  0.00  0.00    +0.000 N 
ATOM      4  H   UNL     1      90.408  70.273  88.752  0.00  0.00    +0.000 HD
BRANCH   3   5
ATOM      5  C   UNL     1      89.665  69.840  86.922  0.00  0.00    +0.000 A 
ATOM      6  C   UNL     1      89.668  68.511  86.502  0.00  0.00    +0.000 A 
ATOM      7  C   UNL     1      89.765  68.190  85.142  0.00  0.00    +0.000 A 
ATOM      8  C   UNL     1      89.850  69.196  84.185  0.00  0.00    +0.000 A 
ATOM      9  C   UNL     1      89.830  70.527  84.585  0.00  0.00    +0.000 A 
ATOM     10  C   UNL     1      89.732  70.845  85.942  0.00  0.00    +0.000 A 
ENDBRANCH   3   5
ENDBRANCH   1   3
BRANCH   1  11
ATOM     11  C   UNL     1      87.164  70.025  88.637  0.00  0.00    +0.000 C 
BRANCH  11  15
ATOM     12  C   UNL     1      84.335  72.591  86.616  0.00  0.00    +0.000 A 
ATOM     13  C   UNL     1      84.237  72.399  87.992  0.00  0.00    +0.000 A 
ATOM     14  C   UNL     1      85.152  71.574  88.652  0.00  0.00    +0.000 A 
ATOM     15  C   UNL     1      86.178  70.936  87.940  0.00  0.00    +0.000 A 
ATOM     16  C   UNL     1      86.263  71.136  86.554  0.00  0.00    +0.000 A 
ATOM     17  C   UNL     1      85.346  71.959  85.897  0.00  0.00    +0.000 A 
ENDBRANCH  11  15
ENDBRANCH   1  11
TORSDOF 4
ENDMDL
