MODEL 1
REMARK VINA RESULT:      -4.6      0.000      0.000
REMARK  Name = *****
REMARK  3 active torsions:
REMARK  status: ('A' for Active; 'I' for Inactive)
REMARK    1  A    between atoms: C_5  and  C_7
REMARK    2  A    between atoms: C_7  and  O_9
REMARK    3  A    between atoms: O_9  and  C_10
REMARK                            x       y       z     vdW  Elec       q    Type
REMARK                         _______ _______ _______ _____ _____    ______ ____
ROOT
ATOM      1  C   UNL     1     102.013 125.952  82.637  0.00  0.00    +0.000 C 
ATOM      2  O   UNL     1     102.433 125.215  83.517  0.00  0.00    +0.000 OA
ENDROOT
BRANCH   1   7
ATOM      3  C   UNL     1     100.627 129.235  83.851  0.00  0.00    +0.000 A 
ATOM      4  C   UNL     1      99.293 129.158  83.450  0.00  0.00    +0.000 A 
ATOM      5  C   UNL     1      98.837 128.029  82.768  0.00  0.00    +0.000 A 
ATOM      6  C   UNL     1      99.712 126.978  82.495  0.00  0.00    +0.000 A 
ATOM      7  C   UNL     1     101.044 127.039  82.902  0.00  0.00    +0.000 A 
ATOM      8  C   UNL     1     101.503 128.183  83.575  0.00  0.00    +0.000 A 
ATOM      9  F   UNL     1      99.235 125.926  81.815  0.00  0.00    +0.000 F 
ENDBRANCH   1   7
BRANCH   1  10
ATOM     10  O   UNL     1     102.265 125.859  81.283  0.00  0.00    +0.000 OA
BRANCH  10  11
ATOM     11  C   UNL     1     103.616 125.624  81.013  0.00  0.00    +0.000 A 
ATOM     12  C   UNL     1     104.507 126.688  80.837  0.00  0.00    +0.000 A 
ATOM     13  C   UNL     1     105.842 126.422  80.534  0.00  0.00    +0.000 A 
ATOM     14  C   UNL     1     106.277 125.098  80.399  0.00  0.00    +0.000 A 
ATOM     15  C   UNL     1     105.371 124.047  80.562  0.00  0.00    +0.000 A 
ATOM     16  C   UNL     1     104.036 124.300  80.862  0.00  0.00    +0.000 A 
ATOM     17 CL   UNL     1     105.912 122.423  80.382  0.00  0.00    +0.000 Cl
ATOM     18 CL   UNL     1     103.992 128.327  80.973  0.00  0.00    +0.000 Cl
ENDBRANCH  10  11
ENDBRANCH   1  10
TORSDOF 3
ENDMDL
