MODEL 1
REMARK VINA RESULT:      -4.8      0.000      0.000
REMARK  Name = *****
REMARK  3 active torsions:
REMARK  status: ('A' for Active; 'I' for Inactive)
REMARK    1  A    between atoms: C_7  and  O_18
REMARK    2  A    between atoms: N_8  and  C_11
REMARK    3  A    between atoms: O_18  and  O_19
REMARK                            x       y       z     vdW  Elec       q    Type
REMARK                         _______ _______ _______ _____ _____    ______ ____
ROOT
ATOM      1  C   UNL     1      99.078 130.147  84.634  0.00  0.00    +0.000 C 
ATOM      2  C   UNL     1     100.253 131.100  84.860  0.00  0.00    +0.000 C 
ATOM      3  C   UNL     1     101.562 130.337  85.091  0.00  0.00    +0.000 C 
ATOM      4  C   UNL     1     101.719 129.200  84.135  0.00  0.00    +0.000 C 
ATOM      5  C   UNL     1     100.722 128.702  83.393  0.00  0.00    +0.000 C 
ATOM      6  C   UNL     1      99.318 129.214  83.440  0.00  0.00    +0.000 C 
ATOM      7  C   UNL     1     101.099 127.557  82.506  0.00  0.00    +0.000 C 
ATOM      8  N   UNL     1     102.536 127.381  82.701  0.00  0.00    +0.000 N 
ATOM      9  S   UNL     1     103.261 128.370  83.837  0.00  0.00    +0.000 S 
ATOM     10  O   UNL     1     103.582 127.625  85.095  0.00  0.00    +0.000 OA
ENDROOT
BRANCH   8  11
ATOM     11  C   UNL     1     103.167 126.248  82.174  0.00  0.00    +0.000 A 
ATOM     12  C   UNL     1     103.356 125.105  82.970  0.00  0.00    +0.000 A 
ATOM     13  C   UNL     1     103.947 123.945  82.458  0.00  0.00    +0.000 A 
ATOM     14  C   UNL     1     104.366 123.904  81.133  0.00  0.00    +0.000 A 
ATOM     15  C   UNL     1     104.203 125.024  80.322  0.00  0.00    +0.000 A 
ATOM     16  C   UNL     1     103.611 126.185  80.836  0.00  0.00    +0.000 A 
ATOM     17 CL   UNL     1     103.511 127.552  79.777  0.00  0.00    +0.000 Cl
ENDBRANCH   8  11
BRANCH   7  18
ATOM     18  O   UNL     1     100.345 126.415  82.946  0.00  0.00    +0.000 OA
BRANCH  18  19
ATOM     19  O   UNL     1      99.459 126.032  81.846  0.00  0.00    +0.000 OA
ATOM     20  H   UNL     1      99.096 126.830  81.432  0.00  0.00    +0.000 HD
ENDBRANCH  18  19
ENDBRANCH   7  18
TORSDOF 3
ENDMDL
