MODEL 1
REMARK VINA RESULT:      -4.9      0.000      0.000
REMARK  Name = *****
REMARK  4 active torsions:
REMARK  status: ('A' for Active; 'I' for Inactive)
REMARK    1  A    between atoms: C_3  and  C_11
REMARK    2  A    between atoms: C_5  and  C_7
REMARK    3  A    between atoms: C_11  and  O_12
REMARK    4  A    between atoms: O_12  and  C_13
REMARK                            x       y       z     vdW  Elec       q    Type
REMARK                         _______ _______ _______ _____ _____    ______ ____
ROOT
ATOM      1  C   UNL     1      99.018 127.151  82.503  0.00  0.00    +0.000 A 
ATOM      2  C   UNL     1     100.315 126.640  82.470  0.00  0.00    +0.000 A 
ATOM      3  C   UNL     1     101.390 127.399  82.952  0.00  0.00    +0.000 A 
ATOM      4  C   UNL     1     101.140 128.682  83.465  0.00  0.00    +0.000 A 
ATOM      5  C   UNL     1      99.838 129.206  83.503  0.00  0.00    +0.000 A 
ATOM      6  C   UNL     1      98.779 128.425  83.017  0.00  0.00    +0.000 A 
ENDROOT
BRANCH   5   7
ATOM      7  C   UNL     1      99.564 130.582  84.059  0.00  0.00    +0.000 C 
ATOM      8  F   UNL     1      98.452 130.646  84.843  0.00  0.00    +0.000 F 
ATOM      9  F   UNL     1     100.588 131.044  84.828  0.00  0.00    +0.000 F 
ATOM     10  F   UNL     1      99.384 131.513  83.081  0.00  0.00    +0.000 F 
ENDBRANCH   5   7
BRANCH   3  11
ATOM     11  C   UNL     1     102.801 126.859  82.905  0.00  0.00    +0.000 C 
BRANCH  11  12
ATOM     12  O   UNL     1     102.779 125.497  83.328  0.00  0.00    +0.000 OA
BRANCH  12  13
ATOM     13  C   UNL     1     103.560 124.614  82.634  0.00  0.00    +0.000 A 
ATOM     14  C   UNL     1     104.232 123.513  83.170  0.00  0.00    +0.000 A 
ATOM     15  C   UNL     1     104.998 122.689  82.338  0.00  0.00    +0.000 A 
ATOM     16  C   UNL     1     105.086 122.970  80.980  0.00  0.00    +0.000 A 
ATOM     17  C   UNL     1     104.425 124.061  80.434  0.00  0.00    +0.000 A 
ATOM     18  C   UNL     1     103.662 124.883  81.264  0.00  0.00    +0.000 A 
ATOM     19  F   UNL     1     105.821 122.178  80.189  0.00  0.00    +0.000 F 
ENDBRANCH  12  13
ENDBRANCH  11  12
ENDBRANCH   3  11
TORSDOF 4
ENDMDL
