MODEL 1
REMARK VINA RESULT:      -5.2      0.000      0.000
REMARK  Name = *****
REMARK  1 active torsions:
REMARK  status: ('A' for Active; 'I' for Inactive)
REMARK    1  A    between atoms: C_4  and  C_7
REMARK                            x       y       z     vdW  Elec       q    Type
REMARK                         _______ _______ _______ _____ _____    ______ ____
ROOT
ATOM      1  C   UNL     1     102.200 126.108  82.449  0.00  0.00    +0.000 A 
ATOM      2  C   UNL     1     102.769 125.281  83.354  0.00  0.00    +0.000 A 
ATOM      3  C   UNL     1     103.758 124.482  82.647  0.00  0.00    +0.000 A 
ATOM      4  C   UNL     1     104.518 123.548  83.226  0.00  0.00    +0.000 A 
ATOM      5  C   UNL     1     105.518 122.711  82.603  0.00  0.00    +0.000 A 
ATOM      6  C   UNL     1     105.920 122.670  81.326  0.00  0.00    +0.000 A 
ATOM      7  C   UNL     1     105.477 123.449  80.193  0.00  0.00    +0.000 A 
ATOM      8  C   UNL     1     104.542 124.406  80.144  0.00  0.00    +0.000 A 
ATOM      9  C   UNL     1     103.752 124.882  81.247  0.00  0.00    +0.000 A 
ATOM     10  C   UNL     1     102.819 125.850  81.148  0.00  0.00    +0.000 A 
ENDROOT
BRANCH   1  14
ATOM     11  C   UNL     1      99.118 128.933  83.349  0.00  0.00    +0.000 A 
ATOM     12  C   UNL     1      98.796 127.729  82.725  0.00  0.00    +0.000 A 
ATOM     13  C   UNL     1      99.801 126.805  82.428  0.00  0.00    +0.000 A 
ATOM     14  C   UNL     1     101.138 127.074  82.751  0.00  0.00    +0.000 A 
ATOM     15  C   UNL     1     101.447 128.287  83.381  0.00  0.00    +0.000 A 
ATOM     16  C   UNL     1     100.442 129.212  83.678  0.00  0.00    +0.000 A 
ENDBRANCH   1  14
TORSDOF 1
ENDMDL
