MODEL 1
REMARK VINA RESULT:      -4.7      0.000      0.000
REMARK  Name = *****
REMARK  2 active torsions:
REMARK  status: ('A' for Active; 'I' for Inactive)
REMARK    1  A    between atoms: C_4  and  N_7
REMARK    2  A    between atoms: C_8  and  C_9
REMARK                            x       y       z     vdW  Elec       q    Type
REMARK                         _______ _______ _______ _____ _____    ______ ____
ROOT
ATOM      1  N   UNL     1     101.806 125.976  82.652  0.00  0.00    +0.000 NA
ATOM      2  C   UNL     1     102.601 126.162  81.647  0.00  0.00    +0.000 C 
ENDROOT
BRANCH   2   3
ATOM      3  C   UNL     1     103.665 125.195  81.314  0.00  0.00    +0.000 A 
ATOM      4  C   UNL     1     104.344 125.273  80.093  0.00  0.00    +0.000 A 
ATOM      5  C   UNL     1     105.348 124.347  79.795  0.00  0.00    +0.000 A 
ATOM      6  C   UNL     1     105.674 123.347  80.720  0.00  0.00    +0.000 A 
ATOM      7  C   UNL     1     104.991 123.275  81.939  0.00  0.00    +0.000 A 
ATOM      8  C   UNL     1     103.986 124.199  82.239  0.00  0.00    +0.000 A 
ATOM      9 CL   UNL     1     106.903 122.171  80.421  0.00  0.00    +0.000 Cl
ATOM     10 CL   UNL     1     106.150 124.492  78.272  0.00  0.00    +0.000 Cl
ENDBRANCH   2   3
BRANCH   1  14
ATOM     11  C   UNL     1      98.911 128.966  83.228  0.00  0.00    +0.000 A 
ATOM     12  C   UNL     1     100.223 129.178  83.648  0.00  0.00    +0.000 A 
ATOM     13  C   UNL     1     101.185 128.184  83.457  0.00  0.00    +0.000 A 
ATOM     14  C   UNL     1     100.839 126.972  82.855  0.00  0.00    +0.000 A 
ATOM     15  C   UNL     1      99.526 126.773  82.422  0.00  0.00    +0.000 A 
ATOM     16  C   UNL     1      98.562 127.765  82.612  0.00  0.00    +0.000 A 
ENDBRANCH   1  14
TORSDOF 2
ENDMDL
