REMARK  Name = *****
REMARK  5 active torsions:
REMARK  status: ('A' for Active; 'I' for Inactive)
REMARK    1  A    between atoms: C_1  and  C_2
REMARK    2  A    between atoms: C_7  and  C_8
REMARK    3  A    between atoms: C_8  and  O_9
REMARK    4  A    between atoms: O_9  and  C_10
REMARK    5  A    between atoms: C_10  and  C_11
REMARK                            x       y       z     vdW  Elec       q    Type
REMARK                         _______ _______ _______ _____ _____    ______ ____
ROOT
ATOM      1  C   UNL     1       0.951  -2.520   0.015  0.00  0.00    +0.000 C 
ENDROOT
BRANCH   1   8
ATOM      2  C   UNL     1      -1.915  -1.750  -0.055  0.00  0.00    +0.000 C 
ATOM      3  C   UNL     1      -0.832  -0.706  -0.007  0.00  0.00    +0.000 A 
ATOM      4  C   UNL     1      -1.196   0.651   0.006  0.00  0.00    +0.000 A 
ATOM      5  C   UNL     1      -0.225   1.650   0.052  0.00  0.00    +0.000 A 
ATOM      6  C   UNL     1       1.122   1.306   0.086  0.00  0.00    +0.000 A 
ATOM      7  C   UNL     1       1.499  -0.038   0.074  0.00  0.00    +0.000 A 
ATOM      8  C   UNL     1       0.537  -1.062   0.028  0.00  0.00    +0.000 A 
ENDBRANCH   1   8
BRANCH   1   9
ATOM      9  O   UNL     1       2.369  -2.686   0.055  0.00  0.00    +0.000 OA
BRANCH   9  10
ATOM     10  C   UNL     1       2.728  -4.067   0.041  0.00  0.00    +0.000 C 
BRANCH  10  11
ATOM     11  C   UNL     1       4.228  -4.238   0.063  0.00  0.00    +0.000 A 
ATOM     12  C   UNL     1       4.788  -5.393   0.632  0.00  0.00    +0.000 A 
ATOM     13  C   UNL     1       6.169  -5.594   0.621  0.00  0.00    +0.000 A 
ATOM     14  C   UNL     1       7.007  -4.649   0.032  0.00  0.00    +0.000 A 
ATOM     15  C   UNL     1       6.464  -3.505  -0.548  0.00  0.00    +0.000 A 
ATOM     16  C   UNL     1       5.082  -3.303  -0.538  0.00  0.00    +0.000 A 
ENDBRANCH  10  11
ENDBRANCH   9  10
ENDBRANCH   1   9
TORSDOF 4
