MODEL 1
REMARK VINA RESULT:      -4.7      0.000      0.000
REMARK  Name = *****
REMARK  6 active torsions:
REMARK  status: ('A' for Active; 'I' for Inactive)
REMARK    1  A    between atoms: C_1  and  C_2
REMARK    2  A    between atoms: C_4  and  C_9
REMARK    3  A    between atoms: C_5  and  C_8
REMARK    4  A    between atoms: C_9  and  C_10
REMARK    5  A    between atoms: C_10  and  C_11
REMARK    6  A    between atoms: C_11  and  C_13
REMARK                            x       y       z     vdW  Elec       q    Type
REMARK                         _______ _______ _______ _____ _____    ______ ____
ROOT
ATOM      1  C   UNL     1      89.864  68.354  86.332  0.00  0.00    +0.000 C 
ENDROOT
BRANCH   1   2
ATOM      2  C   UNL     1      88.660  67.469  86.068  0.00  0.00    +0.000 C 
ATOM      3  O   UNL     1      88.186  67.325  84.943  0.00  0.00    +0.000 OA
BRANCH   2   4
ATOM      4  C   UNL     1      88.030  66.751  87.219  0.00  0.00    +0.000 A 
ATOM      5  C   UNL     1      88.522  65.532  87.700  0.00  0.00    +0.000 A 
ATOM      6  C   UNL     1      87.890  64.908  88.777  0.00  0.00    +0.000 A 
ATOM      7  C   UNL     1      86.774  65.484  89.383  0.00  0.00    +0.000 A 
ATOM      8  C   UNL     1      86.282  66.698  88.909  0.00  0.00    +0.000 A 
ATOM      9  C   UNL     1      86.908  67.330  87.832  0.00  0.00    +0.000 A 
ATOM     10 CL   UNL     1      88.497  63.408  89.365  0.00  0.00    +0.000 Cl
ENDBRANCH   2   4
ENDBRANCH   1   2
BRANCH   1  11
ATOM     11  C   UNL     1      89.577  69.818  85.996  0.00  0.00    +0.000 C 
BRANCH  11  15
ATOM     12  C   UNL     1      88.149  71.137  90.628  0.00  0.00    +0.000 C 
ATOM     13  C   UNL     1      87.849  71.055  89.161  0.00  0.00    +0.000 A 
ATOM     14  C   UNL     1      88.782  70.510  88.273  0.00  0.00    +0.000 A 
ATOM     15  C   UNL     1      88.504  70.389  86.899  0.00  0.00    +0.000 A 
ATOM     16  C   UNL     1      87.257  70.826  86.408  0.00  0.00    +0.000 A 
ATOM     17  C   UNL     1      86.317  71.351  87.308  0.00  0.00    +0.000 A 
ATOM     18  C   UNL     1      86.607  71.463  88.669  0.00  0.00    +0.000 A 
ATOM     19  C   UNL     1      86.886  70.712  84.955  0.00  0.00    +0.000 C 
ENDBRANCH  11  15
ENDBRANCH   1  11
TORSDOF 4
ENDMDL
