MODEL 1
REMARK VINA RESULT:      -4.8      0.000      0.000
REMARK  Name = *****
REMARK  4 active torsions:
REMARK  status: ('A' for Active; 'I' for Inactive)
REMARK    1  A    between atoms: C_1  and  C_2
REMARK    2  A    between atoms: C_3  and  N_9
REMARK    3  A    between atoms: C_4  and  C_8
REMARK    4  A    between atoms: C_10  and  C_11
REMARK                            x       y       z     vdW  Elec       q    Type
REMARK                         _______ _______ _______ _____ _____    ______ ____
ROOT
ATOM      1  N   UNL     1     101.769 127.146  83.317  0.00  0.00    +0.000 NA
ATOM      2  C   UNL     1     102.341 127.069  82.158  0.00  0.00    +0.000 C 
ENDROOT
BRANCH   1   5
ATOM      3  C   UNL     1      98.993 127.265  82.523  0.00  0.00    +0.000 C 
ATOM      4  C   UNL     1      99.688 128.420  83.189  0.00  0.00    +0.000 A 
ATOM      5  C   UNL     1     101.044 128.328  83.564  0.00  0.00    +0.000 A 
ATOM      6  C   UNL     1     101.664 129.412  84.217  0.00  0.00    +0.000 A 
ATOM      7  C   UNL     1     100.939 130.592  84.441  0.00  0.00    +0.000 A 
ATOM      8  C   UNL     1      99.608 130.690  84.042  0.00  0.00    +0.000 A 
ATOM      9  C   UNL     1      98.984 129.610  83.422  0.00  0.00    +0.000 A 
ATOM     10  C   UNL     1     103.098 129.325  84.660  0.00  0.00    +0.000 C 
ENDBRANCH   1   5
BRANCH   2  11
ATOM     11  C   UNL     1     103.135 125.891  81.759  0.00  0.00    +0.000 A 
ATOM     12  C   UNL     1     103.439 124.886  82.684  0.00  0.00    +0.000 A 
ATOM     13  C   UNL     1     104.192 123.779  82.286  0.00  0.00    +0.000 A 
ATOM     14  C   UNL     1     104.637 123.683  80.967  0.00  0.00    +0.000 A 
ATOM     15  C   UNL     1     104.335 124.684  80.043  0.00  0.00    +0.000 A 
ATOM     16  C   UNL     1     103.582 125.792  80.438  0.00  0.00    +0.000 A 
ATOM     17 CL   UNL     1     105.564 122.320  80.476  0.00  0.00    +0.000 Cl
ENDBRANCH   2  11
TORSDOF 2
ENDMDL
