MODEL 1
REMARK VINA RESULT:      -5.1      0.000      0.000
REMARK  Name = *****
REMARK  2 active torsions:
REMARK  status: ('A' for Active; 'I' for Inactive)
REMARK    1  A    between atoms: C_3  and  N_9
REMARK    2  A    between atoms: C_10  and  C_11
REMARK                            x       y       z     vdW  Elec       q    Type
REMARK                         _______ _______ _______ _____ _____    ______ ____
ROOT
ATOM      1  N   UNL     1     101.664 125.997  82.199  0.00  0.00    +0.000 NA
ATOM      2  C   UNL     1     102.846 126.276  81.751  0.00  0.00    +0.000 C 
ENDROOT
BRANCH   1   5
ATOM      3  C   UNL     1     100.852 129.204  83.849  0.00  0.00    +0.000 A 
ATOM      4  C   UNL     1     101.563 128.108  83.351  0.00  0.00    +0.000 A 
ATOM      5  C   UNL     1     100.895 127.060  82.708  0.00  0.00    +0.000 A 
ATOM      6  C   UNL     1      99.501 127.151  82.554  0.00  0.00    +0.000 A 
ATOM      7  C   UNL     1      98.784 128.237  83.045  0.00  0.00    +0.000 A 
ATOM      8  C   UNL     1      99.470 129.255  83.691  0.00  0.00    +0.000 A 
ATOM      9  F   UNL     1      98.793 130.307  84.169  0.00  0.00    +0.000 F 
ATOM     10  F   UNL     1      98.828 126.171  81.930  0.00  0.00    +0.000 F 
ENDBRANCH   1   5
BRANCH   2  11
ATOM     11  C   UNL     1     103.735 125.227  81.215  0.00  0.00    +0.000 A 
ATOM     12  C   UNL     1     104.406 125.407  80.003  0.00  0.00    +0.000 A 
ATOM     13  C   UNL     1     105.235 124.397  79.529  0.00  0.00    +0.000 A 
ATOM     14  C   UNL     1     105.408 123.216  80.239  0.00  0.00    +0.000 A 
ATOM     15  C   UNL     1     104.734 123.053  81.443  0.00  0.00    +0.000 A 
ATOM     16  C   UNL     1     103.896 124.046  81.941  0.00  0.00    +0.000 A 
ATOM     17  F   UNL     1     104.892 121.919  82.136  0.00  0.00    +0.000 F 
ATOM     18  F   UNL     1     105.881 124.564  78.368  0.00  0.00    +0.000 F 
ENDBRANCH   2  11
TORSDOF 2
ENDMDL
