MODEL 1
REMARK VINA RESULT:      -4.1      0.000      0.000
REMARK  Name = *****
REMARK  3 active torsions:
REMARK  status: ('A' for Active; 'I' for Inactive)
REMARK    1  A    between atoms: C_5  and  C_8
REMARK    2  A    between atoms: C_8  and  C_9
REMARK    3  A    between atoms: C_9  and  C_11
REMARK                            x       y       z     vdW  Elec       q    Type
REMARK                         _______ _______ _______ _____ _____    ______ ____
ROOT
ATOM      1  C   UNL     1     103.408 127.360  82.769  0.00  0.00    +0.000 C 
ENDROOT
BRANCH   1   6
ATOM      2  C   UNL     1      98.618 128.205  83.131  0.00  0.00    +0.000 C 
ATOM      3  C   UNL     1      99.362 129.535  83.300  0.00  0.00    +0.000 C 
ATOM      4  C   UNL     1     100.288 129.582  84.516  0.00  0.00    +0.000 C 
ATOM      5  S   UNL     1     102.054 129.226  84.227  0.00  0.00    +0.000 S 
ATOM      6  C   UNL     1     101.989 127.911  82.957  0.00  0.00    +0.000 C 
ATOM      7  S   UNL     1     100.869 126.565  83.479  0.00  0.00    +0.000 S 
ATOM      8  C   UNL     1      99.406 127.050  82.521  0.00  0.00    +0.000 C 
ENDBRANCH   1   6
BRANCH   1   9
ATOM      9  C   UNL     1     103.519 126.528  81.503  0.00  0.00    +0.000 C 
ATOM     10  O   UNL     1     103.300 127.003  80.389  0.00  0.00    +0.000 OA
BRANCH   9  11
ATOM     11  C   UNL     1     103.956 125.105  81.612  0.00  0.00    +0.000 A 
ATOM     12  C   UNL     1     103.983 124.422  82.834  0.00  0.00    +0.000 A 
ATOM     13  C   UNL     1     104.408 123.092  82.883  0.00  0.00    +0.000 A 
ATOM     14  C   UNL     1     104.813 122.440  81.719  0.00  0.00    +0.000 A 
ATOM     15  C   UNL     1     104.796 123.117  80.501  0.00  0.00    +0.000 A 
ATOM     16  C   UNL     1     104.372 124.446  80.446  0.00  0.00    +0.000 A 
ENDBRANCH   9  11
ENDBRANCH   1   9
TORSDOF 3
ENDMDL
