MODEL 1
REMARK VINA RESULT:      -4.2      0.000      0.000
REMARK  Name = *****
REMARK  3 active torsions:
REMARK  status: ('A' for Active; 'I' for Inactive)
REMARK    1  A    between atoms: C_4  and  C_7
REMARK    2  A    between atoms: C_7  and  S_8
REMARK    3  A    between atoms: S_8  and  C_9
REMARK                            x       y       z     vdW  Elec       q    Type
REMARK                         _______ _______ _______ _____ _____    ______ ____
ROOT
ATOM      1  S   UNL     1     103.001 127.211  83.625  0.00  0.00    +0.000 S 
ENDROOT
BRANCH   1   2
ATOM      2  C   UNL     1     101.289 127.653  83.349  0.00  0.00    +0.000 A 
ATOM      3  C   UNL     1     100.493 126.723  82.664  0.00  0.00    +0.000 A 
ATOM      4  C   UNL     1      99.146 126.986  82.407  0.00  0.00    +0.000 A 
ATOM      5  C   UNL     1      98.579 128.187  82.827  0.00  0.00    +0.000 A 
ATOM      6  C   UNL     1      99.359 129.126  83.500  0.00  0.00    +0.000 A 
ATOM      7  C   UNL     1     100.710 128.866  83.759  0.00  0.00    +0.000 A 
ATOM      8 BR   UNL     1     101.689 130.221  84.667  0.00  0.00    +0.000 Br
ENDBRANCH   1   2
BRANCH   1   9
ATOM      9  C   UNL     1     102.813 125.400  83.682  0.00  0.00    +0.000 C 
BRANCH   9  13
ATOM     10  C   UNL     1     104.938 123.475  80.460  0.00  0.00    +0.000 A 
ATOM     11  C   UNL     1     104.231 124.652  80.223  0.00  0.00    +0.000 A 
ATOM     12  C   UNL     1     103.544 125.275  81.266  0.00  0.00    +0.000 A 
ATOM     13  C   UNL     1     103.563 124.730  82.559  0.00  0.00    +0.000 A 
ATOM     14  C   UNL     1     104.270 123.539  82.781  0.00  0.00    +0.000 A 
ATOM     15  C   UNL     1     104.957 122.918  81.737  0.00  0.00    +0.000 A 
ENDBRANCH   9  13
ENDBRANCH   1   9
TORSDOF 3
ENDMDL
