MODEL 1
REMARK VINA RESULT:      -4.7      0.000      0.000
REMARK  Name = *****
REMARK  3 active torsions:
REMARK  status: ('A' for Active; 'I' for Inactive)
REMARK    1  A    between atoms: C_1  and  C_2
REMARK    2  A    between atoms: C_7  and  C_8
REMARK    3  A    between atoms: N_9  and  C_10
REMARK                            x       y       z     vdW  Elec       q    Type
REMARK                         _______ _______ _______ _____ _____    ______ ____
ROOT
ATOM      1  C   UNL     1     102.079 126.012  82.497  0.00  0.00    +0.000 C 
ATOM      2  N   UNL     1     102.710 125.963  81.364  0.00  0.00    +0.000 NA
ENDROOT
BRANCH   1   9
ATOM      3  C   UNL     1     102.724 128.610  83.821  0.00  0.00    +0.000 C 
ATOM      4  C   UNL     1     101.331 128.244  83.391  0.00  0.00    +0.000 A 
ATOM      5  C   UNL     1     100.289 129.160  83.620  0.00  0.00    +0.000 A 
ATOM      6  C   UNL     1      98.979 128.865  83.240  0.00  0.00    +0.000 A 
ATOM      7  C   UNL     1      98.686 127.651  82.626  0.00  0.00    +0.000 A 
ATOM      8  C   UNL     1      99.706 126.730  82.390  0.00  0.00    +0.000 A 
ATOM      9  C   UNL     1     101.025 127.019  82.768  0.00  0.00    +0.000 A 
ENDBRANCH   1   9
BRANCH   2  10
ATOM     10  C   UNL     1     103.680 124.961  81.244  0.00  0.00    +0.000 A 
ATOM     11  C   UNL     1     104.404 124.813  80.058  0.00  0.00    +0.000 A 
ATOM     12  C   UNL     1     105.384 123.823  79.945  0.00  0.00    +0.000 A 
ATOM     13  C   UNL     1     105.646 122.987  81.029  0.00  0.00    +0.000 A 
ATOM     14  C   UNL     1     104.943 123.135  82.222  0.00  0.00    +0.000 A 
ATOM     15  C   UNL     1     103.963 124.127  82.329  0.00  0.00    +0.000 A 
ATOM     16 CL   UNL     1     106.852 121.767  80.894  0.00  0.00    +0.000 Cl
ENDBRANCH   2  10
TORSDOF 2
ENDMDL
