MODEL 1
REMARK VINA RESULT:      -4.8      0.000      0.000
REMARK  Name = *****
REMARK  4 active torsions:
REMARK  status: ('A' for Active; 'I' for Inactive)
REMARK    1  A    between atoms: C_5  and  O_7
REMARK    2  A    between atoms: O_7  and  C_8
REMARK    3  A    between atoms: C_8  and  C_10
REMARK    4  A    between atoms: C_10  and  C_11
REMARK                            x       y       z     vdW  Elec       q    Type
REMARK                         _______ _______ _______ _____ _____    ______ ____
ROOT
ATOM      1  C   UNL     1     102.890 125.298  83.249  0.00  0.00    +0.000 C 
ATOM      2  O   UNL     1     102.507 125.011  84.377  0.00  0.00    +0.000 OA
ENDROOT
BRANCH   1   3
ATOM      3  O   UNL     1     104.169 125.114  82.731  0.00  0.00    +0.000 OA
BRANCH   3   8
ATOM      4  C   UNL     1     104.629 121.474  82.909  0.00  0.00    +0.000 A 
ATOM      5  C   UNL     1     104.758 121.155  81.552  0.00  0.00    +0.000 A 
ATOM      6  C   UNL     1     104.694 122.161  80.585  0.00  0.00    +0.000 A 
ATOM      7  C   UNL     1     104.507 123.480  80.981  0.00  0.00    +0.000 A 
ATOM      8  C   UNL     1     104.397 123.798  82.333  0.00  0.00    +0.000 A 
ATOM      9  C   UNL     1     104.440 122.800  83.305  0.00  0.00    +0.000 A 
ATOM     10  F   UNL     1     104.420 124.444  80.051  0.00  0.00    +0.000 F 
ENDBRANCH   3   8
ENDBRANCH   1   3
BRANCH   1  11
ATOM     11  C   UNL     1     101.998 125.873  82.174  0.00  0.00    +0.000 C 
BRANCH  11  12
ATOM     12  C   UNL     1     101.152 127.016  82.677  0.00  0.00    +0.000 A 
ATOM     13  C   UNL     1      99.756 126.976  82.532  0.00  0.00    +0.000 A 
ATOM     14  C   UNL     1      98.970 128.038  82.979  0.00  0.00    +0.000 A 
ATOM     15  C   UNL     1      99.578 129.140  83.568  0.00  0.00    +0.000 A 
ATOM     16  C   UNL     1     100.959 129.201  83.714  0.00  0.00    +0.000 A 
ATOM     17  C   UNL     1     101.748 128.141  83.267  0.00  0.00    +0.000 A 
ATOM     18  F   UNL     1      98.824 130.160  83.996  0.00  0.00    +0.000 F 
ENDBRANCH  11  12
ENDBRANCH   1  11
TORSDOF 4
ENDMDL
