MODEL 1
REMARK VINA RESULT:      -4.5      0.000      0.000
REMARK  Name = *****
REMARK  3 active torsions:
REMARK  status: ('A' for Active; 'I' for Inactive)
REMARK    1  A    between atoms: C_2  and  C_9
REMARK    2  A    between atoms: C_9  and  C_10
REMARK    3  A    between atoms: C_10  and  C_11
REMARK                            x       y       z     vdW  Elec       q    Type
REMARK                         _______ _______ _______ _____ _____    ______ ____
ROOT
ATOM      1  C   UNL     1     103.776 127.896  82.407  0.00  0.00    +0.000 C 
ENDROOT
BRANCH   1   3
ATOM      2  C   UNL     1     105.740 126.600  81.235  0.00  0.00    +0.000 C 
ATOM      3  C   UNL     1     104.334 126.573  81.882  0.00  0.00    +0.000 C 
ATOM      4  C   UNL     1     103.791 126.125  80.493  0.00  0.00    +0.000 C 
ATOM      5  C   UNL     1     105.225 125.562  80.209  0.00  0.00    +0.000 C 
ATOM      6  F   UNL     1     105.698 125.708  78.950  0.00  0.00    +0.000 F 
ATOM      7  F   UNL     1     105.438 124.270  80.557  0.00  0.00    +0.000 F 
ATOM      8  F   UNL     1     102.780 125.226  80.532  0.00  0.00    +0.000 F 
ATOM      9  F   UNL     1     103.382 127.132  79.681  0.00  0.00    +0.000 F 
ENDBRANCH   1   3
BRANCH   1  10
ATOM     10  C   UNL     1     102.881 127.691  83.636  0.00  0.00    +0.000 C 
ATOM     11 BR   UNL     1     103.129 125.881  84.356  0.00  0.00    +0.000 Br
BRANCH  10  12
ATOM     12  C   UNL     1     101.405 127.875  83.363  0.00  0.00    +0.000 A 
ATOM     13  C   UNL     1     100.685 126.851  82.725  0.00  0.00    +0.000 A 
ATOM     14  C   UNL     1      99.327 127.006  82.464  0.00  0.00    +0.000 A 
ATOM     15  C   UNL     1      98.655 128.168  82.820  0.00  0.00    +0.000 A 
ATOM     16  C   UNL     1      99.354 129.196  83.445  0.00  0.00    +0.000 A 
ATOM     17  C   UNL     1     100.720 129.052  83.713  0.00  0.00    +0.000 A 
ATOM     18  F   UNL     1      98.657 126.017  81.858  0.00  0.00    +0.000 F 
ENDBRANCH  10  12
ENDBRANCH   1  10
TORSDOF 3
ENDMDL
