MODEL 1
REMARK VINA RESULT:      -4.0      0.000      0.000
REMARK  Name = *****
REMARK  2 active torsions:
REMARK  status: ('A' for Active; 'I' for Inactive)
REMARK    1  A    between atoms: C_4  and  C_6
REMARK    2  A    between atoms: C_7  and  C_8
REMARK                            x       y       z     vdW  Elec       q    Type
REMARK                         _______ _______ _______ _____ _____    ______ ____
ROOT
ATOM      1  C   UNL     1     102.513 126.499  82.054  0.00  0.00    +0.000 C 
ATOM      2  C   UNL     1     101.716 126.157  83.078  0.00  0.00    +0.000 C 
ENDROOT
BRANCH   1   6
ATOM      3  C   UNL     1     104.432 123.405  81.657  0.00  0.00    +0.000 C 
ATOM      4  C   UNL     1     104.747 124.067  80.325  0.00  0.00    +0.000 C 
ATOM      5  C   UNL     1     103.751 125.214  80.270  0.00  0.00    +0.000 C 
ATOM      6  C   UNL     1     103.778 125.770  81.697  0.00  0.00    +0.000 C 
ATOM      7  C   UNL     1     104.041 124.548  82.593  0.00  0.00    +0.000 C 
ENDBRANCH   1   6
BRANCH   2   8
ATOM      8  C   UNL     1     100.452 126.887  83.429  0.00  0.00    +0.000 C 
ATOM      9  C   UNL     1      99.361 126.738  82.369  0.00  0.00    +0.000 C 
ATOM     10  C   UNL     1      98.395 127.880  82.669  0.00  0.00    +0.000 C 
ATOM     11  C   UNL     1      99.214 128.950  83.392  0.00  0.00    +0.000 C 
ATOM     12  C   UNL     1     100.634 128.402  83.493  0.00  0.00    +0.000 C 
ENDBRANCH   2   8
TORSDOF 2
ENDMDL
