REMARK  Name = *****
REMARK  2 active torsions:
REMARK  status: ('A' for Active; 'I' for Inactive)
REMARK    1  A    between atoms: N_9  and  C_10
REMARK    2  A    between atoms: C_10  and  C_11
REMARK                            x       y       z     vdW  Elec       q    Type
REMARK                         _______ _______ _______ _____ _____    ______ ____
ROOT
ATOM      1  C   UNL     1      -0.380  -1.211  -2.815  0.00  0.00    +0.000 A 
ATOM      2  C   UNL     1       0.145  -0.002  -3.279  0.00  0.00    +0.000 A 
ATOM      3  C   UNL     1       0.774   0.900  -2.412  0.00  0.00    +0.000 A 
ATOM      4  C   UNL     1       0.849   0.529  -1.066  0.00  0.00    +0.000 A 
ATOM      5  C   UNL     1       0.334  -0.668  -0.580  0.00  0.00    +0.000 A 
ATOM      6  C   UNL     1      -0.293  -1.559  -1.461  0.00  0.00    +0.000 A 
ATOM      7  N   UNL     1       0.558  -0.755   0.768  0.00  0.00    +0.000 NA
ATOM      8  N   UNL     1       1.198   0.342   1.151  0.00  0.00    +0.000 NA
ATOM      9  N   UNL     1       1.364   1.117   0.060  0.00  0.00    +0.000 N 
ENDROOT
BRANCH   9  10
ATOM     10  C   UNL     1       2.062   2.384   0.174  0.00  0.00    +0.000 C 
BRANCH  10  11
ATOM     11  C   UNL     1       1.102   3.549   0.256  0.00  0.00    +0.000 A 
ATOM     12  C   UNL     1       1.040   4.498  -0.776  0.00  0.00    +0.000 A 
ATOM     13  C   UNL     1       0.151   5.578  -0.702  0.00  0.00    +0.000 A 
ATOM     14  C   UNL     1      -0.682   5.722   0.411  0.00  0.00    +0.000 A 
ATOM     15  C   UNL     1      -0.624   4.784   1.444  0.00  0.00    +0.000 A 
ATOM     16  C   UNL     1       0.263   3.707   1.369  0.00  0.00    +0.000 A 
ATOM     17 CL   UNL     1      -1.800   7.029   0.571  0.00  0.00    +0.000 Cl
ATOM     18 CL   UNL     1       0.140   6.696  -2.020  0.00  0.00    +0.000 Cl
ENDBRANCH  10  11
ENDBRANCH   9  10
TORSDOF 2
