MODEL 1
REMARK VINA RESULT:      -4.7      0.000      0.000
REMARK  Name = *****
REMARK  5 active torsions:
REMARK  status: ('A' for Active; 'I' for Inactive)
REMARK    1  A    between atoms: C_1  and  C_2
REMARK    2  A    between atoms: C_5  and  C_8
REMARK    3  A    between atoms: C_8  and  O_9
REMARK    4  A    between atoms: O_9  and  C_10
REMARK    5  A    between atoms: C_10  and  C_12
REMARK                            x       y       z     vdW  Elec       q    Type
REMARK                         _______ _______ _______ _____ _____    ______ ____
ROOT
ATOM      1  O   UNL     1     100.402 126.759  83.327  0.00  0.00    +0.000 OA
ENDROOT
BRANCH   1   2
ATOM      2  C   UNL     1      99.282 127.413  82.941  0.00  0.00    +0.000 C 
ATOM      3  O   UNL     1      98.512 127.071  82.058  0.00  0.00    +0.000 OA
BRANCH   2   4
ATOM      4  C   UNL     1      99.085 128.634  83.770  0.00  0.00    +0.000 A 
ATOM      5  C   UNL     1      98.396 128.507  84.984  0.00  0.00    +0.000 A 
ATOM      6  C   UNL     1      98.183 129.625  85.793  0.00  0.00    +0.000 A 
ATOM      7  C   UNL     1      98.653 130.874  85.394  0.00  0.00    +0.000 A 
ATOM      8  C   UNL     1      99.335 131.011  84.184  0.00  0.00    +0.000 A 
ATOM      9  C   UNL     1      99.552 129.895  83.372  0.00  0.00    +0.000 A 
ENDBRANCH   2   4
ENDBRANCH   1   2
BRANCH   1  10
ATOM     10  C   UNL     1     101.230 126.259  82.271  0.00  0.00    +0.000 C 
BRANCH  10  15
ATOM     11  C   UNL     1     105.734 129.874  81.535  0.00  0.00    +0.000 C 
ATOM     12  C   UNL     1     104.594 128.923  81.743  0.00  0.00    +0.000 A 
ATOM     13  C   UNL     1     103.869 128.927  82.939  0.00  0.00    +0.000 A 
ATOM     14  C   UNL     1     102.787 128.061  83.115  0.00  0.00    +0.000 A 
ATOM     15  C   UNL     1     102.411 127.176  82.096  0.00  0.00    +0.000 A 
ATOM     16  C   UNL     1     103.121 127.193  80.888  0.00  0.00    +0.000 A 
ATOM     17  C   UNL     1     104.202 128.059  80.714  0.00  0.00    +0.000 A 
ENDBRANCH  10  15
ENDBRANCH   1  10
TORSDOF 4
ENDMDL
