REMARK  Name = *****
REMARK  2 active torsions:
REMARK  status: ('A' for Active; 'I' for Inactive)
REMARK    1  A    between atoms: C_1  and  C_2
REMARK    2  A    between atoms: C_9  and  C_11
REMARK                            x       y       z     vdW  Elec       q    Type
REMARK                         _______ _______ _______ _____ _____    ______ ____
ROOT
ATOM      1  C   UNL     1       0.945  -0.052   0.042  0.00  0.00    +0.000 C 
ATOM      2  C   UNL     1       2.447  -0.080   0.069  0.00  0.00    +0.000 A 
ATOM      3  C   UNL     1       3.134  -1.310   0.053  0.00  0.00    +0.000 A 
ATOM      4  C   UNL     1       4.535  -1.294   0.076  0.00  0.00    +0.000 A 
ATOM      5  C   UNL     1       5.191  -0.076   0.111  0.00  0.00    +0.000 A 
ATOM      6  C   UNL     1       4.563   1.162   0.127  0.00  0.00    +0.000 A 
ATOM      7  C   UNL     1       3.162   1.131   0.104  0.00  0.00    +0.000 A 
ATOM      8  O   UNL     1       6.532  -0.324   0.126  0.00  0.00    +0.000 OA
ATOM      9  C   UNL     1       6.617  -1.694   0.098  0.00  0.00    +0.000 A 
ATOM     10  N   UNL     1       5.451  -2.316   0.068  0.00  0.00    +0.000 NA
ENDROOT
BRANCH   9  11
ATOM     11  C   UNL     1       7.961  -2.268   0.104  0.00  0.00    +0.000 A 
ATOM     12  C   UNL     1       9.110  -1.465   0.136  0.00  0.00    +0.000 A 
ATOM     13  C   UNL     1      10.377  -2.050   0.139  0.00  0.00    +0.000 A 
ATOM     14  C   UNL     1      10.520  -3.436   0.110  0.00  0.00    +0.000 A 
ATOM     15  C   UNL     1       9.387  -4.245   0.078  0.00  0.00    +0.000 A 
ATOM     16  C   UNL     1       8.117  -3.664   0.075  0.00  0.00    +0.000 A 
ATOM     17 CL   UNL     1      11.778  -1.051   0.179  0.00  0.00    +0.000 Cl
ENDBRANCH   9  11
TORSDOF 1
