MODEL 1
REMARK VINA RESULT:      -4.5      0.000      0.000
REMARK  Name = *****
REMARK  4 active torsions:
REMARK  status: ('A' for Active; 'I' for Inactive)
REMARK    1  A    between atoms: C_1  and  O_2
REMARK    2  A    between atoms: O_2  and  C_3
REMARK    3  A    between atoms: C_6  and  C_9
REMARK    4  A    between atoms: C_10  and  C_11
REMARK                            x       y       z     vdW  Elec       q    Type
REMARK                         _______ _______ _______ _____ _____    ______ ____
ROOT
ATOM      1  C   UNL     1     102.477 126.128  81.748  0.00  0.00    +0.000 C 
ATOM      2  C   UNL     1     103.239 125.397  81.175  0.00  0.00    +0.000 C 
ENDROOT
BRANCH   2   3
ATOM      3  C   UNL     1     104.168 124.498  80.470  0.00  0.00    +0.000 C 
ATOM      4  C   UNL     1     105.565 125.158  80.249  0.00  0.00    +0.000 C 
ATOM      5  C   UNL     1     106.526 124.177  80.957  0.00  0.00    +0.000 C 
ATOM      6  C   UNL     1     105.692 123.770  82.174  0.00  0.00    +0.000 C 
ATOM      7  C   UNL     1     104.525 123.250  81.323  0.00  0.00    +0.000 C 
ATOM      8  C   UNL     1     105.301 122.302  80.432  0.00  0.00    +0.000 C 
ATOM      9  C   UNL     1     106.498 122.865  80.206  0.00  0.00    +0.000 C 
ENDBRANCH   2   3
BRANCH   1  13
ATOM     10  C   UNL     1      99.776 128.686  83.771  0.00  0.00    +0.000 A 
ATOM     11  C   UNL     1      99.302 127.575  83.072  0.00  0.00    +0.000 A 
ATOM     12  C   UNL     1     100.196 126.731  82.402  0.00  0.00    +0.000 A 
ATOM     13  C   UNL     1     101.567 126.994  82.430  0.00  0.00    +0.000 A 
ATOM     14  C   UNL     1     102.044 128.104  83.125  0.00  0.00    +0.000 A 
ATOM     15  C   UNL     1     101.149 128.945  83.793  0.00  0.00    +0.000 A 
BRANCH  10  17
ATOM     16  C   UNL     1      99.309 130.962  84.272  0.00  0.00    +0.000 C 
ATOM     17  O   UNL     1      99.014 129.584  84.465  0.00  0.00    +0.000 OA
ENDBRANCH  10  17
ENDBRANCH   1  13
TORSDOF 3
ENDMDL
