MODEL 1
REMARK VINA RESULT:      -4.5      0.000      0.000
REMARK  Name = *****
REMARK  3 active torsions:
REMARK  status: ('A' for Active; 'I' for Inactive)
REMARK    1  A    between atoms: C_3  and  N_8
REMARK    2  A    between atoms: N_8  and  O_18
REMARK    3  A    between atoms: C_9  and  C_11
REMARK                            x       y       z     vdW  Elec       q    Type
REMARK                         _______ _______ _______ _____ _____    ______ ____
ROOT
ATOM      1  N   UNL     1      88.415  64.099  87.952  0.00  0.00    +0.000 N 
ATOM      2  C   UNL     1      87.040  63.871  87.946  0.00  0.00    +0.000 C 
ATOM      3  O   UNL     1      86.228  64.272  87.117  0.00  0.00    +0.000 OA
ENDROOT
BRANCH   1   6
ATOM      4  C   UNL     1      90.615  64.834  84.997  0.00  0.00    +0.000 A 
ATOM      5  C   UNL     1      89.887  64.127  85.962  0.00  0.00    +0.000 A 
ATOM      6  C   UNL     1      89.175  64.796  86.969  0.00  0.00    +0.000 A 
ATOM      7  C   UNL     1      89.207  66.200  86.971  0.00  0.00    +0.000 A 
ATOM      8  C   UNL     1      89.933  66.902  86.006  0.00  0.00    +0.000 A 
ATOM      9  C   UNL     1      90.638  66.225  85.018  0.00  0.00    +0.000 A 
ATOM     10 CL   UNL     1      89.953  68.623  86.039  0.00  0.00    +0.000 Cl
ENDBRANCH   1   6
BRANCH   2  11
ATOM     11  C   UNL     1      86.484  63.061  89.057  0.00  0.00    +0.000 A 
ATOM     12  C   UNL     1      86.163  63.653  90.285  0.00  0.00    +0.000 A 
ATOM     13  C   UNL     1      85.611  62.873  91.304  0.00  0.00    +0.000 A 
ATOM     14  C   UNL     1      85.369  61.516  91.085  0.00  0.00    +0.000 A 
ATOM     15  C   UNL     1      85.666  60.929  89.855  0.00  0.00    +0.000 A 
ATOM     16  C   UNL     1      86.219  61.706  88.833  0.00  0.00    +0.000 A 
ATOM     17 BR   UNL     1      84.619  60.465  92.466  0.00  0.00    +0.000 Br
ENDBRANCH   2  11
BRANCH   1  18
ATOM     18  O   UNL     1      89.180  63.344  88.874  0.00  0.00    +0.000 OA
ATOM     19  H   UNL     1      88.634  62.633  89.242  0.00  0.00    +0.000 HD
ENDBRANCH   1  18
TORSDOF 3
ENDMDL
