MODEL 1
REMARK VINA RESULT:      -4.8      0.000      0.000
REMARK  Name = *****
REMARK  7 active torsions:
REMARK  status: ('A' for Active; 'I' for Inactive)
REMARK    1  A    between atoms: C_1  and  C_2
REMARK    2  A    between atoms: C_3  and  C_9
REMARK    3  A    between atoms: C_4  and  C_8
REMARK    4  A    between atoms: C_9  and  C_10
REMARK    5  A    between atoms: C_9  and  C_17
REMARK    6  A    between atoms: C_10  and  C_11
REMARK    7  A    between atoms: C_17  and  C_19
REMARK                            x       y       z     vdW  Elec       q    Type
REMARK                         _______ _______ _______ _____ _____    ______ ____
ROOT
ATOM      1  C   UNL     1      88.250  70.218  85.659  0.00  0.00    +0.000 C 
ENDROOT
BRANCH   1   4
ATOM      2  C   UNL     1      85.853  71.511  84.408  0.00  0.00    +0.000 C 
ATOM      3  C   UNL     1      86.035  71.473  85.905  0.00  0.00    +0.000 A 
ATOM      4  C   UNL     1      87.166  70.871  86.531  0.00  0.00    +0.000 A 
ATOM      5  C   UNL     1      87.244  70.895  87.950  0.00  0.00    +0.000 A 
ATOM      6  C   UNL     1      86.225  71.523  88.693  0.00  0.00    +0.000 A 
ATOM      7  C   UNL     1      85.128  72.100  88.069  0.00  0.00    +0.000 A 
ATOM      8  C   UNL     1      85.033  72.074  86.686  0.00  0.00    +0.000 A 
ATOM      9  C   UNL     1      88.399  70.348  88.752  0.00  0.00    +0.000 C 
ENDBRANCH   1   4
BRANCH   1  10
ATOM     10  C   UNL     1      88.341  68.704  85.879  0.00  0.00    +0.000 C 
ATOM     11  O   UNL     1      87.346  67.977  85.916  0.00  0.00    +0.000 OA
ATOM     12  C   UNL     1      89.715  68.120  86.110  0.00  0.00    +0.000 C 
ENDBRANCH   1  10
BRANCH   1  13
ATOM     13  C   UNL     1      89.636  70.894  85.751  0.00  0.00    +0.000 C 
BRANCH  13  14
ATOM     14  C   UNL     1      90.010  71.663  84.503  0.00  0.00    +0.000 A 
ATOM     15  C   UNL     1      91.134  71.297  83.749  0.00  0.00    +0.000 A 
ATOM     16  C   UNL     1      91.491  72.024  82.613  0.00  0.00    +0.000 A 
ATOM     17  C   UNL     1      90.728  73.122  82.218  0.00  0.00    +0.000 A 
ATOM     18  C   UNL     1      89.609  73.494  82.959  0.00  0.00    +0.000 A 
ATOM     19  C   UNL     1      89.252  72.770  84.098  0.00  0.00    +0.000 A 
ENDBRANCH  13  14
ENDBRANCH   1  13
TORSDOF 4
ENDMDL
