MODEL 1
REMARK VINA RESULT:      -4.8      0.000      0.000
REMARK  Name = *****
REMARK  3 active torsions:
REMARK  status: ('A' for Active; 'I' for Inactive)
REMARK    1  A    between atoms: C_1  and  C_2
REMARK    2  A    between atoms: C_7  and  C_8
REMARK    3  A    between atoms: C_9  and  C_10
REMARK                            x       y       z     vdW  Elec       q    Type
REMARK                         _______ _______ _______ _____ _____    ______ ____
ROOT
ATOM      1  C   UNL     1      90.052  67.877  86.470  0.00  0.00    +0.000 C 
ATOM      2  C   UNL     1      89.653  68.773  85.552  0.00  0.00    +0.000 C 
ENDROOT
BRANCH   2   3
ATOM      3  C   UNL     1      89.542  70.211  85.775  0.00  0.00    +0.000 C 
ATOM      4  C   UNL     1      88.695  70.811  86.875  0.00  0.00    +0.000 C 
ATOM      5  C   UNL     1      88.306  71.004  85.416  0.00  0.00    +0.000 C 
ATOM      6  C   UNL     1      86.838  70.550  85.380  0.00  0.00    +0.000 C 
ATOM      7  C   UNL     1      86.768  69.416  86.413  0.00  0.00    +0.000 C 
ATOM      8  C   UNL     1      87.403  70.276  87.514  0.00  0.00    +0.000 C 
ATOM      9  C   UNL     1      86.361  71.391  87.475  0.00  0.00    +0.000 C 
ATOM     10  C   UNL     1      86.018  71.556  86.183  0.00  0.00    +0.000 C 
ENDBRANCH   2   3
BRANCH   1  17
ATOM     11  C   UNL     1      88.016  65.980  87.484  0.00  0.00    +0.000 C 
ATOM     12  C   UNL     1      89.188  65.531  86.654  0.00  0.00    +0.000 A 
ATOM     13  C   UNL     1      89.322  64.167  86.339  0.00  0.00    +0.000 A 
ATOM     14  C   UNL     1      90.398  63.713  85.576  0.00  0.00    +0.000 A 
ATOM     15  C   UNL     1      91.353  64.613  85.114  0.00  0.00    +0.000 A 
ATOM     16  C   UNL     1      91.233  65.969  85.417  0.00  0.00    +0.000 A 
ATOM     17  C   UNL     1      90.159  66.440  86.189  0.00  0.00    +0.000 A 
ENDBRANCH   1  17
TORSDOF 2
ENDMDL
