MODEL 1
REMARK VINA RESULT:      -4.7      0.000      0.000
REMARK  Name = *****
REMARK  4 active torsions:
REMARK  status: ('A' for Active; 'I' for Inactive)
REMARK    1  A    between atoms: C_4  and  C_7
REMARK    2  A    between atoms: C_7  and  O_8
REMARK    3  A    between atoms: O_8  and  C_9
REMARK    4  A    between atoms: C_12  and  C_15
REMARK                            x       y       z     vdW  Elec       q    Type
REMARK                         _______ _______ _______ _____ _____    ______ ____
ROOT
ATOM      1  C   UNL     1     103.584 126.020  81.401  0.00  0.00    +0.000 A 
ATOM      2  C   UNL     1     103.591 125.140  82.487  0.00  0.00    +0.000 A 
ATOM      3  C   UNL     1     104.137 123.857  82.370  0.00  0.00    +0.000 A 
ATOM      4  C   UNL     1     104.685 123.437  81.153  0.00  0.00    +0.000 A 
ATOM      5  C   UNL     1     104.675 124.321  80.065  0.00  0.00    +0.000 A 
ATOM      6  C   UNL     1     104.128 125.605  80.187  0.00  0.00    +0.000 A 
ENDROOT
BRANCH   4   7
ATOM      7  C   UNL     1     105.282 122.072  80.976  0.00  0.00    +0.000 C 
ATOM      8  O   UNL     1     106.429 122.012  80.536  0.00  0.00    +0.000 OA
ATOM      9 CL   UNL     1     104.348 120.649  81.390  0.00  0.00    +0.000 Cl
ENDBRANCH   4   7
BRANCH   1  10
ATOM     10  O   UNL     1     103.020 127.238  81.659  0.00  0.00    +0.000 OA
BRANCH  10  11
ATOM     11  C   UNL     1     102.598 127.492  83.000  0.00  0.00    +0.000 C 
BRANCH  11  15
ATOM     12  C   UNL     1      98.322 128.092  82.993  0.00  0.00    +0.000 A 
ATOM     13  C   UNL     1      99.160 129.062  83.538  0.00  0.00    +0.000 A 
ATOM     14  C   UNL     1     100.542 128.865  83.548  0.00  0.00    +0.000 A 
ATOM     15  C   UNL     1     101.101 127.691  83.022  0.00  0.00    +0.000 A 
ATOM     16  C   UNL     1     100.247 126.727  82.467  0.00  0.00    +0.000 A 
ATOM     17  C   UNL     1      98.864 126.925  82.457  0.00  0.00    +0.000 A 
ENDBRANCH  11  15
ENDBRANCH  10  11
ENDBRANCH   1  10
TORSDOF 4
ENDMDL
