MODEL 1
REMARK VINA RESULT:      -4.4      0.000      0.000
REMARK  Name = *****
REMARK  3 active torsions:
REMARK  status: ('A' for Active; 'I' for Inactive)
REMARK    1  A    between atoms: C_5  and  O_6
REMARK    2  A    between atoms: O_6  and  C_7
REMARK    3  A    between atoms: C_7  and  C_8
REMARK                            x       y       z     vdW  Elec       q    Type
REMARK                         _______ _______ _______ _____ _____    ______ ____
ROOT
ATOM      1  C   UNL     1      97.765 120.594  81.249  0.00  0.00    +0.000 C 
ATOM      2  C   UNL     1      96.691 119.946  82.134  0.00  0.00    +0.000 C 
ATOM      3  C   UNL     1      96.229 118.776  81.228  0.00  0.00    +0.000 C 
ATOM      4  C   UNL     1      97.557 118.376  80.591  0.00  0.00    +0.000 C 
ATOM      5  C   UNL     1      97.749 117.420  79.681  0.00  0.00    +0.000 C 
ATOM      6  C   UNL     1      98.606 119.315  81.161  0.00  0.00    +0.000 C 
ATOM      7  C   UNL     1      98.740 119.026  82.639  0.00  0.00    +0.000 C 
ATOM      8  C   UNL     1      97.591 119.402  83.228  0.00  0.00    +0.000 C 
ENDROOT
BRANCH   5   9
ATOM      9  O   UNL     1      96.718 116.648  79.218  0.00  0.00    +0.000 OA
BRANCH   9  10
ATOM     10  C   UNL     1      96.981 116.074  77.934  0.00  0.00    +0.000 C 
BRANCH  10  11
ATOM     11  C   UNL     1      96.254 116.858  76.870  0.00  0.00    +0.000 A 
ATOM     12  C   UNL     1      95.086 117.571  77.181  0.00  0.00    +0.000 A 
ATOM     13  C   UNL     1      94.432 118.325  76.206  0.00  0.00    +0.000 A 
ATOM     14  C   UNL     1      94.940 118.379  74.909  0.00  0.00    +0.000 A 
ATOM     15  C   UNL     1      96.103 117.682  74.589  0.00  0.00    +0.000 A 
ATOM     16  C   UNL     1      96.760 116.928  75.564  0.00  0.00    +0.000 A 
ENDBRANCH  10  11
ENDBRANCH   9  10
ENDBRANCH   5   9
TORSDOF 3
ENDMDL
