MODEL 1
REMARK VINA RESULT:      -5.1      0.000      0.000
REMARK  Name = *****
REMARK  2 active torsions:
REMARK  status: ('A' for Active; 'I' for Inactive)
REMARK    1  A    between atoms: C_4  and  C_8
REMARK    2  A    between atoms: N_9  and  C_10
REMARK                            x       y       z     vdW  Elec       q    Type
REMARK                         _______ _______ _______ _____ _____    ______ ____
ROOT
ATOM      1  C   UNL     1     102.835 126.275  81.887  0.00  0.00    +0.000 C 
ATOM      2  N   UNL     1     101.579 126.024  82.085  0.00  0.00    +0.000 NA
ENDROOT
BRANCH   1   6
ATOM      3  C   UNL     1     105.463 123.280  80.369  0.00  0.00    +0.000 A 
ATOM      4  C   UNL     1     104.892 123.139  81.633  0.00  0.00    +0.000 A 
ATOM      5  C   UNL     1     104.034 124.128  82.114  0.00  0.00    +0.000 A 
ATOM      6  C   UNL     1     103.744 125.254  81.343  0.00  0.00    +0.000 A 
ATOM      7  C   UNL     1     104.316 125.397  80.076  0.00  0.00    +0.000 A 
ATOM      8  C   UNL     1     105.170 124.407  79.604  0.00  0.00    +0.000 A 
ATOM      9  F   UNL     1     105.722 124.537  78.391  0.00  0.00    +0.000 F 
ATOM     10  F   UNL     1     103.491 123.974  83.330  0.00  0.00    +0.000 F 
ENDBRANCH   1   6
BRANCH   2  11
ATOM     11  C   UNL     1     100.781 127.066  82.592  0.00  0.00    +0.000 A 
ATOM     12  C   UNL     1      99.377 127.076  82.516  0.00  0.00    +0.000 A 
ATOM     13  C   UNL     1      98.624 128.115  83.062  0.00  0.00    +0.000 A 
ATOM     14  C   UNL     1      99.274 129.165  83.708  0.00  0.00    +0.000 A 
ATOM     15  C   UNL     1     100.662 129.155  83.801  0.00  0.00    +0.000 A 
ATOM     16  C   UNL     1     101.415 128.118  83.257  0.00  0.00    +0.000 A 
ATOM     17  F   UNL     1     101.284 130.161  84.430  0.00  0.00    +0.000 F 
ATOM     18  F   UNL     1      98.729 126.073  81.903  0.00  0.00    +0.000 F 
ENDBRANCH   2  11
TORSDOF 2
ENDMDL
