MODEL 1
REMARK VINA RESULT:      -5.0      0.000      0.000
REMARK  Name = *****
REMARK  0 active torsions:
REMARK  status: ('A' for Active; 'I' for Inactive)
REMARK                            x       y       z     vdW  Elec       q    Type
REMARK                         _______ _______ _______ _____ _____    ______ ____
ROOT
ATOM      1  C   UNL     1      96.058 115.118  80.616  0.00  0.00    +0.000 C 
ATOM      2  C   UNL     1      95.545 116.542  80.966  0.00  0.00    +0.000 C 
ATOM      3  C   UNL     1      96.601 117.567  81.390  0.00  0.00    +0.000 A 
ATOM      4  C   UNL     1      96.519 118.159  82.659  0.00  0.00    +0.000 A 
ATOM      5  C   UNL     1      97.444 119.130  83.054  0.00  0.00    +0.000 A 
ATOM      6  C   UNL     1      98.461 119.529  82.186  0.00  0.00    +0.000 A 
ATOM      7  C   UNL     1      98.561 118.960  80.918  0.00  0.00    +0.000 A 
ATOM      8  C   UNL     1      97.637 117.992  80.523  0.00  0.00    +0.000 A 
ATOM      9  C   UNL     1      97.733 117.366  79.250  0.00  0.00    +0.000 C 
ATOM     10  C   UNL     1      97.422 116.510  78.473  0.00  0.00    +0.000 C 
ATOM     11  C   UNL     1      96.666 115.359  78.117  0.00  0.00    +0.000 A 
ATOM     12  C   UNL     1      96.591 114.929  76.793  0.00  0.00    +0.000 A 
ATOM     13  C   UNL     1      95.809 113.821  76.473  0.00  0.00    +0.000 A 
ATOM     14  C   UNL     1      95.106 113.149  77.473  0.00  0.00    +0.000 A 
ATOM     15  C   UNL     1      95.180 113.580  78.801  0.00  0.00    +0.000 A 
ATOM     16  C   UNL     1      95.956 114.695  79.147  0.00  0.00    +0.000 A 
ENDROOT
TORSDOF 0
ENDMDL
