MODEL 1
REMARK VINA RESULT:      -4.6      0.000      0.000
REMARK  Name = *****
REMARK  3 active torsions:
REMARK  status: ('A' for Active; 'I' for Inactive)
REMARK    1  A    between atoms: C_1  and  C_2
REMARK    2  A    between atoms: C_2  and  C_11
REMARK    3  A    between atoms: N_3  and  C_4
REMARK                            x       y       z     vdW  Elec       q    Type
REMARK                         _______ _______ _______ _____ _____    ______ ____
ROOT
ATOM      1  C   UNL     1     100.480 126.585  82.621  0.00  0.00    +0.000 C 
ATOM      2  C   UNL     1     101.539 127.601  83.003  0.00  0.00    +0.000 C 
ATOM      3  N   UNL     1     102.818 127.431  82.818  0.00  0.00    +0.000 NA
ENDROOT
BRANCH   3   4
ATOM      4  C   UNL     1     103.290 126.255  82.229  0.00  0.00    +0.000 A 
ATOM      5  C   UNL     1     103.494 126.187  80.847  0.00  0.00    +0.000 A 
ATOM      6  C   UNL     1     103.989 125.019  80.262  0.00  0.00    +0.000 A 
ATOM      7  C   UNL     1     104.296 123.921  81.065  0.00  0.00    +0.000 A 
ATOM      8  C   UNL     1     104.118 123.985  82.446  0.00  0.00    +0.000 A 
ATOM      9  C   UNL     1     103.621 125.155  83.025  0.00  0.00    +0.000 A 
ATOM     10 CL   UNL     1     104.906 122.481  80.347  0.00  0.00    +0.000 Cl
ENDBRANCH   3   4
BRANCH   2  11
ATOM     11  C   UNL     1     101.059 128.877  83.621  0.00  0.00    +0.000 C 
ATOM     12  C   UNL     1     101.954 129.648  84.262  0.00  0.00    +0.000 C 
ATOM     13  C   UNL     1     101.596 130.958  84.898  0.00  0.00    +0.000 C 
ATOM     14  C   UNL     1     100.086 131.191  84.997  0.00  0.00    +0.000 C 
ATOM     15  C   UNL     1      99.367 130.741  83.728  0.00  0.00    +0.000 C 
ATOM     16  C   UNL     1      99.616 129.255  83.452  0.00  0.00    +0.000 C 
ENDBRANCH   2  11
TORSDOF 2
ENDMDL
