MODEL 1
REMARK VINA RESULT:      -4.6      0.000      0.000
REMARK  Name = *****
REMARK  3 active torsions:
REMARK  status: ('A' for Active; 'I' for Inactive)
REMARK    1  A    between atoms: C_1  and  C_2
REMARK    2  A    between atoms: N_9  and  C_12
REMARK    3  A    between atoms: C_12  and  C_13
REMARK                            x       y       z     vdW  Elec       q    Type
REMARK                         _______ _______ _______ _____ _____    ______ ____
ROOT
ATOM      1  C   UNL     1      87.032  64.489  86.805  0.00  0.00    +0.000 C 
ATOM      2  C   UNL     1      88.316  65.149  86.402  0.00  0.00    +0.000 A 
ATOM      3  C   UNL     1      88.497  66.530  86.496  0.00  0.00    +0.000 A 
ATOM      4  C   UNL     1      89.707  67.125  86.140  0.00  0.00    +0.000 A 
ATOM      5  C   UNL     1      90.772  66.361  85.680  0.00  0.00    +0.000 A 
ATOM      6  C   UNL     1      90.608  64.981  85.572  0.00  0.00    +0.000 A 
ATOM      7  C   UNL     1      89.394  64.379  85.934  0.00  0.00    +0.000 A 
ATOM      8  C   UNL     1      89.715  68.601  86.380  0.00  0.00    +0.000 C 
ATOM      9  N   UNL     1      88.327  68.989  86.681  0.00  0.00    +0.000 NA
ATOM     10  S   UNL     1      87.275  67.726  87.047  0.00  0.00    +0.000 S 
ATOM     11  O   UNL     1      87.130  67.499  88.522  0.00  0.00    +0.000 OA
ENDROOT
BRANCH   9  12
ATOM     12  C   UNL     1      88.264  70.198  87.508  0.00  0.00    +0.000 C 
BRANCH  12  13
ATOM     13  C   UNL     1      86.972  70.973  87.350  0.00  0.00    +0.000 A 
ATOM     14  C   UNL     1      86.520  71.349  86.076  0.00  0.00    +0.000 A 
ATOM     15  C   UNL     1      85.331  72.066  85.929  0.00  0.00    +0.000 A 
ATOM     16  C   UNL     1      84.583  72.412  87.052  0.00  0.00    +0.000 A 
ATOM     17  C   UNL     1      85.020  72.042  88.322  0.00  0.00    +0.000 A 
ATOM     18  C   UNL     1      86.208  71.325  88.472  0.00  0.00    +0.000 A 
ENDBRANCH  12  13
ENDBRANCH   9  12
TORSDOF 2
ENDMDL
