MODEL 1
REMARK VINA RESULT:      -4.3      0.000      0.000
REMARK  Name = *****
REMARK  5 active torsions:
REMARK  status: ('A' for Active; 'I' for Inactive)
REMARK    1  A    between atoms: C_1  and  C_2
REMARK    2  A    between atoms: C_2  and  P_3
REMARK    3  A    between atoms: P_3  and  C_4
REMARK    4  A    between atoms: P_3  and  O_10
REMARK    5  A    between atoms: O_10  and  C_11
REMARK                            x       y       z     vdW  Elec       q    Type
REMARK                         _______ _______ _______ _____ _____    ______ ____
ROOT
ATOM      1  P   UNL     1     103.308 126.965  82.896  0.00  0.00    +0.000 P 
ENDROOT
BRANCH   1   2
ATOM      2  C   UNL     1     101.548 127.465  82.970  0.00  0.00    +0.000 A 
ATOM      3  C   UNL     1     101.141 128.681  83.535  0.00  0.00    +0.000 A 
ATOM      4  C   UNL     1      99.791 129.045  83.564  0.00  0.00    +0.000 A 
ATOM      5  C   UNL     1      98.827 128.199  83.020  0.00  0.00    +0.000 A 
ATOM      6  C   UNL     1      99.215 126.994  82.440  0.00  0.00    +0.000 A 
ATOM      7  C   UNL     1     100.565 126.632  82.410  0.00  0.00    +0.000 A 
ENDBRANCH   1   2
BRANCH   1   9
ATOM      8  C   UNL     1     103.922 127.969  80.355  0.00  0.00    +0.000 C 
ATOM      9  C   UNL     1     104.000 128.316  81.834  0.00  0.00    +0.000 C 
ENDBRANCH   1   9
BRANCH   1  10
ATOM     10  O   UNL     1     103.243 125.794  81.785  0.00  0.00    +0.000 OA
BRANCH  10  11
ATOM     11  C   UNL     1     103.850 124.566  81.852  0.00  0.00    +0.000 A 
ATOM     12  C   UNL     1     104.302 124.060  80.630  0.00  0.00    +0.000 A 
ATOM     13  C   UNL     1     104.934 122.815  80.568  0.00  0.00    +0.000 A 
ATOM     14  C   UNL     1     105.114 122.071  81.731  0.00  0.00    +0.000 A 
ATOM     15  C   UNL     1     104.665 122.569  82.953  0.00  0.00    +0.000 A 
ATOM     16  C   UNL     1     104.033 123.815  83.016  0.00  0.00    +0.000 A 
ENDBRANCH  10  11
ENDBRANCH   1  10
TORSDOF 4
ENDMDL
