MODEL 1
REMARK VINA RESULT:      -4.6      0.000      0.000
REMARK  Name = *****
REMARK  6 active torsions:
REMARK  status: ('A' for Active; 'I' for Inactive)
REMARK    1  A    between atoms: C_1  and  C_2
REMARK    2  A    between atoms: C_5  and  C_8
REMARK    3  A    between atoms: C_8  and  S_10
REMARK    4  A    between atoms: S_10  and  C_11
REMARK    5  A    between atoms: C_13  and  C_17
REMARK    6  A    between atoms: C_14  and  C_16
REMARK                            x       y       z     vdW  Elec       q    Type
REMARK                         _______ _______ _______ _____ _____    ______ ____
ROOT
ATOM      1  C   UNL     1      88.101  70.547  86.000  0.00  0.00    +0.000 C 
ATOM      2  O   UNL     1      88.324  70.326  84.814  0.00  0.00    +0.000 OA
ENDROOT
BRANCH   1   7
ATOM      3  C   UNL     1      83.062  73.072  87.429  0.00  0.00    +0.000 C 
ATOM      4  C   UNL     1      84.375  72.434  87.086  0.00  0.00    +0.000 A 
ATOM      5  C   UNL     1      85.210  71.933  88.090  0.00  0.00    +0.000 A 
ATOM      6  C   UNL     1      86.425  71.318  87.766  0.00  0.00    +0.000 A 
ATOM      7  C   UNL     1      86.821  71.190  86.427  0.00  0.00    +0.000 A 
ATOM      8  C   UNL     1      85.970  71.673  85.423  0.00  0.00    +0.000 A 
ATOM      9  C   UNL     1      84.758  72.288  85.749  0.00  0.00    +0.000 A 
ENDBRANCH   1   7
BRANCH   1  10
ATOM     10  S   UNL     1      89.261  70.043  87.220  0.00  0.00    +0.000 S 
BRANCH  10  11
ATOM     11  C   UNL     1      89.325  68.346  86.803  0.00  0.00    +0.000 A 
ATOM     12  N   UNL     1      90.380  67.788  86.254  0.00  0.00    +0.000 NA
ATOM     13  C   UNL     1      90.162  66.435  86.054  0.00  0.00    +0.000 A 
ATOM     14  C   UNL     1      88.929  65.977  86.485  0.00  0.00    +0.000 A 
ATOM     15  S   UNL     1      88.026  67.281  87.141  0.00  0.00    +0.000 S 
ATOM     16  C   UNL     1      88.349  64.608  86.451  0.00  0.00    +0.000 C 
ATOM     17  C   UNL     1      91.244  65.636  85.421  0.00  0.00    +0.000 C 
ENDBRANCH  10  11
ENDBRANCH   1  10
TORSDOF 3
ENDMDL
