REMARK  Name = *****
REMARK  4 active torsions:
REMARK  status: ('A' for Active; 'I' for Inactive)
REMARK    1  A    between atoms: C_4  and  C_7
REMARK    2  A    between atoms: C_7  and  O_8
REMARK    3  A    between atoms: O_8  and  C_9
REMARK    4  A    between atoms: C_9  and  C_11
REMARK                            x       y       z     vdW  Elec       q    Type
REMARK                         _______ _______ _______ _____ _____    ______ ____
ROOT
ATOM      1  C   UNL     1       3.857  -2.540  -1.094  0.00  0.00    +0.000 C 
ATOM      2  O   UNL     1       3.499  -2.486  -2.257  0.00  0.00    +0.000 OA
ENDROOT
BRANCH   1   3
ATOM      3  C   UNL     1       4.586  -3.680  -0.491  0.00  0.00    +0.000 A 
ATOM      4  C   UNL     1       5.351  -4.513  -1.312  0.00  0.00    +0.000 A 
ATOM      5  C   UNL     1       6.037  -5.604  -0.785  0.00  0.00    +0.000 A 
ATOM      6  C   UNL     1       5.954  -5.862   0.577  0.00  0.00    +0.000 A 
ATOM      7  C   UNL     1       5.198  -5.050   1.417  0.00  0.00    +0.000 A 
ATOM      8  C   UNL     1       4.511  -3.956   0.885  0.00  0.00    +0.000 A 
ATOM      9  F   UNL     1       6.612  -6.909   1.091  0.00  0.00    +0.000 F 
ATOM     10  F   UNL     1       5.466  -4.276  -2.626  0.00  0.00    +0.000 F 
ENDBRANCH   1   3
BRANCH   1  11
ATOM     11  O   UNL     1       3.663  -1.586  -0.149  0.00  0.00    +0.000 OA
BRANCH  11  12
ATOM     12  C   UNL     1       2.980  -0.391  -0.567  0.00  0.00    +0.000 C 
BRANCH  12  16
ATOM     13  C   UNL     1      -1.346  -0.002  -0.019  0.00  0.00    +0.000 C 
ATOM     14  C   UNL     1      -0.709  -1.357   0.268  0.00  0.00    +0.000 C 
ATOM     15  C   UNL     1       0.686  -1.468  -0.343  0.00  0.00    +0.000 C 
ATOM     16  C   UNL     1       1.601  -0.316   0.105  0.00  0.00    +0.000 C 
ATOM     17  C   UNL     1       0.945   1.043  -0.182  0.00  0.00    +0.000 C 
ATOM     18  C   UNL     1      -0.448   1.144   0.434  0.00  0.00    +0.000 C 
ENDBRANCH  12  16
ENDBRANCH  11  12
ENDBRANCH   1  11
TORSDOF 4
