REMARK  Name = *****
REMARK  6 active torsions:
REMARK  status: ('A' for Active; 'I' for Inactive)
REMARK    1  A    between atoms: C_1  and  C_2
REMARK    2  A    between atoms: C_2  and  O_3
REMARK    3  A    between atoms: O_3  and  P_4
REMARK    4  A    between atoms: P_4  and  C_6
REMARK    5  A    between atoms: P_4  and  O_12
REMARK    6  A    between atoms: O_12  and  C_13
REMARK                            x       y       z     vdW  Elec       q    Type
REMARK                         _______ _______ _______ _____ _____    ______ ____
ROOT
ATOM      1  P   UNL     1       4.655  -1.409  -0.035  0.00  0.00    +0.000 P 
ATOM      2  S   UNL     1       4.640  -0.825   1.896  0.00  0.00    +0.000 S 
ENDROOT
BRANCH   1   3
ATOM      3  C   UNL     1       4.653  -3.223  -0.433  0.00  0.00    +0.000 A 
ATOM      4  C   UNL     1       4.900  -3.637  -1.753  0.00  0.00    +0.000 A 
ATOM      5  C   UNL     1       4.899  -4.995  -2.074  0.00  0.00    +0.000 A 
ATOM      6  C   UNL     1       4.649  -5.945  -1.085  0.00  0.00    +0.000 A 
ATOM      7  C   UNL     1       4.399  -5.542   0.227  0.00  0.00    +0.000 A 
ATOM      8  C   UNL     1       4.399  -4.186   0.554  0.00  0.00    +0.000 A 
ENDBRANCH   1   3
BRANCH   1   9
ATOM      9  O   UNL     1       2.925  -1.409  -0.035  0.00  0.00    +0.000 OA
BRANCH   9  11
ATOM     10  C   UNL     1       0.843  -0.908  -1.084  0.00  0.00    +0.000 C 
ATOM     11  C   UNL     1       2.351  -0.852  -1.207  0.00  0.00    +0.000 C 
ENDBRANCH   9  11
ENDBRANCH   1   9
BRANCH   1  12
ATOM     12  O   UNL     1       6.385  -1.409  -0.035  0.00  0.00    +0.000 OA
BRANCH  12  13
ATOM     13  C   UNL     1       7.011  -0.756  -1.063  0.00  0.00    +0.000 A 
ATOM     14  C   UNL     1       6.619   0.517  -1.476  0.00  0.00    +0.000 A 
ATOM     15  C   UNL     1       7.297   1.132  -2.530  0.00  0.00    +0.000 A 
ATOM     16  C   UNL     1       8.358   0.473  -3.144  0.00  0.00    +0.000 A 
ATOM     17  C   UNL     1       8.763  -0.788  -2.719  0.00  0.00    +0.000 A 
ATOM     18  C   UNL     1       8.089  -1.404  -1.665  0.00  0.00    +0.000 A 
ATOM     19  F   UNL     1       9.005   1.067  -4.155  0.00  0.00    +0.000 F 
ENDBRANCH  12  13
ENDBRANCH   1  12
TORSDOF 5
