REMARK  Name = *****
REMARK  3 active torsions:
REMARK  status: ('A' for Active; 'I' for Inactive)
REMARK    1  A    between atoms: C_3  and  C_8
REMARK    2  A    between atoms: C_8  and  C_9
REMARK    3  A    between atoms: C_9  and  C_11
REMARK                            x       y       z     vdW  Elec       q    Type
REMARK                         _______ _______ _______ _____ _____    ______ ____
ROOT
ATOM      1  C   UNL     1       1.924   3.768  -0.003  0.00  0.00    +0.000 C 
ATOM      2  O   UNL     1       1.823   4.391  -1.061  0.00  0.00    +0.000 OA
ENDROOT
BRANCH   1   3
ATOM      3  C   UNL     1       1.355   4.362   1.248  0.00  0.00    +0.000 A 
ATOM      4  C   UNL     1       1.375   3.700   2.480  0.00  0.00    +0.000 A 
ATOM      5  C   UNL     1       0.825   4.315   3.607  0.00  0.00    +0.000 A 
ATOM      6  C   UNL     1       0.254   5.584   3.523  0.00  0.00    +0.000 A 
ATOM      7  C   UNL     1       0.230   6.248   2.299  0.00  0.00    +0.000 A 
ATOM      8  C   UNL     1       0.777   5.639   1.167  0.00  0.00    +0.000 A 
ATOM      9 CL   UNL     1       0.854   3.495   5.120  0.00  0.00    +0.000 Cl
ENDBRANCH   1   3
BRANCH   1  10
ATOM     10  C   UNL     1       2.606   2.413   0.037  0.00  0.00    +0.000 C 
BRANCH  10  13
ATOM     11  C   UNL     1      -0.262   0.074  -0.906  0.00  0.00    +0.000 A 
ATOM     12  C   UNL     1       0.611   1.164  -0.901  0.00  0.00    +0.000 A 
ATOM     13  C   UNL     1       1.648   1.246   0.040  0.00  0.00    +0.000 A 
ATOM     14  C   UNL     1       1.813   0.196   0.957  0.00  0.00    +0.000 A 
ATOM     15  C   UNL     1       0.937  -0.891   0.947  0.00  0.00    +0.000 A 
ATOM     16  C   UNL     1      -0.102  -0.954   0.022  0.00  0.00    +0.000 A 
ATOM     17 CL   UNL     1       1.146  -2.163   2.086  0.00  0.00    +0.000 Cl
ENDBRANCH  10  13
ENDBRANCH   1  10
TORSDOF 3
