MODEL 1
REMARK VINA RESULT:      -4.4      0.000      0.000
REMARK  Name = *****
REMARK  4 active torsions:
REMARK  status: ('A' for Active; 'I' for Inactive)
REMARK    1  A    between atoms: C_1  and  C_2
REMARK    2  A    between atoms: C_5  and  C_8
REMARK    3  A    between atoms: C_9  and  O_10
REMARK    4  A    between atoms: O_10  and  C_11
REMARK                            x       y       z     vdW  Elec       q    Type
REMARK                         _______ _______ _______ _____ _____    ______ ____
ROOT
ATOM      1  C   UNL     1      89.483  69.765  86.833  0.00  0.00    +0.000 C 
ATOM      2  C   UNL     1      89.596  68.473  86.503  0.00  0.00    +0.000 C 
ENDROOT
BRANCH   1   7
ATOM      3  C   UNL     1      84.382  72.464  87.067  0.00  0.00    +0.000 C 
ATOM      4  C   UNL     1      85.720  71.789  87.021  0.00  0.00    +0.000 A 
ATOM      5  C   UNL     1      86.347  71.357  88.196  0.00  0.00    +0.000 A 
ATOM      6  C   UNL     1      87.580  70.700  88.139  0.00  0.00    +0.000 A 
ATOM      7  C   UNL     1      88.199  70.466  86.908  0.00  0.00    +0.000 A 
ATOM      8  C   UNL     1      87.578  70.900  85.734  0.00  0.00    +0.000 A 
ATOM      9  C   UNL     1      86.343  71.553  85.790  0.00  0.00    +0.000 A 
ENDBRANCH   1   7
BRANCH   2  10
ATOM     10  O   UNL     1      88.518  67.678  86.187  0.00  0.00    +0.000 OA
BRANCH  10  11
ATOM     11  C   UNL     1      88.116  66.762  87.125  0.00  0.00    +0.000 A 
ATOM     12  C   UNL     1      88.819  65.576  87.344  0.00  0.00    +0.000 A 
ATOM     13  C   UNL     1      88.398  64.700  88.345  0.00  0.00    +0.000 A 
ATOM     14  C   UNL     1      87.288  65.017  89.130  0.00  0.00    +0.000 A 
ATOM     15  C   UNL     1      86.601  66.213  88.920  0.00  0.00    +0.000 A 
ATOM     16  C   UNL     1      87.020  67.092  87.921  0.00  0.00    +0.000 A 
ENDBRANCH  10  11
ENDBRANCH   2  10
TORSDOF 3
ENDMDL
