REMARK  Name = *****
REMARK  1 active torsions:
REMARK  status: ('A' for Active; 'I' for Inactive)
REMARK    1  A    between atoms: C_6  and  C_7
REMARK                            x       y       z     vdW  Elec       q    Type
REMARK                         _______ _______ _______ _____ _____    ______ ____
ROOT
ATOM      1  C   UNL     1       1.975  -0.181   0.670  0.00  0.00    +0.000 C 
ATOM      2  C   UNL     1       1.668   0.842  -0.421  0.00  0.00    +0.000 C 
ATOM      3  C   UNL     1       0.184   0.685  -0.711  0.00  0.00    +0.000 C 
ATOM      4  C   UNL     1      -0.744   1.358   0.303  0.00  0.00    +0.000 C 
ATOM      5  C   UNL     1      -1.916   0.412   0.377  0.00  0.00    +0.000 C 
ATOM      6  C   UNL     1      -3.131   0.684   0.879  0.00  0.00    +0.000 C 
ATOM      7  C   UNL     1      -1.559  -0.920  -0.236  0.00  0.00    +0.000 C 
ATOM      8  C   UNL     1      -0.067  -0.810  -0.532  0.00  0.00    +0.000 C 
ATOM      9  C   UNL     1       0.855  -1.223   0.621  0.00  0.00    +0.000 C 
ENDROOT
BRANCH   6  10
ATOM     10  C   UNL     1      -3.497   1.977   1.456  0.00  0.00    +0.000 A 
ATOM     11  C   UNL     1      -4.080   2.963   0.652  0.00  0.00    +0.000 A 
ATOM     12  C   UNL     1      -4.424   4.201   1.198  0.00  0.00    +0.000 A 
ATOM     13  C   UNL     1      -4.187   4.458   2.548  0.00  0.00    +0.000 A 
ATOM     14  C   UNL     1      -3.604   3.479   3.353  0.00  0.00    +0.000 A 
ATOM     15  C   UNL     1      -3.258   2.241   2.808  0.00  0.00    +0.000 A 
ENDBRANCH   6  10
TORSDOF 1
