MODEL 1
REMARK VINA RESULT:      -4.4      0.000      0.000
REMARK  Name = *****
REMARK  3 active torsions:
REMARK  status: ('A' for Active; 'I' for Inactive)
REMARK    1  A    between atoms: C_4  and  O_7
REMARK    2  A    between atoms: O_7  and  C_8
REMARK    3  A    between atoms: C_8  and  C_10
REMARK                            x       y       z     vdW  Elec       q    Type
REMARK                         _______ _______ _______ _____ _____    ______ ____
ROOT
ATOM      1  C   UNL     1     102.736 125.433  82.894  0.00  0.00    +0.000 C 
ATOM      2  O   UNL     1     102.772 124.847  83.966  0.00  0.00    +0.000 OA
ENDROOT
BRANCH   1   3
ATOM      3  C   UNL     1     103.934 125.742  82.020  0.00  0.00    +0.000 C 
ATOM      4  C   UNL     1     103.609 125.761  80.493  0.00  0.00    +0.000 C 
ATOM      5  C   UNL     1     104.548 124.672  79.930  0.00  0.00    +0.000 C 
ATOM      6  C   UNL     1     104.501 123.632  81.050  0.00  0.00    +0.000 C 
ATOM      7  C   UNL     1     104.993 124.616  82.120  0.00  0.00    +0.000 C 
ATOM      8  C   UNL     1     106.243 125.107  81.423  0.00  0.00    +0.000 C 
ATOM      9  C   UNL     1     105.972 125.146  80.109  0.00  0.00    +0.000 C 
ENDBRANCH   1   3
BRANCH   1  10
ATOM     10  O   UNL     1     101.600 125.886  82.289  0.00  0.00    +0.000 OA
BRANCH  10  14
ATOM     11  C   UNL     1      99.221 129.264  83.254  0.00  0.00    +0.000 C 
ATOM     12  C   UNL     1      98.517 127.916  83.133  0.00  0.00    +0.000 C 
ATOM     13  C   UNL     1      99.387 126.891  82.412  0.00  0.00    +0.000 C 
ATOM     14  C   UNL     1     100.756 126.742  83.080  0.00  0.00    +0.000 C 
ATOM     15  C   UNL     1     101.458 128.100  83.186  0.00  0.00    +0.000 C 
ATOM     16  C   UNL     1     100.592 129.128  83.908  0.00  0.00    +0.000 C 
ENDBRANCH  10  14
ENDBRANCH   1  10
TORSDOF 3
ENDMDL
