MODEL 1
REMARK VINA RESULT:      -4.0      0.000      0.000
REMARK  Name = *****
REMARK  4 active torsions:
REMARK  status: ('A' for Active; 'I' for Inactive)
REMARK    1  A    between atoms: C_1  and  C_2
REMARK    2  A    between atoms: C_2  and  O_7
REMARK    3  A    between atoms: O_7  and  C_8
REMARK    4  A    between atoms: C_8  and  C_10
REMARK                            x       y       z     vdW  Elec       q    Type
REMARK                         _______ _______ _______ _____ _____    ______ ____
ROOT
ATOM      1  C   UNL     1     102.009 127.808  83.035  0.00  0.00    +0.000 C 
ATOM      2  O   UNL     1     102.664 128.640  83.645  0.00  0.00    +0.000 OA
ENDROOT
BRANCH   1   3
ATOM      3  C   UNL     1     100.712 127.200  83.523  0.00  0.00    +0.000 C 
ATOM      4  C   UNL     1      99.787 126.748  82.350  0.00  0.00    +0.000 C 
ATOM      5  C   UNL     1      98.491 127.547  82.606  0.00  0.00    +0.000 C 
ATOM      6  C   UNL     1      99.059 128.879  83.097  0.00  0.00    +0.000 C 
ATOM      7  C   UNL     1      99.826 128.237  84.260  0.00  0.00    +0.000 C 
ATOM      8  C   UNL     1      98.681 127.477  84.896  0.00  0.00    +0.000 C 
ATOM      9  C   UNL     1      97.886 127.056  83.901  0.00  0.00    +0.000 C 
ENDBRANCH   1   3
BRANCH   1  10
ATOM     10  O   UNL     1     102.355 127.251  81.841  0.00  0.00    +0.000 OA
BRANCH  10  12
ATOM     11  C   UNL     1     104.800 127.178  81.733  0.00  0.00    +0.000 C 
ATOM     12  C   UNL     1     103.496 126.371  81.776  0.00  0.00    +0.000 C 
ATOM     13  C   UNL     1     103.481 125.281  82.853  0.00  0.00    +0.000 C 
ATOM     14  C   UNL     1     104.263 124.116  82.255  0.00  0.00    +0.000 C 
ATOM     15  C   UNL     1     104.166 124.272  80.740  0.00  0.00    +0.000 C 
ATOM     16  C   UNL     1     103.338 125.529  80.500  0.00  0.00    +0.000 C 
ENDBRANCH  10  12
ENDBRANCH   1  10
TORSDOF 3
ENDMDL
