MODEL 1
REMARK VINA RESULT:      -4.5      0.000      0.000
REMARK  Name = *****
REMARK  4 active torsions:
REMARK  status: ('A' for Active; 'I' for Inactive)
REMARK    1  A    between atoms: C_7  and  C_8
REMARK    2  A    between atoms: C_8  and  C_9
REMARK    3  A    between atoms: C_9  and  O_11
REMARK    4  A    between atoms: O_11  and  C_12
REMARK                            x       y       z     vdW  Elec       q    Type
REMARK                         _______ _______ _______ _____ _____    ______ ____
ROOT
ATOM      1  C   UNL     1     100.136 126.735  83.248  0.00  0.00    +0.000 C 
ATOM      2  O   UNL     1      99.477 126.546  82.235  0.00  0.00    +0.000 OA
ENDROOT
BRANCH   1   3
ATOM      3  C   UNL     1     101.606 126.417  83.383  0.00  0.00    +0.000 C 
BRANCH   3  10
ATOM      4  C   UNL     1     103.709 124.340  82.989  0.00  0.00    +0.000 C 
ATOM      5  C   UNL     1     103.317 125.103  81.955  0.00  0.00    +0.000 C 
ATOM      6  C   UNL     1     103.934 124.918  80.586  0.00  0.00    +0.000 C 
ATOM      7  C   UNL     1     104.553 126.225  80.094  0.00  0.00    +0.000 C 
ATOM      8  C   UNL     1     103.547 127.373  80.131  0.00  0.00    +0.000 C 
ATOM      9  C   UNL     1     102.912 127.527  81.515  0.00  0.00    +0.000 C 
ATOM     10  C   UNL     1     102.266 126.213  82.010  0.00  0.00    +0.000 C 
ENDBRANCH   3  10
ENDBRANCH   1   3
BRANCH   1  11
ATOM     11  O   UNL     1      99.657 127.249  84.414  0.00  0.00    +0.000 OA
BRANCH  11  12
ATOM     12  C   UNL     1      99.049 128.551  84.330  0.00  0.00    +0.000 C 
ATOM     13  C   UNL     1     100.056 129.562  83.773  0.00  0.00    +0.000 C 
ATOM     14  C   UNL     1      99.510 130.985  83.816  0.00  0.00    +0.000 C 
ATOM     15  C   UNL     1      99.061 131.372  85.222  0.00  0.00    +0.000 C 
ATOM     16  C   UNL     1      98.064 130.367  85.792  0.00  0.00    +0.000 C 
ATOM     17  C   UNL     1      98.614 128.945  85.744  0.00  0.00    +0.000 C 
ENDBRANCH  11  12
ENDBRANCH   1  11
TORSDOF 4
ENDMDL
