MODEL 1
REMARK VINA RESULT:      -4.2      0.000      0.000
REMARK  Name = *****
REMARK  3 active torsions:
REMARK  status: ('A' for Active; 'I' for Inactive)
REMARK    1  A    between atoms: C_4  and  C_7
REMARK    2  A    between atoms: C_7  and  S_9
REMARK    3  A    between atoms: S_9  and  C_10
REMARK                            x       y       z     vdW  Elec       q    Type
REMARK                         _______ _______ _______ _____ _____    ______ ____
ROOT
ATOM      1  C   UNL     1     103.412 125.190  83.142  0.00  0.00    +0.000 C 
ATOM      2  O   UNL     1     103.092 124.559  84.142  0.00  0.00    +0.000 OA
ENDROOT
BRANCH   1   6
ATOM      3  C   UNL     1     105.781 123.562  79.878  0.00  0.00    +0.000 C 
ATOM      4  C   UNL     1     104.945 122.595  80.711  0.00  0.00    +0.000 C 
ATOM      5  C   UNL     1     104.510 123.225  82.031  0.00  0.00    +0.000 C 
ATOM      6  C   UNL     1     103.765 124.549  81.807  0.00  0.00    +0.000 C 
ATOM      7  C   UNL     1     104.610 125.517  80.972  0.00  0.00    +0.000 C 
ATOM      8  C   UNL     1     105.054 124.885  79.654  0.00  0.00    +0.000 C 
ENDBRANCH   1   6
BRANCH   1   9
ATOM      9  S   UNL     1     103.491 126.955  83.148  0.00  0.00    +0.000 S 
BRANCH   9  10
ATOM     10  C   UNL     1     101.757 127.362  83.090  0.00  0.00    +0.000 A 
ATOM     11  C   UNL     1     101.316 128.568  83.644  0.00  0.00    +0.000 A 
ATOM     12  C   UNL     1      99.964 128.916  83.594  0.00  0.00    +0.000 A 
ATOM     13  C   UNL     1      99.047 128.063  82.984  0.00  0.00    +0.000 A 
ATOM     14  C   UNL     1      99.479 126.864  82.421  0.00  0.00    +0.000 A 
ATOM     15  C   UNL     1     100.832 126.516  82.470  0.00  0.00    +0.000 A 
ENDBRANCH   9  10
ENDBRANCH   1   9
TORSDOF 3
ENDMDL
