MODEL 1
REMARK VINA RESULT:      -4.5      0.000      0.000
REMARK  Name = *****
REMARK  3 active torsions:
REMARK  status: ('A' for Active; 'I' for Inactive)
REMARK    1  A    between atoms: C_5  and  O_7
REMARK    2  A    between atoms: O_7  and  C_8
REMARK    3  A    between atoms: C_8  and  C_10
REMARK                            x       y       z     vdW  Elec       q    Type
REMARK                         _______ _______ _______ _____ _____    ______ ____
ROOT
ATOM      1  C   UNL     1     103.283 127.239  82.114  0.00  0.00    +0.000 C 
ATOM      2  O   UNL     1     103.493 128.268  81.490  0.00  0.00    +0.000 OA
ENDROOT
BRANCH   1   3
ATOM      3  C   UNL     1     103.775 125.904  81.670  0.00  0.00    +0.000 A 
ATOM      4  C   UNL     1     103.826 124.791  82.524  0.00  0.00    +0.000 A 
ATOM      5  C   UNL     1     104.297 123.563  82.050  0.00  0.00    +0.000 A 
ATOM      6  C   UNL     1     104.714 123.451  80.727  0.00  0.00    +0.000 A 
ATOM      7  C   UNL     1     104.669 124.541  79.867  0.00  0.00    +0.000 A 
ATOM      8  C   UNL     1     104.199 125.770  80.337  0.00  0.00    +0.000 A 
ATOM      9  F   UNL     1     105.165 122.274  80.277  0.00  0.00    +0.000 F 
ENDBRANCH   1   3
BRANCH   1  10
ATOM     10  O   UNL     1     102.597 127.110  83.306  0.00  0.00    +0.000 OA
BRANCH  10  15
ATOM     11  C   UNL     1      99.047 126.951  82.373  0.00  0.00    +0.000 A 
ATOM     12  C   UNL     1      98.589 128.186  82.838  0.00  0.00    +0.000 A 
ATOM     13  C   UNL     1      99.468 129.071  83.467  0.00  0.00    +0.000 A 
ATOM     14  C   UNL     1     100.807 128.720  83.637  0.00  0.00    +0.000 A 
ATOM     15  C   UNL     1     101.253 127.475  83.187  0.00  0.00    +0.000 A 
ATOM     16  C   UNL     1     100.385 126.593  82.539  0.00  0.00    +0.000 A 
ATOM     17 CL   UNL     1     101.880 129.845  84.384  0.00  0.00    +0.000 Cl
ENDBRANCH  10  15
ENDBRANCH   1  10
TORSDOF 3
ENDMDL
