MODEL 1
REMARK VINA RESULT:      -5.2      0.000      0.000
REMARK  Name = *****
REMARK  1 active torsions:
REMARK  status: ('A' for Active; 'I' for Inactive)
REMARK    1  A    between atoms: C_3  and  C_11
REMARK                            x       y       z     vdW  Elec       q    Type
REMARK                         _______ _______ _______ _____ _____    ______ ____
ROOT
ATOM      1  C   UNL     1     103.662 126.892  83.833  0.00  0.00    +0.000 C 
ATOM      2  C   UNL     1     103.079 125.527  83.603  0.00  0.00    +0.000 C 
ATOM      3  C   UNL     1     102.648 126.701  82.716  0.00  0.00    +0.000 C 
ATOM      4  C   UNL     1     103.139 126.441  81.280  0.00  0.00    +0.000 C 
ATOM      5  C   UNL     1     103.779 125.073  81.358  0.00  0.00    +0.000 A 
ATOM      6  C   UNL     1     104.350 124.358  80.316  0.00  0.00    +0.000 A 
ATOM      7  C   UNL     1     104.899 123.106  80.596  0.00  0.00    +0.000 A 
ATOM      8  C   UNL     1     104.874 122.592  81.900  0.00  0.00    +0.000 A 
ATOM      9  C   UNL     1     104.297 123.322  82.943  0.00  0.00    +0.000 A 
ATOM     10  C   UNL     1     103.747 124.567  82.671  0.00  0.00    +0.000 A 
ENDROOT
BRANCH   3  11
ATOM     11  C   UNL     1     101.273 127.313  82.864  0.00  0.00    +0.000 A 
ATOM     12  C   UNL     1     101.094 128.564  83.478  0.00  0.00    +0.000 A 
ATOM     13  C   UNL     1      99.828 129.139  83.606  0.00  0.00    +0.000 A 
ATOM     14  C   UNL     1      98.708 128.476  83.113  0.00  0.00    +0.000 A 
ATOM     15  C   UNL     1      98.857 127.239  82.492  0.00  0.00    +0.000 A 
ATOM     16  C   UNL     1     100.126 126.668  82.368  0.00  0.00    +0.000 A 
ENDBRANCH   3  11
TORSDOF 1
ENDMDL
