MODEL 1
REMARK VINA RESULT:      -4.6      0.000      0.000
REMARK  Name = *****
REMARK  3 active torsions:
REMARK  status: ('A' for Active; 'I' for Inactive)
REMARK    1  A    between atoms: C_4  and  C_7
REMARK    2  A    between atoms: C_8  and  S_9
REMARK    3  A    between atoms: S_9  and  C_11
REMARK                            x       y       z     vdW  Elec       q    Type
REMARK                         _______ _______ _______ _____ _____    ______ ____
ROOT
ATOM      1  C   UNL     1      98.930 127.619  82.743  0.00  0.00    +0.000 C 
ATOM      2  C   UNL     1      99.933 126.748  82.557  0.00  0.00    +0.000 C 
ENDROOT
BRANCH   1   6
ATOM      3  C   UNL     1      98.817 130.857  85.516  0.00  0.00    +0.000 A 
ATOM      4  C   UNL     1      98.319 129.605  85.875  0.00  0.00    +0.000 A 
ATOM      5  C   UNL     1      98.362 128.549  84.963  0.00  0.00    +0.000 A 
ATOM      6  C   UNL     1      98.894 128.742  83.684  0.00  0.00    +0.000 A 
ATOM      7  C   UNL     1      99.406 129.997  83.335  0.00  0.00    +0.000 A 
ATOM      8  C   UNL     1      99.362 131.053  84.248  0.00  0.00    +0.000 A 
ENDBRANCH   1   6
BRANCH   2   9
ATOM      9  S   UNL     1     101.467 126.838  83.472  0.00  0.00    +0.000 S 
ATOM     10  O   UNL     1     101.487 125.570  84.277  0.00  0.00    +0.000 OA
BRANCH   9  11
ATOM     11  C   UNL     1     102.628 126.552  82.112  0.00  0.00    +0.000 A 
ATOM     12  C   UNL     1     103.014 125.245  81.800  0.00  0.00    +0.000 A 
ATOM     13  C   UNL     1     103.910 125.007  80.756  0.00  0.00    +0.000 A 
ATOM     14  C   UNL     1     104.419 126.075  80.017  0.00  0.00    +0.000 A 
ATOM     15  C   UNL     1     104.029 127.380  80.316  0.00  0.00    +0.000 A 
ATOM     16  C   UNL     1     103.134 127.618  81.360  0.00  0.00    +0.000 A 
ENDBRANCH   9  11
ENDBRANCH   2   9
TORSDOF 3
ENDMDL
