MODEL 1
REMARK VINA RESULT:      -4.5      0.000      0.000
REMARK  Name = *****
REMARK  2 active torsions:
REMARK  status: ('A' for Active; 'I' for Inactive)
REMARK    1  A    between atoms: C_5  and  C_6
REMARK    2  A    between atoms: N_7  and  C_8
REMARK                            x       y       z     vdW  Elec       q    Type
REMARK                         _______ _______ _______ _____ _____    ______ ____
ROOT
ATOM      1  C   UNL     1     103.589 125.318  81.650  0.00  0.00    +0.000 A 
ATOM      2  C   UNL     1     104.129 125.506  80.368  0.00  0.00    +0.000 A 
ATOM      3  C   UNL     1     105.016 124.586  79.810  0.00  0.00    +0.000 A 
ATOM      4  C   UNL     1     105.383 123.456  80.522  0.00  0.00    +0.000 A 
ATOM      5  C   UNL     1     104.880 123.253  81.797  0.00  0.00    +0.000 A 
ATOM      6  C   UNL     1     104.005 124.179  82.360  0.00  0.00    +0.000 A 
ATOM      7  F   UNL     1     103.561 123.958  83.607  0.00  0.00    +0.000 F 
ATOM      8  F   UNL     1     105.231 122.161  82.491  0.00  0.00    +0.000 F 
ATOM      9  F   UNL     1     106.224 122.562  79.982  0.00  0.00    +0.000 F 
ATOM     10  F   UNL     1     105.511 124.790  78.581  0.00  0.00    +0.000 F 
ATOM     11  F   UNL     1     103.790 126.589  79.650  0.00  0.00    +0.000 F 
ENDROOT
BRANCH   1  13
ATOM     12  C   UNL     1     101.432 126.075  82.140  0.00  0.00    +0.000 C 
ATOM     13  N   UNL     1     102.705 126.295  82.165  0.00  0.00    +0.000 NA
BRANCH  12  18
ATOM     14  C   UNL     1      99.095 127.119  82.497  0.00  0.00    +0.000 A 
ATOM     15  C   UNL     1      98.521 128.202  83.127  0.00  0.00    +0.000 A 
ATOM     16  S   UNL     1      99.686 129.191  83.889  0.00  0.00    +0.000 S 
ATOM     17  C   UNL     1     100.960 128.168  83.385  0.00  0.00    +0.000 A 
ATOM     18  C   UNL     1     100.520 127.084  82.649  0.00  0.00    +0.000 A 
ENDBRANCH  12  18
ENDBRANCH   1  13
TORSDOF 2
ENDMDL
