MODEL 1
REMARK VINA RESULT:      -4.4      0.000      0.000
REMARK  Name = *****
REMARK  4 active torsions:
REMARK  status: ('A' for Active; 'I' for Inactive)
REMARK    1  A    between atoms: C_4  and  C_7
REMARK    2  A    between atoms: C_7  and  N_8
REMARK    3  A    between atoms: N_8  and  C_9
REMARK    4  A    between atoms: C_9  and  C_11
REMARK                            x       y       z     vdW  Elec       q    Type
REMARK                         _______ _______ _______ _____ _____    ______ ____
ROOT
ATOM      1  C   UNL     1     100.793 126.327  84.039  0.00  0.00    +0.000 C 
ATOM      2  S   UNL     1     101.077 125.976  85.655  0.00  0.00    +0.000 S 
ENDROOT
BRANCH   1   3
ATOM      3  C   UNL     1     101.899 126.731  83.125  0.00  0.00    +0.000 A 
ATOM      4  C   UNL     1     102.356 125.819  82.165  0.00  0.00    +0.000 A 
ATOM      5  C   UNL     1     103.385 126.182  81.290  0.00  0.00    +0.000 A 
ATOM      6  C   UNL     1     103.961 127.457  81.376  0.00  0.00    +0.000 A 
ATOM      7  C   UNL     1     103.504 128.363  82.338  0.00  0.00    +0.000 A 
ATOM      8  C   UNL     1     102.474 128.005  83.211  0.00  0.00    +0.000 A 
ATOM      9 CL   UNL     1     105.233 127.971  80.327  0.00  0.00    +0.000 Cl
ATOM     10 CL   UNL     1     103.897 125.014  80.125  0.00  0.00    +0.000 Cl
ENDBRANCH   1   3
BRANCH   1  11
ATOM     11  N   UNL     1      99.559 126.275  83.413  0.00  0.00    +0.000 N 
ATOM     12  H   UNL     1      99.126 125.391  83.372  0.00  0.00    +0.000 HD
BRANCH  11  13
ATOM     13  C   UNL     1      98.829 127.381  82.807  0.00  0.00    +0.000 C 
BRANCH  13  17
ATOM     14  C   UNL     1      98.708 130.778  85.460  0.00  0.00    +0.000 A 
ATOM     15  C   UNL     1      98.119 129.574  85.841  0.00  0.00    +0.000 A 
ATOM     16  C   UNL     1      98.169 128.472  84.987  0.00  0.00    +0.000 A 
ATOM     17  C   UNL     1      98.814 128.561  83.746  0.00  0.00    +0.000 A 
ATOM     18  C   UNL     1      99.396 129.780  83.369  0.00  0.00    +0.000 A 
ATOM     19  C   UNL     1      99.345 130.882  84.226  0.00  0.00    +0.000 A 
ENDBRANCH  13  17
ENDBRANCH  11  13
ENDBRANCH   1  11
TORSDOF 4
ENDMDL
