MODEL 1
REMARK VINA RESULT:      -5.1      0.000      0.000
REMARK  Name = *****
REMARK  2 active torsions:
REMARK  status: ('A' for Active; 'I' for Inactive)
REMARK    1  A    between atoms: C_5  and  C_7
REMARK    2  A    between atoms: C_8  and  C_9
REMARK                            x       y       z     vdW  Elec       q    Type
REMARK                         _______ _______ _______ _____ _____    ______ ____
ROOT
ATOM      1  C   UNL     1     101.830 126.024  82.377  0.00  0.00    +0.000 C 
ATOM      2  C   UNL     1     102.828 126.139  81.485  0.00  0.00    +0.000 C 
ENDROOT
BRANCH   1   7
ATOM      3  C   UNL     1     100.593 129.280  83.806  0.00  0.00    +0.000 A 
ATOM      4  C   UNL     1      99.228 129.234  83.524  0.00  0.00    +0.000 A 
ATOM      5  C   UNL     1      98.697 128.133  82.858  0.00  0.00    +0.000 A 
ATOM      6  C   UNL     1      99.532 127.085  82.473  0.00  0.00    +0.000 A 
ATOM      7  C   UNL     1     100.909 127.115  82.733  0.00  0.00    +0.000 A 
ATOM      8  C   UNL     1     101.426 128.225  83.418  0.00  0.00    +0.000 A 
ATOM      9  F   UNL     1      98.973 126.033  81.854  0.00  0.00    +0.000 F 
ENDBRANCH   1   7
BRANCH   2  10
ATOM     10  C   UNL     1     103.757 125.050  81.153  0.00  0.00    +0.000 A 
ATOM     11  C   UNL     1     104.494 125.036  79.959  0.00  0.00    +0.000 A 
ATOM     12  C   UNL     1     105.389 123.998  79.692  0.00  0.00    +0.000 A 
ATOM     13  C   UNL     1     105.556 122.981  80.623  0.00  0.00    +0.000 A 
ATOM     14  C   UNL     1     104.851 122.983  81.819  0.00  0.00    +0.000 A 
ATOM     15  C   UNL     1     103.955 124.022  82.087  0.00  0.00    +0.000 A 
ATOM     16  F   UNL     1     106.417 121.987  80.366  0.00  0.00    +0.000 F 
ENDBRANCH   2  10
TORSDOF 2
ENDMDL
