MODEL 1
REMARK VINA RESULT:      -4.2      0.000      0.000
REMARK  Name = *****
REMARK  3 active torsions:
REMARK  status: ('A' for Active; 'I' for Inactive)
REMARK    1  A    between atoms: C_4  and  C_7
REMARK    2  A    between atoms: C_7  and  C_8
REMARK    3  A    between atoms: C_9  and  C_10
REMARK                            x       y       z     vdW  Elec       q    Type
REMARK                         _______ _______ _______ _____ _____    ______ ____
ROOT
ATOM      1  C   UNL     1     102.838 126.182  81.348  0.00  0.00    +0.000 C 
ATOM      2  C   UNL     1     101.785 125.956  82.151  0.00  0.00    +0.000 C 
ENDROOT
BRANCH   2   3
ATOM      3  C   UNL     1     100.887 127.012  82.634  0.00  0.00    +0.000 A 
ATOM      4  C   UNL     1     101.366 128.159  83.279  0.00  0.00    +0.000 A 
ATOM      5  C   UNL     1     100.486 129.159  83.697  0.00  0.00    +0.000 A 
ATOM      6  C   UNL     1      99.118 129.028  83.465  0.00  0.00    +0.000 A 
ATOM      7  C   UNL     1      98.631 127.899  82.810  0.00  0.00    +0.000 A 
ATOM      8  C   UNL     1      99.512 126.898  82.392  0.00  0.00    +0.000 A 
ENDBRANCH   2   3
BRANCH   1   9
ATOM      9  C   UNL     1     103.757 125.094  80.848  0.00  0.00    +0.000 C 
BRANCH   9  13
ATOM     10  C   UNL     1     106.152 122.050  80.679  0.00  0.00    +0.000 C 
ATOM     11  C   UNL     1     104.786 121.995  81.349  0.00  0.00    +0.000 C 
ATOM     12  S   UNL     1     104.604 123.181  82.711  0.00  0.00    +0.000 S 
ATOM     13  C   UNL     1     104.900 124.753  81.826  0.00  0.00    +0.000 C 
ATOM     14  S   UNL     1     106.574 124.769  81.092  0.00  0.00    +0.000 S 
ATOM     15  C   UNL     1     106.443 123.359  79.959  0.00  0.00    +0.000 C 
ENDBRANCH   9  13
ENDBRANCH   1   9
TORSDOF 3
ENDMDL
