MODEL 1
REMARK VINA RESULT:      -4.3      0.000      0.000
REMARK  Name = *****
REMARK  5 active torsions:
REMARK  status: ('A' for Active; 'I' for Inactive)
REMARK    1  A    between atoms: C_1  and  C_2
REMARK    2  A    between atoms: C_2  and  C_4
REMARK    3  A    between atoms: C_7  and  C_10
REMARK    4  A    between atoms: C_10  and  C_11
REMARK    5  A    between atoms: C_11  and  C_12
REMARK                            x       y       z     vdW  Elec       q    Type
REMARK                         _______ _______ _______ _____ _____    ______ ____
ROOT
ATOM      1  C   UNL     1      90.546  64.741  85.607  0.00  0.00    +0.000 A 
ATOM      2  C   UNL     1      90.794  66.119  85.601  0.00  0.00    +0.000 A 
ATOM      3  C   UNL     1      89.910  66.994  86.241  0.00  0.00    +0.000 A 
ATOM      4  C   UNL     1      88.768  66.509  86.890  0.00  0.00    +0.000 A 
ATOM      5  C   UNL     1      88.523  65.131  86.893  0.00  0.00    +0.000 A 
ATOM      6  C   UNL     1      89.408  64.253  86.260  0.00  0.00    +0.000 A 
ENDROOT
BRANCH   1   8
ATOM      7  C   UNL     1      91.918  64.046  83.532  0.00  0.00    +0.000 C 
ATOM      8  C   UNL     1      91.455  63.765  84.937  0.00  0.00    +0.000 C 
ATOM      9  O   UNL     1      91.814  62.752  85.532  0.00  0.00    +0.000 OA
ENDBRANCH   1   8
BRANCH   4  10
ATOM     10  C   UNL     1      87.806  67.458  87.567  0.00  0.00    +0.000 C 
BRANCH  10  11
ATOM     11  C   UNL     1      87.201  68.462  86.578  0.00  0.00    +0.000 C 
BRANCH  11  12
ATOM     12  C   UNL     1      87.206  69.915  87.108  0.00  0.00    +0.000 C 
ATOM     13  C   UNL     1      87.071  70.972  85.997  0.00  0.00    +0.000 C 
ATOM     14  C   UNL     1      88.278  70.996  85.052  0.00  0.00    +0.000 C 
ATOM     15  C   UNL     1      89.588  70.866  85.773  0.00  0.00    +0.000 C 
ATOM     16  C   UNL     1      89.684  70.521  87.066  0.00  0.00    +0.000 C 
ATOM     17  C   UNL     1      88.491  70.198  87.918  0.00  0.00    +0.000 C 
ENDBRANCH  11  12
ENDBRANCH  10  11
ENDBRANCH   4  10
TORSDOF 4
ENDMDL
