MODEL 1
REMARK VINA RESULT:      -3.9      0.000      0.000
REMARK  Name = *****
REMARK  5 active torsions:
REMARK  status: ('A' for Active; 'I' for Inactive)
REMARK    1  A    between atoms: C_1  and  S_2
REMARK    2  A    between atoms: S_2  and  N_3
REMARK    3  A    between atoms: S_2  and  C_12
REMARK    4  A    between atoms: N_3  and  S_4
REMARK    5  A    between atoms: S_4  and  C_5
REMARK                            x       y       z     vdW  Elec       q    Type
REMARK                         _______ _______ _______ _____ _____    ______ ____
ROOT
ATOM      1  C   UNL     1      88.370  69.367  84.359  0.00  0.00    +0.000 C 
ATOM      2  S   UNL     1      89.437  69.719  85.731  0.00  0.00    +0.000 S 
ATOM      3  O   UNL     1      90.249  70.843  85.291  0.00  0.00    +0.000 OA
ENDROOT
BRANCH   2   4
ATOM      4  C   UNL     1      88.397  70.387  87.023  0.00  0.00    +0.000 A 
ATOM      5  C   UNL     1      88.794  70.388  88.362  0.00  0.00    +0.000 A 
ATOM      6  C   UNL     1      87.934  70.909  89.331  0.00  0.00    +0.000 A 
ATOM      7  C   UNL     1      86.688  71.421  88.962  0.00  0.00    +0.000 A 
ATOM      8  C   UNL     1      86.295  71.415  87.625  0.00  0.00    +0.000 A 
ATOM      9  C   UNL     1      87.149  70.896  86.651  0.00  0.00    +0.000 A 
ENDBRANCH   2   4
BRANCH   2  10
ATOM     10  N   UNL     1      90.029  68.396  86.274  0.00  0.00    +0.000 NA
BRANCH  10  11
ATOM     11  S   UNL     1      89.546  66.855  85.723  0.00  0.00    +0.000 S 
BRANCH  11  12
ATOM     12  C   UNL     1      88.669  66.424  87.282  0.00  0.00    +0.000 C 
ATOM     13  C   UNL     1      88.666  64.915  87.561  0.00  0.00    +0.000 C 
ATOM     14  C   UNL     1      87.999  64.606  88.902  0.00  0.00    +0.000 C 
ATOM     15  C   UNL     1      86.597  65.203  88.985  0.00  0.00    +0.000 C 
ATOM     16  C   UNL     1      86.606  66.705  88.712  0.00  0.00    +0.000 C 
ATOM     17  C   UNL     1      87.261  67.031  87.369  0.00  0.00    +0.000 C 
ENDBRANCH  11  12
ENDBRANCH  10  11
ENDBRANCH   2  10
TORSDOF 4
ENDMDL
