REMARK  Name = *****
REMARK  2 active torsions:
REMARK  status: ('A' for Active; 'I' for Inactive)
REMARK    1  A    between atoms: C_1  and  C_2
REMARK    2  A    between atoms: C_5  and  C_13
REMARK                            x       y       z     vdW  Elec       q    Type
REMARK                         _______ _______ _______ _____ _____    ______ ____
ROOT
ATOM      1  C   UNL     1       1.027   0.144   0.328  0.00  0.00    +0.000 C 
ATOM      2  C   UNL     1       2.513   0.141   0.101  0.00  0.00    +0.000 C 
ATOM      3  C   UNL     1       3.212   1.283   0.170  0.00  0.00    +0.000 C 
ATOM      4  O   UNL     1       4.582   1.438  -0.002  0.00  0.00    +0.000 OA
ATOM      5  C   UNL     1       5.015   1.010  -1.222  0.00  0.00    +0.000 C 
ATOM      6  N   UNL     1       4.875  -0.169  -1.738  0.00  0.00    +0.000 NA
ATOM      7  C   UNL     1       4.310  -1.234  -1.018  0.00  0.00    +0.000 A 
ATOM      8  C   UNL     1       4.898  -2.490  -1.245  0.00  0.00    +0.000 A 
ATOM      9  C   UNL     1       4.414  -3.645  -0.633  0.00  0.00    +0.000 A 
ATOM     10  C   UNL     1       3.320  -3.560   0.216  0.00  0.00    +0.000 A 
ATOM     11  C   UNL     1       2.715  -2.323   0.446  0.00  0.00    +0.000 A 
ATOM     12  C   UNL     1       3.194  -1.145  -0.162  0.00  0.00    +0.000 A 
ENDROOT
BRANCH   5  13
ATOM     13  C   UNL     1       5.743   2.103  -1.929  0.00  0.00    +0.000 A 
ATOM     14  C   UNL     1       6.118   3.289  -1.282  0.00  0.00    +0.000 A 
ATOM     15  C   UNL     1       6.800   4.287  -1.982  0.00  0.00    +0.000 A 
ATOM     16  C   UNL     1       7.112   4.109  -3.330  0.00  0.00    +0.000 A 
ATOM     17  C   UNL     1       6.745   2.932  -3.980  0.00  0.00    +0.000 A 
ATOM     18  C   UNL     1       6.064   1.931  -3.283  0.00  0.00    +0.000 A 
ENDBRANCH   5  13
TORSDOF 1
