MODEL 1
REMARK VINA RESULT:      -4.6      0.000      0.000
REMARK  Name = *****
REMARK  5 active torsions:
REMARK  status: ('A' for Active; 'I' for Inactive)
REMARK    1  A    between atoms: C_1  and  O_2
REMARK    2  A    between atoms: O_2  and  C_3
REMARK    3  A    between atoms: C_3  and  C_13
REMARK    4  A    between atoms: C_4  and  C_5
REMARK    5  A    between atoms: C_4  and  C_7
REMARK                            x       y       z     vdW  Elec       q    Type
REMARK                         _______ _______ _______ _____ _____    ______ ____
ROOT
ATOM      1  C   UNL     1     101.793 127.510  83.333  0.00  0.00    +0.000 C 
ATOM      2  C   UNL     1     100.452 127.688  83.277  0.00  0.00    +0.000 C 
ENDROOT
BRANCH   2   3
ATOM      3  C   UNL     1      99.796 128.741  84.086  0.00  0.00    +0.000 A 
ATOM      4  C   UNL     1      99.794 130.072  83.645  0.00  0.00    +0.000 A 
ATOM      5  C   UNL     1      99.180 131.071  84.404  0.00  0.00    +0.000 A 
ATOM      6  C   UNL     1      98.559 130.751  85.609  0.00  0.00    +0.000 A 
ATOM      7  C   UNL     1      98.548 129.431  86.056  0.00  0.00    +0.000 A 
ATOM      8  C   UNL     1      99.160 128.431  85.298  0.00  0.00    +0.000 A 
ENDBRANCH   2   3
BRANCH   1   9
ATOM      9  C   UNL     1     102.538 126.490  82.569  0.00  0.00    +0.000 A 
ATOM     10  C   UNL     1     102.792 126.659  81.200  0.00  0.00    +0.000 A 
ATOM     11  C   UNL     1     103.502 125.687  80.491  0.00  0.00    +0.000 A 
ATOM     12  C   UNL     1     103.967 124.547  81.145  0.00  0.00    +0.000 A 
ATOM     13  C   UNL     1     103.729 124.377  82.508  0.00  0.00    +0.000 A 
ATOM     14  C   UNL     1     103.019 125.347  83.219  0.00  0.00    +0.000 A 
ENDBRANCH   1   9
BRANCH   1  16
ATOM     15  C   UNL     1     103.445 129.143  83.562  0.00  0.00    +0.000 C 
ATOM     16  O   UNL     1     102.578 128.226  84.229  0.00  0.00    +0.000 OA
ENDBRANCH   1  16
BRANCH   2  17
ATOM     17  C   UNL     1      99.611 126.825  82.389  0.00  0.00    +0.000 C 
ATOM     18  O   UNL     1      98.471 127.117  82.041  0.00  0.00    +0.000 OA
ENDBRANCH   2  17
TORSDOF 4
ENDMDL
