MODEL 1
REMARK VINA RESULT:      -3.3      0.000      0.000
REMARK  Name = *****
REMARK  4 active torsions:
REMARK  status: ('A' for Active; 'I' for Inactive)
REMARK    1  A    between atoms: C_1  and  C_2
REMARK    2  A    between atoms: C_3  and  S_7
REMARK    3  A    between atoms: S_7  and  S_8
REMARK    4  A    between atoms: S_8  and  C_9
REMARK                            x       y       z     vdW  Elec       q    Type
REMARK                         _______ _______ _______ _____ _____    ______ ____
ROOT
ATOM      1  S   UNL     1     102.409 127.982  83.296  0.00  0.00    +0.000 S 
ENDROOT
BRANCH   1   4
ATOM      2  C   UNL     1      99.612 130.028  83.843  0.00  0.00    +0.000 C 
ATOM      3  C   UNL     1      99.676 128.661  83.287  0.00  0.00    +0.000 A 
ATOM      4  C   UNL     1     100.698 127.774  83.027  0.00  0.00    +0.000 A 
ATOM      5  C   UNL     1     100.102 126.608  82.493  0.00  0.00    +0.000 A 
ATOM      6  C   UNL     1      98.752 126.861  82.447  0.00  0.00    +0.000 A 
ATOM      7  O   UNL     1      98.482 128.104  82.925  0.00  0.00    +0.000 OA
ENDBRANCH   1   4
BRANCH   1   8
ATOM      8  S   UNL     1     103.228 127.523  81.467  0.00  0.00    +0.000 S 
BRANCH   8   9
ATOM      9  C   UNL     1     103.732 125.849  81.654  0.00  0.00    +0.000 A 
ATOM     10  C   UNL     1     103.930 125.209  82.856  0.00  0.00    +0.000 A 
ATOM     11  S   UNL     1     104.419 123.582  82.640  0.00  0.00    +0.000 S 
ATOM     12  C   UNL     1     104.381 123.740  80.936  0.00  0.00    +0.000 A 
ATOM     13  C   UNL     1     104.001 125.005  80.540  0.00  0.00    +0.000 A 
ENDBRANCH   8   9
ENDBRANCH   1   8
TORSDOF 3
ENDMDL
