MODEL 1
REMARK VINA RESULT:      -4.3      0.000      0.000
REMARK  Name = *****
REMARK  0 active torsions:
REMARK  status: ('A' for Active; 'I' for Inactive)
REMARK                            x       y       z     vdW  Elec       q    Type
REMARK                         _______ _______ _______ _____ _____    ______ ____
ROOT
ATOM      1  C   UNL     1     105.843 125.415  80.548  0.00  0.00    +0.000 C 
ATOM      2  C   UNL     1     104.523 124.644  80.536  0.00  0.00    +0.000 C 
ATOM      3  C   UNL     1     103.326 125.569  80.311  0.00  0.00    +0.000 C 
ATOM      4  C   UNL     1     103.333 126.714  81.292  0.00  0.00    +0.000 C 
ATOM      5  C   UNL     1     102.298 127.020  82.024  0.00  0.00    +0.000 C 
ATOM      6  C   UNL     1     101.263 127.328  82.756  0.00  0.00    +0.000 C 
ATOM      7  C   UNL     1      99.950 126.592  82.660  0.00  0.00    +0.000 C 
ATOM      8  C   UNL     1      98.786 127.566  82.476  0.00  0.00    +0.000 C 
ATOM      9  C   UNL     1      98.784 128.658  83.545  0.00  0.00    +0.000 C 
ATOM     10  C   UNL     1     100.122 129.394  83.594  0.00  0.00    +0.000 C 
ATOM     11  C   UNL     1     101.294 128.430  83.786  0.00  0.00    +0.000 C 
ATOM     12  C   UNL     1     104.627 127.486  81.350  0.00  0.00    +0.000 C 
ATOM     13  C   UNL     1     105.816 126.552  81.570  0.00  0.00    +0.000 C 
ENDROOT
TORSDOF 0
ENDMDL
