MODEL 1
REMARK VINA RESULT:      -4.7      0.000      0.000
REMARK  Name = *****
REMARK  4 active torsions:
REMARK  status: ('A' for Active; 'I' for Inactive)
REMARK    1  A    between atoms: C_1  and  S_2
REMARK    2  A    between atoms: S_2  and  C_3
REMARK    3  A    between atoms: C_3  and  C_11
REMARK    4  A    between atoms: C_4  and  C_5
REMARK                            x       y       z     vdW  Elec       q    Type
REMARK                         _______ _______ _______ _____ _____    ______ ____
ROOT
ATOM      1  C   UNL     1     102.937 125.923  81.604  0.00  0.00    +0.000 C 
ATOM      2  C   UNL     1     101.917 125.904  82.481  0.00  0.00    +0.000 C 
ENDROOT
BRANCH   2   3
ATOM      3  C   UNL     1     100.953 126.979  82.749  0.00  0.00    +0.000 A 
ATOM      4  C   UNL     1      99.607 126.863  82.386  0.00  0.00    +0.000 A 
ATOM      5  C   UNL     1      98.706 127.889  82.673  0.00  0.00    +0.000 A 
ATOM      6  C   UNL     1      99.143 129.036  83.336  0.00  0.00    +0.000 A 
ATOM      7  C   UNL     1     100.479 129.155  83.713  0.00  0.00    +0.000 A 
ATOM      8  C   UNL     1     101.381 128.128  83.425  0.00  0.00    +0.000 A 
ENDBRANCH   2   3
BRANCH   1   9
ATOM      9  C   UNL     1     103.798 124.733  81.472  0.00  0.00    +0.000 A 
ATOM     10  C   UNL     1     104.011 123.881  82.565  0.00  0.00    +0.000 A 
ATOM     11  C   UNL     1     104.838 122.763  82.442  0.00  0.00    +0.000 A 
ATOM     12  C   UNL     1     105.462 122.488  81.227  0.00  0.00    +0.000 A 
ATOM     13  C   UNL     1     105.262 123.329  80.133  0.00  0.00    +0.000 A 
ATOM     14  C   UNL     1     104.434 124.447  80.255  0.00  0.00    +0.000 A 
ENDBRANCH   1   9
BRANCH   1  16
ATOM     15  C   UNL     1     104.687 127.993  81.540  0.00  0.00    +0.000 C 
ATOM     16  S   UNL     1     103.349 127.257  80.572  0.00  0.00    +0.000 S 
ENDBRANCH   1  16
TORSDOF 3
ENDMDL
