REMARK  Name = *****
REMARK  3 active torsions:
REMARK  status: ('A' for Active; 'I' for Inactive)
REMARK    1  A    between atoms: C_4  and  N_11
REMARK    2  A    between atoms: C_5  and  C_7
REMARK    3  A    between atoms: C_12  and  C_13
REMARK                            x       y       z     vdW  Elec       q    Type
REMARK                         _______ _______ _______ _____ _____    ______ ____
ROOT
ATOM      1  C   UNL     1       1.362  -0.282   0.124  0.00  0.00    +0.000 A 
ATOM      2  C   UNL     1       0.515  -1.383   0.186  0.00  0.00    +0.000 A 
ATOM      3  C   UNL     1      -0.866  -1.201   0.113  0.00  0.00    +0.000 A 
ATOM      4  C   UNL     1      -1.416   0.080  -0.035  0.00  0.00    +0.000 A 
ATOM      5  C   UNL     1      -0.566   1.195  -0.078  0.00  0.00    +0.000 A 
ATOM      6  C   UNL     1       0.826   1.000  -0.002  0.00  0.00    +0.000 A 
ENDROOT
BRANCH   5   7
ATOM      7  C   UNL     1      -1.135   2.583  -0.200  0.00  0.00    +0.000 C 
ATOM      8  F   UNL     1      -1.908   2.748  -1.311  0.00  0.00    +0.000 F 
ATOM      9  F   UNL     1      -1.900   2.958   0.863  0.00  0.00    +0.000 F 
ATOM     10  F   UNL     1      -0.167   3.545  -0.299  0.00  0.00    +0.000 F 
ENDBRANCH   5   7
BRANCH   4  11
ATOM     11  N   UNL     1      -2.809   0.225  -0.082  0.00  0.00    +0.000 NA
ATOM     12  C   UNL     1      -3.379  -0.035  -1.219  0.00  0.00    +0.000 C 
BRANCH  12  13
ATOM     13  C   UNL     1      -4.808   0.084  -1.367  0.00  0.00    +0.000 A 
ATOM     14  C   UNL     1      -5.746   0.488  -0.438  0.00  0.00    +0.000 A 
ATOM     15  C   UNL     1      -7.069   0.475  -0.967  0.00  0.00    +0.000 A 
ATOM     16  C   UNL     1      -7.094   0.061  -2.280  0.00  0.00    +0.000 A 
ATOM     17  S   UNL     1      -5.529  -0.306  -2.867  0.00  0.00    +0.000 S 
ENDBRANCH  12  13
ENDBRANCH   4  11
TORSDOF 3
