REMARK  Name = *****
REMARK  1 active torsions:
REMARK  status: ('A' for Active; 'I' for Inactive)
REMARK    1  A    between atoms: C_5  and  C_7
REMARK                            x       y       z     vdW  Elec       q    Type
REMARK                         _______ _______ _______ _____ _____    ______ ____
ROOT
ATOM      1  C   UNL     1      -0.535  -2.469  -0.239  0.00  0.00    +0.000 A 
ATOM      2  N   UNL     1      -1.399  -2.840  -1.166  0.00  0.00    +0.000 NA
ATOM      3  C   UNL     1      -1.797  -4.090  -0.775  0.00  0.00    +0.000 A 
ATOM      4  C   UNL     1      -1.142  -4.447   0.392  0.00  0.00    +0.000 A 
ATOM      5  O   UNL     1      -0.324  -3.414   0.741  0.00  0.00    +0.000 OA
ATOM      6  C   UNL     1      -1.311  -5.651   1.061  0.00  0.00    +0.000 A 
ATOM      7  C   UNL     1      -2.219  -6.530   0.471  0.00  0.00    +0.000 A 
ATOM      8  C   UNL     1      -2.906  -6.220  -0.706  0.00  0.00    +0.000 A 
ATOM      9  C   UNL     1      -2.705  -4.990  -1.350  0.00  0.00    +0.000 A 
ATOM     10  F   UNL     1      -2.441  -7.716   1.055  0.00  0.00    +0.000 F 
ENDROOT
BRANCH   1  15
ATOM     11  C   UNL     1       2.275  -0.122   0.670  0.00  0.00    +0.000 A 
ATOM     12  C   UNL     1       1.818   1.092   0.169  0.00  0.00    +0.000 A 
ATOM     13  C   UNL     1       0.578   1.154  -0.464  0.00  0.00    +0.000 A 
ATOM     14  C   UNL     1      -0.211   0.003  -0.603  0.00  0.00    +0.000 A 
ATOM     15  C   UNL     1       0.236  -1.234  -0.107  0.00  0.00    +0.000 A 
ATOM     16  C   UNL     1       1.492  -1.271   0.534  0.00  0.00    +0.000 A 
ATOM     17 CL   UNL     1      -1.750   0.216  -1.367  0.00  0.00    +0.000 Cl
ENDBRANCH   1  15
TORSDOF 1
