MODEL 1
REMARK VINA RESULT:      -4.5      0.000      0.000
REMARK  Name = *****
REMARK  3 active torsions:
REMARK  status: ('A' for Active; 'I' for Inactive)
REMARK    1  A    between atoms: C_4  and  C_7
REMARK    2  A    between atoms: C_7  and  N_8
REMARK    3  A    between atoms: C_9  and  C_10
REMARK                            x       y       z     vdW  Elec       q    Type
REMARK                         _______ _______ _______ _____ _____    ______ ____
ROOT
ATOM      1  N   UNL     1     103.582 128.947  83.076  0.00  0.00    +0.000 NA
ATOM      2  C   UNL     1     104.324 128.443  82.152  0.00  0.00    +0.000 C 
ATOM      3 CL   UNL     1     105.305 129.595  81.305  0.00  0.00    +0.000 Cl
ENDROOT
BRANCH   2   4
ATOM      4  C   UNL     1     104.372 127.029  81.744  0.00  0.00    +0.000 A 
ATOM      5  C   UNL     1     105.006 126.082  82.555  0.00  0.00    +0.000 A 
ATOM      6  C   UNL     1     105.025 124.743  82.162  0.00  0.00    +0.000 A 
ATOM      7  C   UNL     1     104.407 124.353  80.972  0.00  0.00    +0.000 A 
ATOM      8  C   UNL     1     103.765 125.300  80.172  0.00  0.00    +0.000 A 
ATOM      9  C   UNL     1     103.747 126.635  80.563  0.00  0.00    +0.000 A 
ATOM     10  F   UNL     1     103.135 127.533  79.780  0.00  0.00    +0.000 F 
ENDBRANCH   2   4
BRANCH   1  11
ATOM     11  C   UNL     1     102.748 128.073  83.900  0.00  0.00    +0.000 C 
BRANCH  11  15
ATOM     12  C   UNL     1      98.608 127.924  82.659  0.00  0.00    +0.000 A 
ATOM     13  C   UNL     1      99.445 126.840  82.405  0.00  0.00    +0.000 A 
ATOM     14  C   UNL     1     100.786 126.885  82.794  0.00  0.00    +0.000 A 
ATOM     15  C   UNL     1     101.310 128.020  83.429  0.00  0.00    +0.000 A 
ATOM     16  C   UNL     1     100.450 129.099  83.691  0.00  0.00    +0.000 A 
ATOM     17  C   UNL     1      99.110 129.052  83.303  0.00  0.00    +0.000 A 
ENDBRANCH  11  15
ENDBRANCH   1  11
TORSDOF 3
ENDMDL
