MODEL 1
REMARK VINA RESULT:      -4.3      0.000      0.000
REMARK  Name = *****
REMARK  2 active torsions:
REMARK  status: ('A' for Active; 'I' for Inactive)
REMARK    1  A    between atoms: C_4  and  C_6
REMARK    2  A    between atoms: C_7  and  C_8
REMARK                            x       y       z     vdW  Elec       q    Type
REMARK                         _______ _______ _______ _____ _____    ______ ____
ROOT
ATOM      1  C   UNL     1     103.421 125.956  80.856  0.00  0.00    +0.000 C 
ATOM      2  C   UNL     1     102.685 125.789  81.966  0.00  0.00    +0.000 C 
ENDROOT
BRANCH   2   3
ATOM      3  C   UNL     1     101.750 126.793  82.491  0.00  0.00    +0.000 A 
ATOM      4  C   UNL     1     100.359 126.639  82.403  0.00  0.00    +0.000 A 
ATOM      5  C   UNL     1      99.502 127.605  82.942  0.00  0.00    +0.000 A 
ATOM      6  C   UNL     1     100.033 128.724  83.580  0.00  0.00    +0.000 A 
ATOM      7  C   UNL     1     101.412 128.883  83.689  0.00  0.00    +0.000 A 
ATOM      8  C   UNL     1     102.267 127.916  83.150  0.00  0.00    +0.000 A 
ATOM      9 CL   UNL     1      98.979 129.911  84.242  0.00  0.00    +0.000 Cl
ENDBRANCH   2   3
BRANCH   1  13
ATOM     10  C   UNL     1     105.453 123.001  80.112  0.00  0.00    +0.000 A 
ATOM     11  C   UNL     1     105.934 123.958  79.257  0.00  0.00    +0.000 A 
ATOM     12  O   UNL     1     105.264 125.123  79.425  0.00  0.00    +0.000 OA
ATOM     13  C   UNL     1     104.316 124.943  80.410  0.00  0.00    +0.000 A 
ATOM     14  C   UNL     1     104.420 123.628  80.848  0.00  0.00    +0.000 A 
ENDBRANCH   1  13
TORSDOF 2
ENDMDL
