REMARK  Name = *****
REMARK  4 active torsions:
REMARK  status: ('A' for Active; 'I' for Inactive)
REMARK    1  A    between atoms: C_1  and  C_2
REMARK    2  A    between atoms: C_1  and  N_9
REMARK    3  A    between atoms: N_9  and  C_10
REMARK    4  A    between atoms: N_9  and  C_11
REMARK                            x       y       z     vdW  Elec       q    Type
REMARK                         _______ _______ _______ _____ _____    ______ ____
ROOT
ATOM      1  C   UNL     1       2.127  -0.083   0.517  0.00  0.00    +0.000 C 
ENDROOT
BRANCH   1   2
ATOM      2  C   UNL     1       1.210  -1.290   0.462  0.00  0.00    +0.000 A 
ATOM      3  C   UNL     1      -0.091  -1.172  -0.052  0.00  0.00    +0.000 A 
ATOM      4  C   UNL     1      -0.925  -2.290  -0.133  0.00  0.00    +0.000 A 
ATOM      5  C   UNL     1      -0.463  -3.533   0.292  0.00  0.00    +0.000 A 
ATOM      6  C   UNL     1       0.828  -3.671   0.795  0.00  0.00    +0.000 A 
ATOM      7  C   UNL     1       1.663  -2.554   0.874  0.00  0.00    +0.000 A 
ATOM      8 CL   UNL     1      -1.493  -4.908   0.192  0.00  0.00    +0.000 Cl
ENDBRANCH   1   2
BRANCH   1   9
ATOM      9  N   UNL     1       2.801   0.022   1.826  0.00  0.00    +0.000 N 
ATOM     10  C   UNL     1       1.940   0.457   2.928  0.00  0.00    +0.000 C 
BRANCH   9  11
ATOM     11  C   UNL     1       4.104   0.545   1.769  0.00  0.00    +0.000 A 
ATOM     12  C   UNL     1       5.079  -0.100   0.986  0.00  0.00    +0.000 A 
ATOM     13  C   UNL     1       6.393   0.372   0.906  0.00  0.00    +0.000 A 
ATOM     14  C   UNL     1       6.769   1.503   1.619  0.00  0.00    +0.000 A 
ATOM     15  C   UNL     1       5.832   2.153   2.415  0.00  0.00    +0.000 A 
ATOM     16  C   UNL     1       4.518   1.674   2.492  0.00  0.00    +0.000 A 
ENDBRANCH   9  11
ENDBRANCH   1   9
TORSDOF 3
