REMARK  Name = *****
REMARK  4 active torsions:
REMARK  status: ('A' for Active; 'I' for Inactive)
REMARK    1  A    between atoms: C_1  and  C_2
REMARK    2  A    between atoms: C_2  and  C_16
REMARK    3  A    between atoms: C_5  and  C_7
REMARK    4  A    between atoms: C_8  and  C_9
REMARK                            x       y       z     vdW  Elec       q    Type
REMARK                         _______ _______ _______ _____ _____    ______ ____
ROOT
ATOM      1  C   UNL     1       2.343   1.899   0.067  0.00  0.00    +0.000 C 
ATOM      2  C   UNL     1       3.632   1.536  -0.011  0.00  0.00    +0.000 C 
ENDROOT
BRANCH   1   7
ATOM      3  C   UNL     1      -1.791  -0.164   1.108  0.00  0.00    +0.000 C 
ATOM      4  C   UNL     1      -0.701  -0.063   0.047  0.00  0.00    +0.000 C 
ATOM      5  C   UNL     1       0.406  -1.087   0.260  0.00  0.00    +0.000 C 
ATOM      6  O   UNL     1       1.601  -0.365  -0.012  0.00  0.00    +0.000 OA
ATOM      7  C   UNL     1       1.237   0.936   0.077  0.00  0.00    +0.000 C 
ATOM      8  N   UNL     1      -0.016   1.240   0.166  0.00  0.00    +0.000 NA
ATOM      9  C   UNL     1      -1.306  -0.160  -1.357  0.00  0.00    +0.000 C 
ENDBRANCH   1   7
BRANCH   2  10
ATOM     10  C   UNL     1       4.753   2.486  -0.031  0.00  0.00    +0.000 A 
ATOM     11  C   UNL     1       4.746   3.674   0.713  0.00  0.00    +0.000 A 
ATOM     12  C   UNL     1       5.847   4.537   0.689  0.00  0.00    +0.000 A 
ATOM     13  C   UNL     1       6.966   4.209  -0.072  0.00  0.00    +0.000 A 
ATOM     14  C   UNL     1       6.997   3.026  -0.804  0.00  0.00    +0.000 A 
ATOM     15  C   UNL     1       5.895   2.165  -0.779  0.00  0.00    +0.000 A 
ATOM     16 CL   UNL     1       8.321   5.269  -0.101  0.00  0.00    +0.000 Cl
ENDBRANCH   2  10
TORSDOF 2
