REMARK  Name = *****
REMARK  2 active torsions:
REMARK  status: ('A' for Active; 'I' for Inactive)
REMARK    1  A    between atoms: C_3  and  C_8
REMARK    2  A    between atoms: C_9  and  C_10
REMARK                            x       y       z     vdW  Elec       q    Type
REMARK                         _______ _______ _______ _____ _____    ______ ____
ROOT
ATOM      1  C   UNL     1      -0.757   1.102   0.057  0.00  0.00    +0.000 A 
ATOM      2  C   UNL     1      -1.389  -0.138  -0.059  0.00  0.00    +0.000 A 
ATOM      3  C   UNL     1      -0.629  -1.308  -0.141  0.00  0.00    +0.000 A 
ATOM      4  C   UNL     1       0.765  -1.239  -0.108  0.00  0.00    +0.000 A 
ATOM      5  C   UNL     1       1.390   0.003   0.008  0.00  0.00    +0.000 A 
ATOM      6  C   UNL     1       0.636   1.173   0.090  0.00  0.00    +0.000 A 
ATOM      7 BR   UNL     1       3.277   0.101   0.053  0.00  0.00    +0.000 Br
ENDROOT
BRANCH   3   8
ATOM      8  C   UNL     1      -1.281  -2.576  -0.261  0.00  0.00    +0.000 C 
ATOM      9  C   UNL     1      -1.834  -3.637  -0.363  0.00  0.00    +0.000 C 
BRANCH   9  10
ATOM     10  C   UNL     1      -2.493  -4.895  -0.486  0.00  0.00    +0.000 A 
ATOM     11  C   UNL     1      -1.885  -6.123  -0.341  0.00  0.00    +0.000 A 
ATOM     12  C   UNL     1      -2.800  -7.203  -0.521  0.00  0.00    +0.000 A 
ATOM     13  C   UNL     1      -4.073  -6.757  -0.796  0.00  0.00    +0.000 A 
ATOM     14  S   UNL     1      -4.159  -5.048  -0.836  0.00  0.00    +0.000 S 
ENDBRANCH   9  10
ENDBRANCH   3   8
TORSDOF 2
