REMARK  Name = *****
REMARK  2 active torsions:
REMARK  status: ('A' for Active; 'I' for Inactive)
REMARK    1  A    between atoms: C_3  and  C_7
REMARK    2  A    between atoms: C_8  and  C_9
REMARK                            x       y       z     vdW  Elec       q    Type
REMARK                         _______ _______ _______ _____ _____    ______ ____
ROOT
ATOM      1  C   UNL     1      -1.303   0.574  -1.845  0.00  0.00    +0.000 C 
ATOM      2  C   UNL     1      -2.351   1.023  -2.554  0.00  0.00    +0.000 C 
ENDROOT
BRANCH   1   5
ATOM      3  C   UNL     1       1.144   1.024   0.060  0.00  0.00    +0.000 C 
ATOM      4  C   UNL     1      -0.320   1.384   0.333  0.00  0.00    +0.000 C 
ATOM      5  C   UNL     1      -1.314   0.421  -0.337  0.00  0.00    +0.000 C 
ATOM      6  C   UNL     1      -1.020  -1.036   0.082  0.00  0.00    +0.000 C 
ATOM      7  C   UNL     1       0.443  -1.374   0.156  0.00  0.00    +0.000 C 
ATOM      8  C   UNL     1       1.414  -0.450   0.132  0.00  0.00    +0.000 C 
ENDBRANCH   1   5
BRANCH   2   9
ATOM      9  C   UNL     1      -2.359   1.180  -4.015  0.00  0.00    +0.000 A 
ATOM     10  C   UNL     1      -1.692   0.293  -4.870  0.00  0.00    +0.000 A 
ATOM     11  C   UNL     1      -1.750   0.460  -6.256  0.00  0.00    +0.000 A 
ATOM     12  C   UNL     1      -2.486   1.509  -6.803  0.00  0.00    +0.000 A 
ATOM     13  C   UNL     1      -3.167   2.388  -5.965  0.00  0.00    +0.000 A 
ATOM     14  C   UNL     1      -3.108   2.221  -4.579  0.00  0.00    +0.000 A 
ENDBRANCH   2   9
TORSDOF 2
