REMARK  Name = *****
REMARK  4 active torsions:
REMARK  status: ('A' for Active; 'I' for Inactive)
REMARK    1  A    between atoms: C_6  and  C_9
REMARK    2  A    between atoms: C_9  and  C_10
REMARK    3  A    between atoms: C_10  and  S_11
REMARK    4  A    between atoms: S_11  and  C_12
REMARK                            x       y       z     vdW  Elec       q    Type
REMARK                         _______ _______ _______ _____ _____    ______ ____
ROOT
ATOM      1  C   UNL     1       1.883  -1.742   2.038  0.00  0.00    +0.000 C 
ENDROOT
BRANCH   1   7
ATOM      2  C   UNL     1       5.051  -0.917   2.304  0.00  0.00    +0.000 C 
ATOM      3  C   UNL     1       5.322  -1.258   0.825  0.00  0.00    +0.000 C 
ATOM      4  C   UNL     1       5.460   0.168   0.325  0.00  0.00    +0.000 C 
ATOM      5  C   UNL     1       4.568   0.914   1.004  0.00  0.00    +0.000 C 
ATOM      6  C   UNL     1       3.841  -0.018   1.959  0.00  0.00    +0.000 C 
ATOM      7  C   UNL     1       2.941  -1.042   1.210  0.00  0.00    +0.000 C 
ATOM      8  C   UNL     1       3.969  -1.878   0.442  0.00  0.00    +0.000 C 
ATOM      9  C   UNL     1       2.876  -1.160  -0.304  0.00  0.00    +0.000 C 
ENDBRANCH   1   7
BRANCH   1  10
ATOM     10  C   UNL     1       0.738  -0.826   2.478  0.00  0.00    +0.000 C 
BRANCH  10  11
ATOM     11  S   UNL     1      -0.309  -0.300   1.077  0.00  0.00    +0.000 S 
BRANCH  11  12
ATOM     12  C   UNL     1      -1.365   0.861   1.921  0.00  0.00    +0.000 A 
ATOM     13  C   UNL     1      -1.318   2.213   1.569  0.00  0.00    +0.000 A 
ATOM     14  C   UNL     1      -2.142   3.138   2.215  0.00  0.00    +0.000 A 
ATOM     15  C   UNL     1      -3.021   2.714   3.210  0.00  0.00    +0.000 A 
ATOM     16  C   UNL     1      -3.081   1.365   3.557  0.00  0.00    +0.000 A 
ATOM     17  C   UNL     1      -2.258   0.440   2.912  0.00  0.00    +0.000 A 
ENDBRANCH  11  12
ENDBRANCH  10  11
ENDBRANCH   1  10
TORSDOF 4
