MODEL 1
REMARK VINA RESULT:      -4.2      0.000      0.000
REMARK  Name = *****
REMARK  3 active torsions:
REMARK  status: ('A' for Active; 'I' for Inactive)
REMARK    1  A    between atoms: C_5  and  C_7
REMARK    2  A    between atoms: C_7  and  C_8
REMARK    3  A    between atoms: C_8  and  C_9
REMARK                            x       y       z     vdW  Elec       q    Type
REMARK                         _______ _______ _______ _____ _____    ______ ____
ROOT
ATOM      1  C   UNL     1     102.452 125.701  81.753  0.00  0.00    +0.000 C 
ENDROOT
BRANCH   1   6
ATOM      2  C   UNL     1     104.371 128.619  81.916  0.00  0.00    +0.000 C 
ATOM      3  C   UNL     1     104.377 128.568  80.385  0.00  0.00    +0.000 C 
ATOM      4  C   UNL     1     103.696 127.269  80.061  0.00  0.00    +0.000 C 
ATOM      5  C   UNL     1     104.465 125.976  80.033  0.00  0.00    +0.000 C 
ATOM      6  C   UNL     1     103.718 126.391  81.286  0.00  0.00    +0.000 C 
ATOM      7  C   UNL     1     104.475 127.156  82.358  0.00  0.00    +0.000 C 
ENDBRANCH   1   6
BRANCH   1   8
ATOM      8  C   UNL     1     101.984 126.033  83.172  0.00  0.00    +0.000 C 
BRANCH   8   9
ATOM      9  C   UNL     1     100.901 127.085  83.170  0.00  0.00    +0.000 A 
ATOM     10  C   UNL     1      99.659 126.821  82.577  0.00  0.00    +0.000 A 
ATOM     11  C   UNL     1      98.663 127.799  82.558  0.00  0.00    +0.000 A 
ATOM     12  C   UNL     1      98.901 129.049  83.128  0.00  0.00    +0.000 A 
ATOM     13  C   UNL     1     100.136 129.323  83.713  0.00  0.00    +0.000 A 
ATOM     14  C   UNL     1     101.133 128.346  83.733  0.00  0.00    +0.000 A 
ENDBRANCH   8   9
ENDBRANCH   1   8
TORSDOF 3
ENDMDL
