REMARK  Name = *****
REMARK  4 active torsions:
REMARK  status: ('A' for Active; 'I' for Inactive)
REMARK    1  A    between atoms: C_1  and  C_2
REMARK    2  A    between atoms: C_2  and  C_4
REMARK    3  A    between atoms: C_4  and  C_13
REMARK    4  A    between atoms: C_5  and  C_6
REMARK                            x       y       z     vdW  Elec       q    Type
REMARK                         _______ _______ _______ _____ _____    ______ ____
ROOT
ATOM      1  C   UNL     1       3.210   1.376  -0.139  0.00  0.00    +0.000 C 
ATOM      2  C   UNL     1       2.445   2.301  -0.752  0.00  0.00    +0.000 C 
ENDROOT
BRANCH   2   3
ATOM      3  C   UNL     1       0.988   2.440  -0.630  0.00  0.00    +0.000 A 
ATOM      4  C   UNL     1       0.377   2.685   0.606  0.00  0.00    +0.000 A 
ATOM      5  C   UNL     1      -1.011   2.826   0.692  0.00  0.00    +0.000 A 
ATOM      6  C   UNL     1      -1.789   2.734  -0.459  0.00  0.00    +0.000 A 
ATOM      7  C   UNL     1      -1.191   2.505  -1.697  0.00  0.00    +0.000 A 
ATOM      8  C   UNL     1       0.197   2.362  -1.783  0.00  0.00    +0.000 A 
ATOM      9 CL   UNL     1      -3.497   2.908  -0.355  0.00  0.00    +0.000 Cl
ENDBRANCH   2   3
BRANCH   1  10
ATOM     10  C   UNL     1       4.674   1.356  -0.330  0.00  0.00    +0.000 A 
ATOM     11  C   UNL     1       5.531   1.325   0.778  0.00  0.00    +0.000 A 
ATOM     12  C   UNL     1       6.917   1.291   0.605  0.00  0.00    +0.000 A 
ATOM     13  C   UNL     1       7.461   1.283  -0.677  0.00  0.00    +0.000 A 
ATOM     14  C   UNL     1       6.621   1.307  -1.788  0.00  0.00    +0.000 A 
ATOM     15  C   UNL     1       5.235   1.341  -1.617  0.00  0.00    +0.000 A 
ENDBRANCH   1  10
BRANCH   1  17
ATOM     16  C   UNL     1       1.911  -0.818   0.121  0.00  0.00    +0.000 C 
ATOM     17  C   UNL     1       2.574   0.370   0.766  0.00  0.00    +0.000 C 
ATOM     18  O   UNL     1       2.615   0.511   1.988  0.00  0.00    +0.000 OA
ENDBRANCH   1  17
TORSDOF 3
