MODEL 1
REMARK VINA RESULT:      -4.5      0.000      0.000
REMARK  Name = *****
REMARK  2 active torsions:
REMARK  status: ('A' for Active; 'I' for Inactive)
REMARK    1  A    between atoms: C_2  and  C_11
REMARK    2  A    between atoms: C_3  and  C_4
REMARK                            x       y       z     vdW  Elec       q    Type
REMARK                         _______ _______ _______ _____ _____    ______ ____
ROOT
ATOM      1  C   UNL     1      88.685  69.522  87.741  0.00  0.00    +0.000 C 
ATOM      2  C   UNL     1      88.056  68.644  86.691  0.00  0.00    +0.000 C 
ATOM      3  C   UNL     1      88.136  70.154  86.482  0.00  0.00    +0.000 C 
ATOM      4 BR   UNL     1      89.466  70.909  85.298  0.00  0.00    +0.000 Br
ENDROOT
BRANCH   3   5
ATOM      5  C   UNL     1      86.860  70.969  86.537  0.00  0.00    +0.000 A 
ATOM      6  C   UNL     1      86.266  71.328  87.760  0.00  0.00    +0.000 A 
ATOM      7  C   UNL     1      85.089  72.080  87.809  0.00  0.00    +0.000 A 
ATOM      8  C   UNL     1      84.480  72.496  86.629  0.00  0.00    +0.000 A 
ATOM      9  C   UNL     1      85.049  72.163  85.403  0.00  0.00    +0.000 A 
ATOM     10  C   UNL     1      86.225  71.411  85.361  0.00  0.00    +0.000 A 
ENDBRANCH   3   5
BRANCH   2  11
ATOM     11  C   UNL     1      88.886  67.661  85.898  0.00  0.00    +0.000 A 
ATOM     12  C   UNL     1      90.090  67.135  86.398  0.00  0.00    +0.000 A 
ATOM     13  C   UNL     1      90.838  66.203  85.673  0.00  0.00    +0.000 A 
ATOM     14  C   UNL     1      90.392  65.768  84.429  0.00  0.00    +0.000 A 
ATOM     15  C   UNL     1      89.196  66.261  83.916  0.00  0.00    +0.000 A 
ATOM     16  C   UNL     1      88.451  67.190  84.647  0.00  0.00    +0.000 A 
ENDBRANCH   2  11
TORSDOF 2
ENDMDL
