MODEL 1
REMARK VINA RESULT:      -4.9      0.000      0.000
REMARK  Name = *****
REMARK  2 active torsions:
REMARK  status: ('A' for Active; 'I' for Inactive)
REMARK    1  A    between atoms: C_5  and  C_6
REMARK    2  A    between atoms: C_6  and  C_7
REMARK                            x       y       z     vdW  Elec       q    Type
REMARK                         _______ _______ _______ _____ _____    ______ ____
ROOT
ATOM      1  C   UNL     1      88.492  70.507  88.571  0.00  0.00    +0.000 C 
ATOM      2  C   UNL     1      87.021  70.422  88.974  0.00  0.00    +0.000 C 
ATOM      3  C   UNL     1      86.696  68.927  88.812  0.00  0.00    +0.000 C 
ATOM      4  C   UNL     1      87.648  68.454  87.734  0.00  0.00    +0.000 C 
ATOM      5  C   UNL     1      87.692  67.220  87.201  0.00  0.00    +0.000 C 
ATOM      6  C   UNL     1      88.586  69.583  87.358  0.00  0.00    +0.000 C 
ATOM      7  C   UNL     1      88.164  70.242  86.072  0.00  0.00    +0.000 C 
ATOM      8  C   UNL     1      87.170  71.125  85.882  0.00  0.00    +0.000 C 
ATOM      9  C   UNL     1      86.213  71.612  86.849  0.00  0.00    +0.000 C 
ATOM     10  C   UNL     1      86.113  71.304  88.151  0.00  0.00    +0.000 C 
ENDROOT
BRANCH   5  11
ATOM     11  C   UNL     1      86.784  66.073  87.547  0.00  0.00    +0.000 C 
BRANCH  11  12
ATOM     12  C   UNL     1      87.255  65.314  88.765  0.00  0.00    +0.000 A 
ATOM     13  C   UNL     1      88.430  64.550  88.723  0.00  0.00    +0.000 A 
ATOM     14  C   UNL     1      88.862  63.853  89.854  0.00  0.00    +0.000 A 
ATOM     15  C   UNL     1      88.124  63.910  91.035  0.00  0.00    +0.000 A 
ATOM     16  C   UNL     1      86.953  64.664  91.088  0.00  0.00    +0.000 A 
ATOM     17  C   UNL     1      86.521  65.363  89.960  0.00  0.00    +0.000 A 
ENDBRANCH  11  12
ENDBRANCH   5  11
TORSDOF 2
ENDMDL
