MODEL 1
REMARK VINA RESULT:      -4.4      0.000      0.000
REMARK  Name = *****
REMARK  3 active torsions:
REMARK  status: ('A' for Active; 'I' for Inactive)
REMARK    1  A    between atoms: C_4  and  C_8
REMARK    2  A    between atoms: C_8  and  N_9
REMARK    3  A    between atoms: C_10  and  C_11
REMARK                            x       y       z     vdW  Elec       q    Type
REMARK                         _______ _______ _______ _____ _____    ______ ____
ROOT
ATOM      1  N   UNL     1      88.476  68.994  85.847  0.00  0.00    +0.000 NA
ATOM      2  C   UNL     1      89.198  68.261  86.621  0.00  0.00    +0.000 C 
ENDROOT
BRANCH   2   3
ATOM      3  C   UNL     1      89.180  66.784  86.564  0.00  0.00    +0.000 A 
ATOM      4  C   UNL     1      90.083  66.091  85.750  0.00  0.00    +0.000 A 
ATOM      5  C   UNL     1      90.075  64.696  85.687  0.00  0.00    +0.000 A 
ATOM      6  C   UNL     1      89.160  63.969  86.441  0.00  0.00    +0.000 A 
ATOM      7  C   UNL     1      88.254  64.644  87.259  0.00  0.00    +0.000 A 
ATOM      8  C   UNL     1      88.261  66.045  87.324  0.00  0.00    +0.000 A 
ATOM      9 CL   UNL     1      87.085  66.780  88.357  0.00  0.00    +0.000 Cl
ATOM     10  F   UNL     1      91.007  66.729  85.019  0.00  0.00    +0.000 F 
ENDBRANCH   2   3
BRANCH   1  11
ATOM     11  C   UNL     1      88.596  70.441  86.050  0.00  0.00    +0.000 C 
BRANCH  11  15
ATOM     12  C   UNL     1      84.936  72.070  87.691  0.00  0.00    +0.000 A 
ATOM     13  C   UNL     1      85.161  72.062  86.317  0.00  0.00    +0.000 A 
ATOM     14  C   UNL     1      86.351  71.538  85.814  0.00  0.00    +0.000 A 
ATOM     15  C   UNL     1      87.343  71.017  86.653  0.00  0.00    +0.000 A 
ATOM     16  C   UNL     1      87.101  71.030  88.035  0.00  0.00    +0.000 A 
ATOM     17  C   UNL     1      85.907  71.555  88.548  0.00  0.00    +0.000 A 
ATOM     18 CL   UNL     1      88.253  70.421  89.173  0.00  0.00    +0.000 Cl
ATOM     19  F   UNL     1      86.536  71.557  84.485  0.00  0.00    +0.000 F 
ENDBRANCH  11  15
ENDBRANCH   1  11
TORSDOF 3
ENDMDL
