MODEL 1
REMARK VINA RESULT:      -4.8      0.000      0.000
REMARK  Name = *****
REMARK  5 active torsions:
REMARK  status: ('A' for Active; 'I' for Inactive)
REMARK    1  A    between atoms: C_1  and  C_2
REMARK    2  A    between atoms: C_4  and  C_17
REMARK    3  A    between atoms: C_5  and  C_9
REMARK    4  A    between atoms: C_6  and  C_8
REMARK    5  A    between atoms: C_10  and  C_11
REMARK                            x       y       z     vdW  Elec       q    Type
REMARK                         _______ _______ _______ _____ _____    ______ ____
ROOT
ATOM      1  C   UNL     1      98.864 131.020  85.116  0.00  0.00    +0.000 C 
ATOM      2  C   UNL     1      99.701 129.959  84.468  0.00  0.00    +0.000 A 
ATOM      3  C   UNL     1      99.103 128.907  83.768  0.00  0.00    +0.000 A 
ATOM      4  C   UNL     1      99.879 127.923  83.134  0.00  0.00    +0.000 A 
ATOM      5  C   UNL     1     101.286 128.010  83.186  0.00  0.00    +0.000 A 
ATOM      6  C   UNL     1     101.900 129.071  83.886  0.00  0.00    +0.000 A 
ATOM      7  C   UNL     1     101.097 130.038  84.511  0.00  0.00    +0.000 A 
ATOM      8  C   UNL     1     103.398 129.208  83.962  0.00  0.00    +0.000 C 
ATOM      9  C   UNL     1      99.182 126.811  82.394  0.00  0.00    +0.000 C 
ENDROOT
BRANCH   5  10
ATOM     10  C   UNL     1     102.114 127.007  82.499  0.00  0.00    +0.000 C 
ATOM     11  C   UNL     1     102.539 125.898  83.125  0.00  0.00    +0.000 C 
BRANCH  11  12
ATOM     12  C   UNL     1     103.365 124.863  82.490  0.00  0.00    +0.000 A 
ATOM     13  C   UNL     1     103.658 124.944  81.132  0.00  0.00    +0.000 A 
ATOM     14  C   UNL     1     104.443 123.950  80.552  0.00  0.00    +0.000 A 
ATOM     15  C   UNL     1     104.912 122.907  81.340  0.00  0.00    +0.000 A 
ATOM     16  C   UNL     1     104.574 122.902  82.682  0.00  0.00    +0.000 A 
ATOM     17  N   UNL     1     103.815 123.852  83.270  0.00  0.00    +0.000 NA
ENDBRANCH  11  12
ENDBRANCH   5  10
TORSDOF 2
ENDMDL
