MODEL 1
REMARK VINA RESULT:      -4.5      0.000      0.000
REMARK  Name = *****
REMARK  2 active torsions:
REMARK  status: ('A' for Active; 'I' for Inactive)
REMARK    1  A    between atoms: C_1  and  C_2
REMARK    2  A    between atoms: N_10  and  C_11
REMARK                            x       y       z     vdW  Elec       q    Type
REMARK                         _______ _______ _______ _____ _____    ______ ____
ROOT
ATOM      1  C   UNL     1     105.188 125.534  83.082  0.00  0.00    +0.000 C 
ATOM      2  C   UNL     1     104.096 124.549  82.617  0.00  0.00    +0.000 C 
ATOM      3  C   UNL     1     104.607 123.108  82.695  0.00  0.00    +0.000 C 
ATOM      4  C   UNL     1     105.680 122.849  81.622  0.00  0.00    +0.000 C 
ATOM      5  C   UNL     1     105.267 123.299  80.209  0.00  0.00    +0.000 C 
ATOM      6  C   UNL     1     104.621 124.693  80.154  0.00  0.00    +0.000 C 
ATOM      7  C   UNL     1     103.543 124.763  81.216  0.00  0.00    +0.000 C 
ATOM      8  C   UNL     1     102.718 126.013  81.392  0.00  0.00    +0.000 C 
ATOM      9  C   UNL     1     102.197 125.768  82.788  0.00  0.00    +0.000 C 
ATOM     10  N   UNL     1     101.222 126.329  83.402  0.00  0.00    +0.000 NA
ATOM     11  O   UNL     1     102.938 124.798  83.421  0.00  0.00    +0.000 OA
ENDROOT
BRANCH  10  12
ATOM     12  C   UNL     1     100.460 127.379  82.722  0.00  0.00    +0.000 C 
ATOM     13  C   UNL     1     100.457 128.627  83.614  0.00  0.00    +0.000 C 
ATOM     14  C   UNL     1      99.621 128.453  84.882  0.00  0.00    +0.000 C 
ATOM     15  C   UNL     1      98.204 127.991  84.562  0.00  0.00    +0.000 C 
ATOM     16  C   UNL     1      98.207 126.716  83.724  0.00  0.00    +0.000 C 
ATOM     17  C   UNL     1      99.035 126.882  82.449  0.00  0.00    +0.000 C 
ENDBRANCH  10  12
TORSDOF 1
ENDMDL
