REMARK  Name = *****
REMARK  6 active torsions:
REMARK  status: ('A' for Active; 'I' for Inactive)
REMARK    1  A    between atoms: C_1  and  C_2
REMARK    2  A    between atoms: C_2  and  C_3
REMARK    3  A    between atoms: C_2  and  C_10
REMARK    4  A    between atoms: C_2  and  O_16
REMARK    5  A    between atoms: C_3  and  C_4
REMARK    6  A    between atoms: O_16  and  C_17
REMARK                            x       y       z     vdW  Elec       q    Type
REMARK                         _______ _______ _______ _____ _____    ______ ____
ROOT
ATOM      1  C   UNL     1       0.901  -0.119   0.379  0.00  0.00    +0.000 C 
ATOM      2  C   UNL     1       2.443  -0.138   0.351  0.00  0.00    +0.000 C 
ENDROOT
BRANCH   2   3
ATOM      3  C   UNL     1       3.109  -0.899   1.506  0.00  0.00    +0.000 A 
ATOM      4  C   UNL     1       2.381  -1.472   2.563  0.00  0.00    +0.000 A 
ATOM      5  C   UNL     1       3.025  -2.166   3.592  0.00  0.00    +0.000 A 
ATOM      6  C   UNL     1       4.409  -2.311   3.582  0.00  0.00    +0.000 A 
ATOM      7  C   UNL     1       5.151  -1.767   2.539  0.00  0.00    +0.000 A 
ATOM      8  C   UNL     1       4.507  -1.073   1.512  0.00  0.00    +0.000 A 
ENDBRANCH   2   3
BRANCH   2   9
ATOM      9  O   UNL     1       2.896  -0.737  -0.895  0.00  0.00    +0.000 OA
ATOM     10  C   UNL     1       2.424  -2.046  -1.185  0.00  0.00    +0.000 C 
ENDBRANCH   2   9
BRANCH   2  11
ATOM     11  C   UNL     1       2.967   1.333   0.243  0.00  0.00    +0.000 C 
BRANCH  11  12
ATOM     12  C   UNL     1       2.466   2.407   1.239  0.00  0.00    +0.000 C 
ATOM     13  C   UNL     1       3.006   3.783   0.794  0.00  0.00    +0.000 C 
ATOM     14  C   UNL     1       2.581   4.907   1.734  0.00  0.00    +0.000 C 
ATOM     15  C   UNL     1       2.997   4.615   3.170  0.00  0.00    +0.000 C 
ATOM     16  C   UNL     1       2.456   3.270   3.635  0.00  0.00    +0.000 C 
ATOM     17  C   UNL     1       2.860   2.133   2.697  0.00  0.00    +0.000 C 
ENDBRANCH  11  12
ENDBRANCH   2  11
TORSDOF 4
