REMARK  Name = *****
REMARK  4 active torsions:
REMARK  status: ('A' for Active; 'I' for Inactive)
REMARK    1  A    between atoms: C_1  and  O_2
REMARK    2  A    between atoms: O_2  and  C_3
REMARK    3  A    between atoms: C_6  and  C_9
REMARK    4  A    between atoms: C_10  and  C_11
REMARK                            x       y       z     vdW  Elec       q    Type
REMARK                         _______ _______ _______ _____ _____    ______ ____
ROOT
ATOM      1  C   UNL     1       3.132   1.075   0.361  0.00  0.00    +0.000 A 
ATOM      2  C   UNL     1       2.460   2.244   0.714  0.00  0.00    +0.000 A 
ATOM      3  C   UNL     1       3.180   3.383   1.100  0.00  0.00    +0.000 A 
ATOM      4  C   UNL     1       4.579   3.366   1.150  0.00  0.00    +0.000 A 
ATOM      5  C   UNL     1       5.247   2.195   0.778  0.00  0.00    +0.000 A 
ATOM      6  C   UNL     1       4.527   1.059   0.393  0.00  0.00    +0.000 A 
ENDROOT
BRANCH   1   8
ATOM      7  C   UNL     1       1.133  -0.137  -0.066  0.00  0.00    +0.000 C 
ATOM      8  O   UNL     1       2.554  -0.099  -0.033  0.00  0.00    +0.000 OA
ENDBRANCH   1   8
BRANCH   4   9
ATOM      9  C   UNL     1       5.371   4.549   1.517  0.00  0.00    +0.000 C 
ATOM     10  C   UNL     1       4.998   5.458   2.433  0.00  0.00    +0.000 C 
BRANCH  10  11
ATOM     11  C   UNL     1       5.827   6.664   2.804  0.00  0.00    +0.000 C 
ATOM     12  C   UNL     1       6.212   6.593   4.295  0.00  0.00    +0.000 C 
ATOM     13  C   UNL     1       6.751   7.932   4.794  0.00  0.00    +0.000 C 
ATOM     14  C   UNL     1       5.717   9.046   4.618  0.00  0.00    +0.000 C 
ATOM     15  C   UNL     1       5.028   8.998   3.286  0.00  0.00    +0.000 C 
ATOM     16  C   UNL     1       5.090   7.937   2.465  0.00  0.00    +0.000 C 
ENDBRANCH  10  11
ENDBRANCH   4   9
TORSDOF 3
