MODEL 1
REMARK VINA RESULT:      -4.3      0.000      0.000
REMARK  Name = *****
REMARK  4 active torsions:
REMARK  status: ('A' for Active; 'I' for Inactive)
REMARK    1  A    between atoms: C_1  and  N_2
REMARK    2  A    between atoms: N_2  and  C_3
REMARK    3  A    between atoms: N_2  and  P_9
REMARK    4  A    between atoms: P_9  and  C_11
REMARK                            x       y       z     vdW  Elec       q    Type
REMARK                         _______ _______ _______ _____ _____    ______ ____
ROOT
ATOM      1  P   UNL     1      88.260  65.958  86.366  0.00  0.00    +0.000 P 
ATOM      2  O   UNL     1      88.127  64.873  85.315  0.00  0.00    +0.000 OA
ATOM      3  I   UNL     1      86.449  67.504  85.828  0.00  0.00    +0.000 I 
ENDROOT
BRANCH   1   4
ATOM      4  C   UNL     1      87.920  65.293  88.008  0.00  0.00    +0.000 A 
ATOM      5  C   UNL     1      86.876  65.769  88.815  0.00  0.00    +0.000 A 
ATOM      6  C   UNL     1      86.653  65.229  90.084  0.00  0.00    +0.000 A 
ATOM      7  C   UNL     1      87.470  64.206  90.561  0.00  0.00    +0.000 A 
ATOM      8  C   UNL     1      88.512  63.724  89.773  0.00  0.00    +0.000 A 
ATOM      9  C   UNL     1      88.735  64.264  88.506  0.00  0.00    +0.000 A 
ENDBRANCH   1   4
BRANCH   1  11
ATOM     10  C   UNL     1      90.776  66.057  85.673  0.00  0.00    +0.000 C 
ATOM     11  N   UNL     1      89.697  66.822  86.287  0.00  0.00    +0.000 N 
BRANCH  11  12
ATOM     12  C   UNL     1      89.713  68.205  86.036  0.00  0.00    +0.000 A 
ATOM     13  C   UNL     1      89.529  69.167  87.040  0.00  0.00    +0.000 A 
ATOM     14  C   UNL     1      89.564  70.532  86.744  0.00  0.00    +0.000 A 
ATOM     15  C   UNL     1      89.774  70.959  85.436  0.00  0.00    +0.000 A 
ATOM     16  C   UNL     1      89.944  70.020  84.423  0.00  0.00    +0.000 A 
ATOM     17  C   UNL     1      89.910  68.656  84.724  0.00  0.00    +0.000 A 
ENDBRANCH  11  12
ENDBRANCH   1  11
TORSDOF 3
ENDMDL
