MODEL 1
REMARK VINA RESULT:      -4.6      0.000      0.000
REMARK  Name = *****
REMARK  4 active torsions:
REMARK  status: ('A' for Active; 'I' for Inactive)
REMARK    1  A    between atoms: C_1  and  C_2
REMARK    2  A    between atoms: C_4  and  N_9
REMARK    3  A    between atoms: C_5  and  C_8
REMARK    4  A    between atoms: C_10  and  C_11
REMARK                            x       y       z     vdW  Elec       q    Type
REMARK                         _______ _______ _______ _____ _____    ______ ____
ROOT
ATOM      1  C   UNL     1      98.272 126.688  82.673  0.00  0.00    +0.000 C 
ATOM      2  C   UNL     1      99.632 127.288  82.864  0.00  0.00    +0.000 A 
ATOM      3  C   UNL     1     100.779 126.579  82.487  0.00  0.00    +0.000 A 
ATOM      4  C   UNL     1     102.060 127.112  82.685  0.00  0.00    +0.000 A 
ATOM      5  C   UNL     1     102.201 128.360  83.312  0.00  0.00    +0.000 A 
ATOM      6  C   UNL     1     101.054 129.067  83.699  0.00  0.00    +0.000 A 
ATOM      7  C   UNL     1      99.782 128.535  83.479  0.00  0.00    +0.000 A 
ATOM      8  C   UNL     1     103.564 128.942  83.566  0.00  0.00    +0.000 C 
ENDROOT
BRANCH   4   9
ATOM      9  N   UNL     1     103.184 126.366  82.291  0.00  0.00    +0.000 NA
ATOM     10  C   UNL     1     103.064 125.716  81.177  0.00  0.00    +0.000 C 
BRANCH  10  11
ATOM     11  C   UNL     1     104.159 124.891  80.631  0.00  0.00    +0.000 A 
ATOM     12  C   UNL     1     104.993 125.384  79.622  0.00  0.00    +0.000 A 
ATOM     13  C   UNL     1     106.021 124.586  79.120  0.00  0.00    +0.000 A 
ATOM     14  C   UNL     1     106.213 123.299  79.625  0.00  0.00    +0.000 A 
ATOM     15  C   UNL     1     105.381 122.807  80.631  0.00  0.00    +0.000 A 
ATOM     16  C   UNL     1     104.351 123.603  81.136  0.00  0.00    +0.000 A 
ENDBRANCH  10  11
ENDBRANCH   4   9
TORSDOF 2
ENDMDL
