MODEL 1
REMARK VINA RESULT:      -4.5      0.000      0.000
REMARK  Name = *****
REMARK  5 active torsions:
REMARK  status: ('A' for Active; 'I' for Inactive)
REMARK    1  A    between atoms: C_1  and  C_2
REMARK    2  A    between atoms: C_7  and  C_8
REMARK    3  A    between atoms: C_8  and  C_10
REMARK    4  A    between atoms: C_10  and  C_11
REMARK    5  A    between atoms: C_11  and  C_12
REMARK                            x       y       z     vdW  Elec       q    Type
REMARK                         _______ _______ _______ _____ _____    ______ ____
ROOT
ATOM      1  C   UNL     1      89.434  70.092  86.542  0.00  0.00    +0.000 C 
ATOM      2  O   UNL     1      90.018  70.905  85.832  0.00  0.00    +0.000 OA
ENDROOT
BRANCH   1   9
ATOM      3  C   UNL     1      86.796  71.143  85.576  0.00  0.00    +0.000 C 
ATOM      4  C   UNL     1      87.138  71.040  87.038  0.00  0.00    +0.000 A 
ATOM      5  C   UNL     1      86.174  71.433  87.983  0.00  0.00    +0.000 A 
ATOM      6  C   UNL     1      86.439  71.359  89.351  0.00  0.00    +0.000 A 
ATOM      7  C   UNL     1      87.667  70.883  89.798  0.00  0.00    +0.000 A 
ATOM      8  C   UNL     1      88.633  70.478  88.876  0.00  0.00    +0.000 A 
ATOM      9  C   UNL     1      88.378  70.552  87.497  0.00  0.00    +0.000 A 
ENDBRANCH   1   9
BRANCH   1  10
ATOM     10  C   UNL     1      89.724  68.604  86.475  0.00  0.00    +0.000 C 
BRANCH  10  11
ATOM     11  C   UNL     1      88.478  67.815  86.072  0.00  0.00    +0.000 C 
BRANCH  11  12
ATOM     12  C   UNL     1      88.024  66.900  87.183  0.00  0.00    +0.000 A 
ATOM     13  C   UNL     1      88.676  65.680  87.408  0.00  0.00    +0.000 A 
ATOM     14  C   UNL     1      88.235  64.835  88.421  0.00  0.00    +0.000 A 
ATOM     15  C   UNL     1      87.150  65.177  89.219  0.00  0.00    +0.000 A 
ATOM     16  C   UNL     1      86.493  66.386  89.001  0.00  0.00    +0.000 A 
ATOM     17  C   UNL     1      86.926  67.243  87.986  0.00  0.00    +0.000 A 
ATOM     18  F   UNL     1      88.864  63.671  88.627  0.00  0.00    +0.000 F 
ENDBRANCH  11  12
ENDBRANCH  10  11
ENDBRANCH   1  10
TORSDOF 4
ENDMDL
