MODEL 1
REMARK VINA RESULT:      -4.6      0.000      0.000
REMARK  Name = *****
REMARK  4 active torsions:
REMARK  status: ('A' for Active; 'I' for Inactive)
REMARK    1  A    between atoms: C_1  and  C_2
REMARK    2  A    between atoms: C_4  and  O_8
REMARK    3  A    between atoms: O_8  and  C_9
REMARK    4  A    between atoms: C_9  and  C_10
REMARK                            x       y       z     vdW  Elec       q    Type
REMARK                         _______ _______ _______ _____ _____    ______ ____
ROOT
ATOM      1  O   UNL     1     102.603 126.973  83.139  0.00  0.00    +0.000 OA
ENDROOT
BRANCH   1   5
ATOM      2  C   UNL     1      99.343 130.645  83.995  0.00  0.00    +0.000 C 
ATOM      3  C   UNL     1      99.694 129.265  83.520  0.00  0.00    +0.000 A 
ATOM      4  C   UNL     1     101.020 128.806  83.591  0.00  0.00    +0.000 A 
ATOM      5  C   UNL     1     101.358 127.536  83.120  0.00  0.00    +0.000 A 
ATOM      6  C   UNL     1     100.365 126.728  82.561  0.00  0.00    +0.000 A 
ATOM      7  C   UNL     1      99.048 127.180  82.472  0.00  0.00    +0.000 A 
ATOM      8  C   UNL     1      98.715 128.447  82.946  0.00  0.00    +0.000 A 
ENDBRANCH   1   5
BRANCH   1   9
ATOM      9  C   UNL     1     102.686 125.585  83.466  0.00  0.00    +0.000 C 
BRANCH   9  10
ATOM     10  C   UNL     1     103.471 124.856  82.398  0.00  0.00    +0.000 A 
ATOM     11  C   UNL     1     103.533 125.365  81.093  0.00  0.00    +0.000 A 
ATOM     12  C   UNL     1     104.288 124.717  80.114  0.00  0.00    +0.000 A 
ATOM     13  C   UNL     1     104.996 123.559  80.429  0.00  0.00    +0.000 A 
ATOM     14  C   UNL     1     104.952 123.050  81.726  0.00  0.00    +0.000 A 
ATOM     15  C   UNL     1     104.199 123.698  82.706  0.00  0.00    +0.000 A 
ENDBRANCH   9  10
ENDBRANCH   1   9
TORSDOF 3
ENDMDL
