MODEL 1
REMARK VINA RESULT:      -4.3      0.000      0.000
REMARK  Name = *****
REMARK  2 active torsions:
REMARK  status: ('A' for Active; 'I' for Inactive)
REMARK    1  A    between atoms: C_4  and  C_7
REMARK    2  A    between atoms: C_8  and  C_9
REMARK                            x       y       z     vdW  Elec       q    Type
REMARK                         _______ _______ _______ _____ _____    ______ ____
ROOT
ATOM      1  C   UNL     1     102.473 125.493  82.623  0.00  0.00    +0.000 C 
ATOM      2  C   UNL     1     101.415 126.245  82.279  0.00  0.00    +0.000 C 
ATOM      3  F   UNL     1     102.636 125.180  83.931  0.00  0.00    +0.000 F 
ENDROOT
BRANCH   1   7
ATOM      4  C   UNL     1     105.493 123.972  79.984  0.00  0.00    +0.000 A 
ATOM      5  C   UNL     1     105.220 123.341  81.195  0.00  0.00    +0.000 A 
ATOM      6  C   UNL     1     104.233 123.852  82.042  0.00  0.00    +0.000 A 
ATOM      7  C   UNL     1     103.511 125.005  81.698  0.00  0.00    +0.000 A 
ATOM      8  C   UNL     1     103.789 125.620  80.467  0.00  0.00    +0.000 A 
ATOM      9  C   UNL     1     104.776 125.109  79.619  0.00  0.00    +0.000 A 
ENDBRANCH   1   7
BRANCH   2  10
ATOM     10  C   UNL     1     100.392 126.735  83.259  0.00  0.00    +0.000 C 
ATOM     11  C   UNL     1      99.030 126.869  82.625  0.00  0.00    +0.000 C 
ATOM     12  C   UNL     1      98.616 128.144  82.688  0.00  0.00    +0.000 C 
ATOM     13  C   UNL     1      99.624 128.941  83.342  0.00  0.00    +0.000 C 
ATOM     14  C   UNL     1     100.659 128.158  83.683  0.00  0.00    +0.000 C 
ENDBRANCH   2  10
TORSDOF 2
ENDMDL
