MODEL 1
REMARK VINA RESULT:      -4.8      0.000      0.000
REMARK  Name = *****
REMARK  4 active torsions:
REMARK  status: ('A' for Active; 'I' for Inactive)
REMARK    1  A    between atoms: C_1  and  O_2
REMARK    2  A    between atoms: O_2  and  C_3
REMARK    3  A    between atoms: C_6  and  C_9
REMARK    4  A    between atoms: C_10  and  C_11
REMARK                            x       y       z     vdW  Elec       q    Type
REMARK                         _______ _______ _______ _____ _____    ______ ____
ROOT
ATOM      1  C   UNL     1     102.944 125.375  82.030  0.00  0.00    +0.000 C 
ATOM      2  C   UNL     1     102.110 126.178  82.351  0.00  0.00    +0.000 C 
ENDROOT
BRANCH   2   3
ATOM      3  C   UNL     1     101.117 127.135  82.731  0.00  0.00    +0.000 A 
ATOM      4  C   UNL     1      99.767 126.875  82.491  0.00  0.00    +0.000 A 
ATOM      5  C   UNL     1      98.811 127.816  82.865  0.00  0.00    +0.000 A 
ATOM      6  C   UNL     1      99.176 129.009  83.473  0.00  0.00    +0.000 A 
ATOM      7  C   UNL     1     100.521 129.255  83.706  0.00  0.00    +0.000 A 
ATOM      8  C   UNL     1     101.497 128.332  83.342  0.00  0.00    +0.000 A 
ATOM      9  F   UNL     1     100.889 130.403  84.292  0.00  0.00    +0.000 F 
ATOM     10  F   UNL     1      97.516 127.564  82.633  0.00  0.00    +0.000 F 
ENDBRANCH   2   3
BRANCH   1  14
ATOM     11  C   UNL     1     105.887 122.554  80.885  0.00  0.00    +0.000 A 
ATOM     12  C   UNL     1     105.419 123.492  79.965  0.00  0.00    +0.000 A 
ATOM     13  C   UNL     1     104.444 124.423  80.344  0.00  0.00    +0.000 A 
ATOM     14  C   UNL     1     103.936 124.420  81.645  0.00  0.00    +0.000 A 
ATOM     15  C   UNL     1     104.400 123.483  82.567  0.00  0.00    +0.000 A 
ATOM     16  C   UNL     1     105.373 122.554  82.184  0.00  0.00    +0.000 A 
BRANCH  11  18
ATOM     17  C   UNL     1     106.832 120.463  81.507  0.00  0.00    +0.000 C 
ATOM     18  O   UNL     1     106.831 121.594  80.645  0.00  0.00    +0.000 OA
ENDBRANCH  11  18
ENDBRANCH   1  14
TORSDOF 3
ENDMDL
