MODEL 1
REMARK VINA RESULT:      -4.0      0.000      0.000
REMARK  Name = *****
REMARK  2 active torsions:
REMARK  status: ('A' for Active; 'I' for Inactive)
REMARK    1  A    between atoms: C_4  and  C_6
REMARK    2  A    between atoms: C_7  and  C_8
REMARK                            x       y       z     vdW  Elec       q    Type
REMARK                         _______ _______ _______ _____ _____    ______ ____
ROOT
ATOM      1  C   UNL     1     101.723 126.205  82.409  0.00  0.00    +0.000 C 
ATOM      2  C   UNL     1     102.659 125.486  82.177  0.00  0.00    +0.000 C 
ENDROOT
BRANCH   2   3
ATOM      3  C   UNL     1     103.768 124.626  81.908  0.00  0.00    +0.000 A 
ATOM      4  C   UNL     1     104.204 124.433  80.594  0.00  0.00    +0.000 A 
ATOM      5  C   UNL     1     105.286 123.591  80.330  0.00  0.00    +0.000 A 
ATOM      6  C   UNL     1     105.931 122.942  81.385  0.00  0.00    +0.000 A 
ATOM      7  C   UNL     1     105.501 123.130  82.699  0.00  0.00    +0.000 A 
ATOM      8  C   UNL     1     104.418 123.973  82.959  0.00  0.00    +0.000 A 
ATOM      9  I   UNL     1     107.541 121.688  80.995  0.00  0.00    +0.000 I 
ENDBRANCH   2   3
BRANCH   1  13
ATOM     10  C   UNL     1      98.415 127.820  82.748  0.00  0.00    +0.000 A 
ATOM     11  C   UNL     1      99.074 128.838  83.401  0.00  0.00    +0.000 A 
ATOM     12  S   UNL     1     100.757 128.543  83.512  0.00  0.00    +0.000 S 
ATOM     13  C   UNL     1     100.613 127.054  82.687  0.00  0.00    +0.000 A 
ATOM     14  C   UNL     1      99.308 126.787  82.333  0.00  0.00    +0.000 A 
ENDBRANCH   1  13
TORSDOF 2
ENDMDL
