MODEL 1
REMARK VINA RESULT:      -4.4      0.000      0.000
REMARK  Name = *****
REMARK  2 active torsions:
REMARK  status: ('A' for Active; 'I' for Inactive)
REMARK    1  A    between atoms: C_6  and  C_8
REMARK    2  A    between atoms: C_8  and  C_9
REMARK                            x       y       z     vdW  Elec       q    Type
REMARK                         _______ _______ _______ _____ _____    ______ ____
ROOT
ATOM      1  C   UNL     1      87.243  66.727  87.423  0.00  0.00    +0.000 C 
ATOM      2  C   UNL     1      88.528  65.907  87.370  0.00  0.00    +0.000 C 
ATOM      3  C   UNL     1      89.469  66.302  86.277  0.00  0.00    +0.000 C 
ATOM      4  C   UNL     1      89.944  67.534  86.051  0.00  0.00    +0.000 C 
ATOM      5  C   UNL     1      89.650  68.766  86.854  0.00  0.00    +0.000 C 
ATOM      6  C   UNL     1      88.157  69.117  87.009  0.00  0.00    +0.000 C 
ATOM      7  C   UNL     1      87.422  68.148  87.959  0.00  0.00    +0.000 C 
ENDROOT
BRANCH   6   8
ATOM      8  C   UNL     1      87.993  70.555  87.568  0.00  0.00    +0.000 C 
BRANCH   8   9
ATOM      9  C   UNL     1      86.683  71.221  87.219  0.00  0.00    +0.000 A 
ATOM     10  C   UNL     1      85.784  71.599  88.225  0.00  0.00    +0.000 A 
ATOM     11  C   UNL     1      84.575  72.217  87.900  0.00  0.00    +0.000 A 
ATOM     12  C   UNL     1      84.255  72.467  86.567  0.00  0.00    +0.000 A 
ATOM     13  C   UNL     1      85.144  72.103  85.559  0.00  0.00    +0.000 A 
ATOM     14  C   UNL     1      86.354  71.483  85.882  0.00  0.00    +0.000 A 
ENDBRANCH   8   9
ENDBRANCH   6   8
TORSDOF 2
ENDMDL
