MODEL 1
REMARK VINA RESULT:      -4.8      0.000      0.000
REMARK  Name = *****
REMARK  7 active torsions:
REMARK  status: ('A' for Active; 'I' for Inactive)
REMARK    1  A    between atoms: C_1  and  C_2
REMARK    2  A    between atoms: C_4  and  C_19
REMARK    3  A    between atoms: C_5  and  C_9
REMARK    4  A    between atoms: C_6  and  C_8
REMARK    5  A    between atoms: C_9  and  C_11
REMARK    6  A    between atoms: C_11  and  C_12
REMARK    7  A    between atoms: C_11  and  C_13
REMARK                            x       y       z     vdW  Elec       q    Type
REMARK                         _______ _______ _______ _____ _____    ______ ____
ROOT
ATOM      1  C   UNL     1      88.649  70.597  85.275  0.00  0.00    +0.000 C 
ATOM      2  O   UNL     1      89.682  71.261  85.288  0.00  0.00    +0.000 OA
ENDROOT
BRANCH   1   7
ATOM      3  C   UNL     1      84.035  72.348  88.296  0.00  0.00    +0.000 C 
ATOM      4  C   UNL     1      85.229  71.885  87.512  0.00  0.00    +0.000 A 
ATOM      5  C   UNL     1      85.294  72.100  86.131  0.00  0.00    +0.000 A 
ATOM      6  C   UNL     1      86.417  71.705  85.390  0.00  0.00    +0.000 A 
ATOM      7  C   UNL     1      87.482  71.070  86.060  0.00  0.00    +0.000 A 
ATOM      8  C   UNL     1      87.461  70.894  87.457  0.00  0.00    +0.000 A 
ATOM      9  C   UNL     1      86.318  71.299  88.166  0.00  0.00    +0.000 A 
ATOM     10  C   UNL     1      88.588  70.248  88.213  0.00  0.00    +0.000 C 
ATOM     11  C   UNL     1      86.442  71.958  83.907  0.00  0.00    +0.000 C 
ENDBRANCH   1   7
BRANCH   1  12
ATOM     12  C   UNL     1      88.474  69.295  84.495  0.00  0.00    +0.000 C 
ATOM     13  C   UNL     1      89.442  69.254  83.311  0.00  0.00    +0.000 C 
BRANCH  12  14
ATOM     14  C   UNL     1      88.633  68.073  85.384  0.00  0.00    +0.000 A 
ATOM     15  C   UNL     1      89.912  67.560  85.650  0.00  0.00    +0.000 A 
ATOM     16  C   UNL     1      90.070  66.434  86.460  0.00  0.00    +0.000 A 
ATOM     17  C   UNL     1      88.956  65.808  87.015  0.00  0.00    +0.000 A 
ATOM     18  C   UNL     1      87.681  66.306  86.759  0.00  0.00    +0.000 A 
ATOM     19  C   UNL     1      87.520  67.432  85.950  0.00  0.00    +0.000 A 
ENDBRANCH  12  14
ENDBRANCH   1  12
TORSDOF 3
ENDMDL
