REMARK  Name = *****
REMARK  5 active torsions:
REMARK  status: ('A' for Active; 'I' for Inactive)
REMARK    1  A    between atoms: C_4  and  C_7
REMARK    2  A    between atoms: C_7  and  C_9
REMARK    3  A    between atoms: C_9  and  C_10
REMARK    4  A    between atoms: C_10  and  C_11
REMARK    5  A    between atoms: C_10  and  C_16
REMARK                            x       y       z     vdW  Elec       q    Type
REMARK                         _______ _______ _______ _____ _____    ______ ____
ROOT
ATOM      1  C   UNL     1      -5.220  -0.165  -0.519  0.00  0.00    +0.000 C 
ENDROOT
BRANCH   1   2
ATOM      2  C   UNL     1      -6.166  -1.317  -0.824  0.00  0.00    +0.000 A 
ATOM      3  C   UNL     1      -6.535  -2.382  -0.022  0.00  0.00    +0.000 A 
ATOM      4  C   UNL     1      -7.442  -3.266  -0.674  0.00  0.00    +0.000 A 
ATOM      5  C   UNL     1      -7.733  -2.855  -1.954  0.00  0.00    +0.000 A 
ATOM      6  S   UNL     1      -6.916  -1.413  -2.366  0.00  0.00    +0.000 S 
ENDBRANCH   1   2
BRANCH   1   7
ATOM      7  C   UNL     1      -5.658   0.606   0.729  0.00  0.00    +0.000 C 
ATOM      8  F   UNL     1      -5.626  -0.181   1.834  0.00  0.00    +0.000 F 
ATOM      9  F   UNL     1      -4.855   1.661   0.986  0.00  0.00    +0.000 F 
ATOM     10  F   UNL     1      -6.917   1.084   0.608  0.00  0.00    +0.000 F 
ENDBRANCH   1   7
BRANCH   1  11
ATOM     11  C   UNL     1      -3.787  -0.708  -0.360  0.00  0.00    +0.000 C 
BRANCH  11  12
ATOM     12  C   UNL     1      -2.743   0.384  -0.500  0.00  0.00    +0.000 C 
ATOM     13  O   UNL     1      -2.996   1.449  -1.059  0.00  0.00    +0.000 OA
BRANCH  12  17
ATOM     14  C   UNL     1       1.236  -0.225   0.988  0.00  0.00    +0.000 A 
ATOM     15  C   UNL     1       0.385  -1.320   0.845  0.00  0.00    +0.000 A 
ATOM     16  C   UNL     1      -0.914  -1.143   0.362  0.00  0.00    +0.000 A 
ATOM     17  C   UNL     1      -1.367   0.138   0.023  0.00  0.00    +0.000 A 
ATOM     18  C   UNL     1      -0.503   1.233   0.161  0.00  0.00    +0.000 A 
ATOM     19  C   UNL     1       0.794   1.051   0.645  0.00  0.00    +0.000 A 
ENDBRANCH  12  17
ENDBRANCH  11  12
ENDBRANCH   1  11
TORSDOF 5
