MODEL 1
REMARK VINA RESULT:      -4.7      0.000      0.000
REMARK  Name = *****
REMARK  5 active torsions:
REMARK  status: ('A' for Active; 'I' for Inactive)
REMARK    1  A    between atoms: C_1  and  C_2
REMARK    2  A    between atoms: C_7  and  C_8
REMARK    3  A    between atoms: C_9  and  C_10
REMARK    4  A    between atoms: C_15  and  O_16
REMARK    5  A    between atoms: O_16  and  C_17
REMARK                            x       y       z     vdW  Elec       q    Type
REMARK                         _______ _______ _______ _____ _____    ______ ____
ROOT
ATOM      1  C   UNL     1      86.770  71.405  85.808  0.00  0.00    +0.000 C 
ATOM      2  C   UNL     1      87.399  71.927  84.743  0.00  0.00    +0.000 C 
ENDROOT
BRANCH   1   9
ATOM      3  C   UNL     1      86.082  71.523  88.722  0.00  0.00    +0.000 C 
ATOM      4  C   UNL     1      85.148  72.006  87.645  0.00  0.00    +0.000 A 
ATOM      5  C   UNL     1      83.890  72.513  88.009  0.00  0.00    +0.000 A 
ATOM      6  C   UNL     1      82.993  72.963  87.041  0.00  0.00    +0.000 A 
ATOM      7  C   UNL     1      83.338  72.910  85.693  0.00  0.00    +0.000 A 
ATOM      8  C   UNL     1      84.580  72.400  85.315  0.00  0.00    +0.000 A 
ATOM      9  C   UNL     1      85.489  71.940  86.280  0.00  0.00    +0.000 A 
ENDBRANCH   1   9
BRANCH   2  10
ATOM     10  C   UNL     1      88.699  71.455  84.236  0.00  0.00    +0.000 A 
ATOM     11  C   UNL     1      88.978  70.086  84.111  0.00  0.00    +0.000 A 
ATOM     12  C   UNL     1      90.194  69.646  83.578  0.00  0.00    +0.000 A 
ATOM     13  C   UNL     1      91.144  70.569  83.146  0.00  0.00    +0.000 A 
ATOM     14  C   UNL     1      90.880  71.933  83.247  0.00  0.00    +0.000 A 
ATOM     15  C   UNL     1      89.674  72.370  83.801  0.00  0.00    +0.000 A 
BRANCH  15  16
ATOM     16  O   UNL     1      89.443  73.724  83.850  0.00  0.00    +0.000 OA
ATOM     17  C   UNL     1      89.322  74.244  82.525  0.00  0.00    +0.000 C 
ENDBRANCH  15  16
ENDBRANCH   2  10
TORSDOF 3
ENDMDL
