MODEL 1
REMARK VINA RESULT:      -4.7      0.000      0.000
REMARK  Name = *****
REMARK  3 active torsions:
REMARK  status: ('A' for Active; 'I' for Inactive)
REMARK    1  A    between atoms: C_4  and  C_7
REMARK    2  A    between atoms: C_8  and  C_9
REMARK    3  A    between atoms: C_12  and  C_15
REMARK                            x       y       z     vdW  Elec       q    Type
REMARK                         _______ _______ _______ _____ _____    ______ ____
ROOT
ATOM      1  C   UNL     1      86.195  63.094  90.942  0.00  0.00    +0.000 C 
ATOM      2  C   UNL     1      85.564  62.072  90.913  0.00  0.00    +0.000 C 
ENDROOT
BRANCH   1   6
ATOM      3  C   UNL     1      88.438  64.656  88.411  0.00  0.00    +0.000 C 
ATOM      4  C   UNL     1      86.935  64.903  88.490  0.00  0.00    +0.000 C 
ATOM      5  C   UNL     1      86.505  65.325  89.897  0.00  0.00    +0.000 C 
ATOM      6  C   UNL     1      86.973  64.348  90.985  0.00  0.00    +0.000 C 
ATOM      7  C   UNL     1      88.477  64.068  90.869  0.00  0.00    +0.000 C 
ATOM      8  C   UNL     1      88.900  63.650  89.460  0.00  0.00    +0.000 C 
ENDBRANCH   1   6
BRANCH   2   9
ATOM      9  C   UNL     1      84.818  60.853  90.891  0.00  0.00    +0.000 A 
ATOM     10  C   UNL     1      85.484  59.624  90.915  0.00  0.00    +0.000 A 
ATOM     11  C   UNL     1      84.755  58.432  90.893  0.00  0.00    +0.000 A 
ATOM     12  C   UNL     1      83.358  58.475  90.845  0.00  0.00    +0.000 A 
ATOM     13  C   UNL     1      82.687  59.701  90.819  0.00  0.00    +0.000 A 
ATOM     14  C   UNL     1      83.421  60.890  90.843  0.00  0.00    +0.000 A 
BRANCH  12  15
ATOM     15  C   UNL     1      82.577  57.222  90.820  0.00  0.00    +0.000 C 
ATOM     16  O   UNL     1      82.876  56.282  90.095  0.00  0.00    +0.000 OA
ENDBRANCH  12  15
ENDBRANCH   2   9
TORSDOF 3
ENDMDL
