MODEL 1
REMARK VINA RESULT:      -4.0      0.000      0.000
REMARK  Name = *****
REMARK  2 active torsions:
REMARK  status: ('A' for Active; 'I' for Inactive)
REMARK    1  A    between atoms: C_4  and  C_6
REMARK    2  A    between atoms: C_7  and  C_8
REMARK                            x       y       z     vdW  Elec       q    Type
REMARK                         _______ _______ _______ _____ _____    ______ ____
ROOT
ATOM      1  C   UNL     1     102.695 126.230  81.786  0.00  0.00    +0.000 C 
ATOM      2  C   UNL     1     101.493 126.002  82.339  0.00  0.00    +0.000 C 
ENDROOT
BRANCH   2   3
ATOM      3  C   UNL     1     100.595 127.057  82.691  0.00  0.00    +0.000 A 
ATOM      4  C   UNL     1      99.226 127.198  82.511  0.00  0.00    +0.000 A 
ATOM      5  C   UNL     1      98.710 128.428  83.019  0.00  0.00    +0.000 A 
ATOM      6  C   UNL     1      99.706 129.188  83.572  0.00  0.00    +0.000 A 
ATOM      7  S   UNL     1     101.227 128.457  83.489  0.00  0.00    +0.000 S 
ATOM      8 BR   UNL     1      99.418 130.870  84.343  0.00  0.00    +0.000 Br
ENDBRANCH   2   3
BRANCH   1  12
ATOM      9  C   UNL     1     104.998 123.665  80.311  0.00  0.00    +0.000 A 
ATOM     10  C   UNL     1     105.087 123.193  81.598  0.00  0.00    +0.000 A 
ATOM     11  S   UNL     1     104.142 124.112  82.681  0.00  0.00    +0.000 S 
ATOM     12  C   UNL     1     103.588 125.174  81.432  0.00  0.00    +0.000 A 
ATOM     13  C   UNL     1     104.139 124.799  80.217  0.00  0.00    +0.000 A 
ENDBRANCH   1  12
TORSDOF 2
ENDMDL
