REMARK  Name = *****
REMARK  4 active torsions:
REMARK  status: ('A' for Active; 'I' for Inactive)
REMARK    1  A    between atoms: C_1  and  C_2
REMARK    2  A    between atoms: C_2  and  C_10
REMARK    3  A    between atoms: N_3  and  C_4
REMARK    4  A    between atoms: C_10  and  C_11
REMARK                            x       y       z     vdW  Elec       q    Type
REMARK                         _______ _______ _______ _____ _____    ______ ____
ROOT
ATOM      1  C   UNL     1       1.180   0.245  -0.358  0.00  0.00    +0.000 C 
ATOM      2  C   UNL     1       2.642   0.147   0.008  0.00  0.00    +0.000 C 
ATOM      3  N   UNL     1       3.220   0.827   0.940  0.00  0.00    +0.000 NA
ENDROOT
BRANCH   3   4
ATOM      4  C   UNL     1       2.473   1.791   1.746  0.00  0.00    +0.000 C 
ATOM      5  C   UNL     1       3.397   2.985   2.018  0.00  0.00    +0.000 C 
ATOM      6  C   UNL     1       2.752   3.989   2.970  0.00  0.00    +0.000 C 
ATOM      7  C   UNL     1       2.312   3.325   4.272  0.00  0.00    +0.000 C 
ATOM      8  C   UNL     1       1.405   2.125   4.014  0.00  0.00    +0.000 C 
ATOM      9  C   UNL     1       2.053   1.125   3.060  0.00  0.00    +0.000 C 
ENDBRANCH   3   4
BRANCH   2  10
ATOM     10  C   UNL     1       3.504  -0.792  -0.822  0.00  0.00    +0.000 C 
BRANCH  10  11
ATOM     11  C   UNL     1       3.740  -0.262  -2.216  0.00  0.00    +0.000 A 
ATOM     12  C   UNL     1       4.505   0.897  -2.408  0.00  0.00    +0.000 A 
ATOM     13  C   UNL     1       4.720   1.398  -3.692  0.00  0.00    +0.000 A 
ATOM     14  C   UNL     1       4.175   0.746  -4.796  0.00  0.00    +0.000 A 
ATOM     15  C   UNL     1       3.415  -0.409  -4.616  0.00  0.00    +0.000 A 
ATOM     16  C   UNL     1       3.197  -0.912  -3.332  0.00  0.00    +0.000 A 
ENDBRANCH  10  11
ENDBRANCH   2  10
TORSDOF 3
