REMARK  Name = *****
REMARK  4 active torsions:
REMARK  status: ('A' for Active; 'I' for Inactive)
REMARK    1  A    between atoms: C_4  and  S_7
REMARK    2  A    between atoms: S_7  and  C_8
REMARK    3  A    between atoms: C_8  and  C_9
REMARK    4  A    between atoms: C_12  and  C_15
REMARK                            x       y       z     vdW  Elec       q    Type
REMARK                         _______ _______ _______ _____ _____    ______ ____
ROOT
ATOM      1  C   UNL     1      -3.891  -0.726  -0.576  0.00  0.00    +0.000 C 
ENDROOT
BRANCH   1   2
ATOM      2  C   UNL     1      -5.390  -0.567  -0.668  0.00  0.00    +0.000 A 
ATOM      3  C   UNL     1      -5.948   0.551  -1.306  0.00  0.00    +0.000 A 
ATOM      4  C   UNL     1      -7.333   0.707  -1.381  0.00  0.00    +0.000 A 
ATOM      5  C   UNL     1      -8.171  -0.254  -0.810  0.00  0.00    +0.000 A 
ATOM      6  C   UNL     1      -7.631  -1.367  -0.162  0.00  0.00    +0.000 A 
ATOM      7  C   UNL     1      -6.244  -1.521  -0.092  0.00  0.00    +0.000 A 
BRANCH   5   8
ATOM      8  C   UNL     1      -9.637  -0.097  -0.880  0.00  0.00    +0.000 C 
ATOM      9  O   UNL     1     -10.167   0.849  -1.449  0.00  0.00    +0.000 OA
ENDBRANCH   5   8
ENDBRANCH   1   2
BRANCH   1  10
ATOM     10  S   UNL     1      -3.249  -0.053   0.992  0.00  0.00    +0.000 S 
BRANCH  10  14
ATOM     11  C   UNL     1       1.260  -0.317   0.213  0.00  0.00    +0.000 A 
ATOM     12  C   UNL     1       0.488  -1.478   0.186  0.00  0.00    +0.000 A 
ATOM     13  C   UNL     1      -0.887  -1.410   0.422  0.00  0.00    +0.000 A 
ATOM     14  C   UNL     1      -1.499  -0.178   0.678  0.00  0.00    +0.000 A 
ATOM     15  C   UNL     1      -0.716   0.980   0.718  0.00  0.00    +0.000 A 
ATOM     16  C   UNL     1       0.659   0.911   0.482  0.00  0.00    +0.000 A 
ENDBRANCH  10  14
ENDBRANCH   1  10
TORSDOF 4
