REMARK  Name = *****
REMARK  4 active torsions:
REMARK  status: ('A' for Active; 'I' for Inactive)
REMARK    1  A    between atoms: C_1  and  C_2
REMARK    2  A    between atoms: C_7  and  S_8
REMARK    3  A    between atoms: S_8  and  N_9
REMARK    4  A    between atoms: N_9  and  C_10
REMARK                            x       y       z     vdW  Elec       q    Type
REMARK                         _______ _______ _______ _____ _____    ______ ____
ROOT
ATOM      1  S   UNL     1       1.499  -2.532   0.263  0.00  0.00    +0.000 S 
ENDROOT
BRANCH   1   8
ATOM      2  C   UNL     1       2.423   0.534   0.274  0.00  0.00    +0.000 C 
ATOM      3  C   UNL     1       0.959   0.232   0.097  0.00  0.00    +0.000 A 
ATOM      4  C   UNL     1       0.064   1.302  -0.078  0.00  0.00    +0.000 A 
ATOM      5  C   UNL     1      -1.301   1.075  -0.251  0.00  0.00    +0.000 A 
ATOM      6  C   UNL     1      -1.794  -0.226  -0.257  0.00  0.00    +0.000 A 
ATOM      7  C   UNL     1      -0.918  -1.300  -0.095  0.00  0.00    +0.000 A 
ATOM      8  C   UNL     1       0.458  -1.085   0.074  0.00  0.00    +0.000 A 
ENDBRANCH   1   8
BRANCH   1   9
ATOM      9  N   UNL     1       2.278  -2.481  -1.207  0.00  0.00    +0.000 N 
ATOM     10  H   UNL     1       1.833  -2.024  -1.956  0.00  0.00    +0.000 HD
BRANCH   9  11
ATOM     11  C   UNL     1       3.547  -3.062  -1.433  0.00  0.00    +0.000 A 
ATOM     12  C   UNL     1       4.448  -3.388  -0.410  0.00  0.00    +0.000 A 
ATOM     13  C   UNL     1       5.719  -3.897  -0.700  0.00  0.00    +0.000 A 
ATOM     14  C   UNL     1       6.121  -4.065  -2.022  0.00  0.00    +0.000 A 
ATOM     15  C   UNL     1       5.256  -3.715  -3.054  0.00  0.00    +0.000 A 
ATOM     16  C   UNL     1       3.986  -3.208  -2.760  0.00  0.00    +0.000 A 
ENDBRANCH   9  11
ENDBRANCH   1   9
TORSDOF 3
