MODEL 1
REMARK VINA RESULT:      -4.7      0.000      0.000
REMARK  Name = *****
REMARK  3 active torsions:
REMARK  status: ('A' for Active; 'I' for Inactive)
REMARK    1  A    between atoms: C_4  and  C_7
REMARK    2  A    between atoms: C_8  and  C_9
REMARK    3  A    between atoms: C_9  and  C_10
REMARK                            x       y       z     vdW  Elec       q    Type
REMARK                         _______ _______ _______ _____ _____    ______ ____
ROOT
ATOM      1  C   UNL     1     101.326 126.935  82.429  0.00  0.00    +0.000 C 
ATOM      2  C   UNL     1     100.022 126.615  82.420  0.00  0.00    +0.000 C 
ENDROOT
BRANCH   1   6
ATOM      3  C   UNL     1     104.441 124.063  81.836  0.00  0.00    +0.000 A 
ATOM      4  C   UNL     1     103.937 124.273  83.117  0.00  0.00    +0.000 A 
ATOM      5  C   UNL     1     102.925 125.212  83.327  0.00  0.00    +0.000 A 
ATOM      6  C   UNL     1     102.413 125.961  82.257  0.00  0.00    +0.000 A 
ATOM      7  C   UNL     1     102.917 125.728  80.971  0.00  0.00    +0.000 A 
ATOM      8  C   UNL     1     103.929 124.789  80.762  0.00  0.00    +0.000 A 
ENDBRANCH   1   6
BRANCH   2   9
ATOM      9  C   UNL     1      98.976 127.594  82.610  0.00  0.00    +0.000 C 
BRANCH   9  10
ATOM     10  C   UNL     1      98.920 128.645  83.635  0.00  0.00    +0.000 A 
ATOM     11  C   UNL     1      99.407 129.923  83.333  0.00  0.00    +0.000 A 
ATOM     12  C   UNL     1      99.346 130.950  84.277  0.00  0.00    +0.000 A 
ATOM     13  C   UNL     1      98.786 130.712  85.531  0.00  0.00    +0.000 A 
ATOM     14  C   UNL     1      98.286 129.450  85.839  0.00  0.00    +0.000 A 
ATOM     15  C   UNL     1      98.348 128.421  84.893  0.00  0.00    +0.000 A 
ENDBRANCH   9  10
ENDBRANCH   2   9
TORSDOF 3
ENDMDL
