MODEL 1
REMARK VINA RESULT:      -5.0      0.000      0.000
REMARK  Name = *****
REMARK  3 active torsions:
REMARK  status: ('A' for Active; 'I' for Inactive)
REMARK    1  A    between atoms: C_1  and  C_2
REMARK    2  A    between atoms: C_8  and  C_18
REMARK    3  A    between atoms: C_10  and  C_12
REMARK                            x       y       z     vdW  Elec       q    Type
REMARK                         _______ _______ _______ _____ _____    ______ ____
ROOT
ATOM      1  C   UNL     1     103.309 128.130  85.110  0.00  0.00    +0.000 C 
ATOM      2  C   UNL     1     102.995 128.092  83.619  0.00  0.00    +0.000 C 
ATOM      3  C   UNL     1     101.530 128.224  83.203  0.00  0.00    +0.000 C 
ATOM      4  C   UNL     1     100.727 129.284  83.965  0.00  0.00    +0.000 C 
ATOM      5  C   UNL     1      99.327 129.437  83.369  0.00  0.00    +0.000 C 
ATOM      6  C   UNL     1      98.594 128.103  83.250  0.00  0.00    +0.000 C 
ATOM      7  C   UNL     1      99.433 127.049  82.524  0.00  0.00    +0.000 C 
ATOM      8  C   UNL     1     100.830 126.858  83.164  0.00  0.00    +0.000 C 
ATOM      9  N   UNL     1     101.592 125.962  82.293  0.00  0.00    +0.000 NA
ATOM     10  C   UNL     1     102.877 126.032  82.333  0.00  0.00    +0.000 C 
ATOM     11  O   UNL     1     103.610 126.917  83.048  0.00  0.00    +0.000 OA
ATOM     12  C   UNL     1     100.670 126.144  84.518  0.00  0.00    +0.000 C 
ENDROOT
BRANCH  10  13
ATOM     13  C   UNL     1     103.757 125.111  81.565  0.00  0.00    +0.000 A 
ATOM     14  C   UNL     1     104.104 123.877  82.132  0.00  0.00    +0.000 A 
ATOM     15  C   UNL     1     104.928 122.987  81.439  0.00  0.00    +0.000 A 
ATOM     16  C   UNL     1     105.414 123.325  80.177  0.00  0.00    +0.000 A 
ATOM     17  C   UNL     1     105.078 124.551  79.605  0.00  0.00    +0.000 A 
ATOM     18  C   UNL     1     104.252 125.443  80.295  0.00  0.00    +0.000 A 
ENDBRANCH  10  13
TORSDOF 1
ENDMDL
