MODEL 1
REMARK VINA RESULT:      -4.7      0.000      0.000
REMARK  Name = *****
REMARK  4 active torsions:
REMARK  status: ('A' for Active; 'I' for Inactive)
REMARK    1  A    between atoms: C_5  and  C_7
REMARK    2  A    between atoms: C_7  and  S_8
REMARK    3  A    between atoms: S_8  and  C_9
REMARK    4  A    between atoms: C_9  and  C_10
REMARK                            x       y       z     vdW  Elec       q    Type
REMARK                         _______ _______ _______ _____ _____    ______ ____
ROOT
ATOM      1  S   UNL     1     102.921 125.565  83.630  0.00  0.00    +0.000 S 
ENDROOT
BRANCH   1   2
ATOM      2  C   UNL     1     101.688 125.987  82.361  0.00  0.00    +0.000 C 
BRANCH   2   7
ATOM      3  C   UNL     1     100.586 129.327  83.835  0.00  0.00    +0.000 A 
ATOM      4  C   UNL     1      99.218 129.313  83.561  0.00  0.00    +0.000 A 
ATOM      5  C   UNL     1      98.654 128.224  82.901  0.00  0.00    +0.000 A 
ATOM      6  C   UNL     1      99.462 127.156  82.517  0.00  0.00    +0.000 A 
ATOM      7  C   UNL     1     100.835 127.152  82.778  0.00  0.00    +0.000 A 
ATOM      8  C   UNL     1     101.391 128.253  83.447  0.00  0.00    +0.000 A 
ATOM      9  F   UNL     1      98.898 126.121  81.878  0.00  0.00    +0.000 F 
ENDBRANCH   2   7
ENDBRANCH   1   2
BRANCH   1  10
ATOM     10  C   UNL     1     104.328 125.231  82.528  0.00  0.00    +0.000 C 
BRANCH  10  11
ATOM     11  C   UNL     1     104.456 123.766  82.213  0.00  0.00    +0.000 A 
ATOM     12  C   UNL     1     104.447 122.804  83.236  0.00  0.00    +0.000 A 
ATOM     13  C   UNL     1     104.570 121.446  82.933  0.00  0.00    +0.000 A 
ATOM     14  C   UNL     1     104.704 121.033  81.606  0.00  0.00    +0.000 A 
ATOM     15  C   UNL     1     104.716 121.978  80.584  0.00  0.00    +0.000 A 
ATOM     16  C   UNL     1     104.595 123.331  80.892  0.00  0.00    +0.000 A 
ATOM     17  F   UNL     1     104.603 124.222  79.891  0.00  0.00    +0.000 F 
ENDBRANCH  10  11
ENDBRANCH   1  10
TORSDOF 4
ENDMDL
