MODEL 1
REMARK VINA RESULT:      -4.7      0.000      0.000
REMARK  Name = *****
REMARK  3 active torsions:
REMARK  status: ('A' for Active; 'I' for Inactive)
REMARK    1  A    between atoms: C_1  and  C_2
REMARK    2  A    between atoms: C_5  and  C_8
REMARK    3  A    between atoms: C_10  and  C_11
REMARK                            x       y       z     vdW  Elec       q    Type
REMARK                         _______ _______ _______ _____ _____    ______ ____
ROOT
ATOM      1  C   UNL     1      89.205  69.971  86.245  0.00  0.00    +0.000 C 
ATOM      2  C   UNL     1      87.991  70.839  86.031  0.00  0.00    +0.000 C 
ATOM      3  C   UNL     1      88.842  70.457  84.847  0.00  0.00    +0.000 C 
ENDROOT
BRANCH   1   8
ATOM      4  C   UNL     1      88.571  64.308  87.566  0.00  0.00    +0.000 C 
ATOM      5  C   UNL     1      88.721  65.755  87.204  0.00  0.00    +0.000 A 
ATOM      6  C   UNL     1      87.769  66.692  87.615  0.00  0.00    +0.000 A 
ATOM      7  C   UNL     1      87.928  68.047  87.304  0.00  0.00    +0.000 A 
ATOM      8  C   UNL     1      89.046  68.510  86.593  0.00  0.00    +0.000 A 
ATOM      9  C   UNL     1      89.994  67.556  86.194  0.00  0.00    +0.000 A 
ATOM     10  C   UNL     1      89.843  66.200  86.500  0.00  0.00    +0.000 A 
ENDBRANCH   1   8
BRANCH   3  11
ATOM     11  C   UNL     1      89.707  71.490  84.166  0.00  0.00    +0.000 A 
ATOM     12  C   UNL     1      91.031  71.202  83.794  0.00  0.00    +0.000 A 
ATOM     13  C   UNL     1      91.830  72.150  83.147  0.00  0.00    +0.000 A 
ATOM     14  C   UNL     1      91.309  73.406  82.854  0.00  0.00    +0.000 A 
ATOM     15  C   UNL     1      89.999  73.719  83.200  0.00  0.00    +0.000 A 
ATOM     16  C   UNL     1      89.206  72.765  83.847  0.00  0.00    +0.000 A 
ATOM     17 CL   UNL     1      92.288  74.576  82.059  0.00  0.00    +0.000 Cl
ENDBRANCH   3  11
TORSDOF 2
ENDMDL
