MODEL 1
REMARK VINA RESULT:      -4.3      0.000      0.000
REMARK  Name = *****
REMARK  4 active torsions:
REMARK  status: ('A' for Active; 'I' for Inactive)
REMARK    1  A    between atoms: C_4  and  C_7
REMARK    2  A    between atoms: C_7  and  C_8
REMARK    3  A    between atoms: C_8  and  C_9
REMARK    4  A    between atoms: C_9  and  C_11
REMARK                            x       y       z     vdW  Elec       q    Type
REMARK                         _______ _______ _______ _____ _____    ______ ____
ROOT
ATOM      1  C   UNL     1      88.705  67.403  85.942  0.00  0.00    +0.000 C 
ATOM      2  O   UNL     1      88.260  67.212  84.812  0.00  0.00    +0.000 OA
ENDROOT
BRANCH   1   3
ATOM      3  C   UNL     1      88.076  66.694  87.100  0.00  0.00    +0.000 A 
ATOM      4  C   UNL     1      88.621  65.528  87.648  0.00  0.00    +0.000 A 
ATOM      5  C   UNL     1      87.986  64.910  88.728  0.00  0.00    +0.000 A 
ATOM      6  C   UNL     1      86.815  65.440  89.268  0.00  0.00    +0.000 A 
ATOM      7  C   UNL     1      86.269  66.601  88.725  0.00  0.00    +0.000 A 
ATOM      8  C   UNL     1      86.896  67.225  87.644  0.00  0.00    +0.000 A 
ATOM      9 CL   UNL     1      88.658  63.476  89.401  0.00  0.00    +0.000 Cl
ENDBRANCH   1   3
BRANCH   1  10
ATOM     10  C   UNL     1      89.871  68.337  86.207  0.00  0.00    +0.000 C 
BRANCH  10  11
ATOM     11  C   UNL     1      89.526  69.785  85.857  0.00  0.00    +0.000 C 
BRANCH  11  15
ATOM     12  C   UNL     1      86.652  71.383  88.647  0.00  0.00    +0.000 A 
ATOM     13  C   UNL     1      87.875  70.898  89.107  0.00  0.00    +0.000 A 
ATOM     14  C   UNL     1      88.809  70.387  88.204  0.00  0.00    +0.000 A 
ATOM     15  C   UNL     1      88.528  70.360  86.832  0.00  0.00    +0.000 A 
ATOM     16  C   UNL     1      87.293  70.845  86.380  0.00  0.00    +0.000 A 
ATOM     17  C   UNL     1      86.361  71.357  87.284  0.00  0.00    +0.000 A 
ENDBRANCH  11  15
ENDBRANCH  10  11
ENDBRANCH   1  10
TORSDOF 4
ENDMDL
