MODEL 1
REMARK VINA RESULT:      -4.5      0.000      0.000
REMARK  Name = *****
REMARK  4 active torsions:
REMARK  status: ('A' for Active; 'I' for Inactive)
REMARK    1  A    between atoms: C_1  and  C_2
REMARK    2  A    between atoms: C_3  and  C_17
REMARK    3  A    between atoms: C_7  and  C_9
REMARK    4  A    between atoms: C_10  and  C_11
REMARK                            x       y       z     vdW  Elec       q    Type
REMARK                         _______ _______ _______ _____ _____    ______ ____
ROOT
ATOM      1  C   UNL     1     100.552 129.636  86.097  0.00  0.00    +0.000 C 
ATOM      2  C   UNL     1      99.854 128.586  85.267  0.00  0.00    +0.000 C 
ATOM      3  C   UNL     1      99.321 127.445  85.766  0.00  0.00    +0.000 C 
ATOM      4  C   UNL     1      98.548 126.433  84.941  0.00  0.00    +0.000 C 
ATOM      5  S   UNL     1      97.831 127.102  83.415  0.00  0.00    +0.000 S 
ATOM      6  O   UNL     1      97.454 125.957  82.520  0.00  0.00    +0.000 OA
ATOM      7  C   UNL     1      99.395 127.838  82.810  0.00  0.00    +0.000 C 
ATOM      8  C   UNL     1      99.796 128.954  83.789  0.00  0.00    +0.000 C 
ATOM      9  C   UNL     1      99.447 127.017  87.209  0.00  0.00    +0.000 C 
ENDROOT
BRANCH   7  10
ATOM     10  C   UNL     1     100.423 126.776  82.474  0.00  0.00    +0.000 C 
ATOM     11  C   UNL     1     101.750 126.939  82.337  0.00  0.00    +0.000 C 
BRANCH  11  12
ATOM     12  C   UNL     1     102.682 125.848  82.022  0.00  0.00    +0.000 A 
ATOM     13  C   UNL     1     103.170 125.629  80.726  0.00  0.00    +0.000 A 
ATOM     14  C   UNL     1     104.080 124.601  80.473  0.00  0.00    +0.000 A 
ATOM     15  C   UNL     1     104.521 123.785  81.514  0.00  0.00    +0.000 A 
ATOM     16  C   UNL     1     104.055 124.002  82.809  0.00  0.00    +0.000 A 
ATOM     17  C   UNL     1     103.145 125.032  83.062  0.00  0.00    +0.000 A 
ENDBRANCH  11  12
ENDBRANCH   7  10
TORSDOF 2
ENDMDL
