REMARK  Name = *****
REMARK  2 active torsions:
REMARK  status: ('A' for Active; 'I' for Inactive)
REMARK    1  A    between atoms: C_4  and  C_7
REMARK    2  A    between atoms: C_8  and  C_11
REMARK                            x       y       z     vdW  Elec       q    Type
REMARK                         _______ _______ _______ _____ _____    ______ ____
ROOT
ATOM      1  C   UNL     1      -2.390  -0.174  -0.229  0.00  0.00    +0.000 C 
ATOM      2  C   UNL     1      -2.724  -1.325   0.346  0.00  0.00    +0.000 C 
ATOM      3  C   UNL     1      -3.436  -0.959  -0.881  0.00  0.00    +0.000 C 
ATOM      4  O   UNL     1      -4.606  -0.704  -1.039  0.00  0.00    +0.000 OA
ENDROOT
BRANCH   2   5
ATOM      5  C   UNL     1      -1.807  -2.410   0.651  0.00  0.00    +0.000 A 
ATOM      6  C   UNL     1      -1.305  -2.510   1.958  0.00  0.00    +0.000 A 
ATOM      7  C   UNL     1      -0.399  -3.518   2.292  0.00  0.00    +0.000 A 
ATOM      8  C   UNL     1       0.001  -4.428   1.322  0.00  0.00    +0.000 A 
ATOM      9  C   UNL     1      -0.493  -4.353   0.025  0.00  0.00    +0.000 A 
ATOM     10  C   UNL     1      -1.400  -3.346  -0.312  0.00  0.00    +0.000 A 
ATOM     11  F   UNL     1       0.875  -5.392   1.641  0.00  0.00    +0.000 F 
ENDBRANCH   2   5
BRANCH   1  15
ATOM     12  C   UNL     1       1.550   0.938  -1.391  0.00  0.00    +0.000 A 
ATOM     13  C   UNL     1       0.709   0.326  -2.318  0.00  0.00    +0.000 A 
ATOM     14  C   UNL     1      -0.591  -0.034  -1.955  0.00  0.00    +0.000 A 
ATOM     15  C   UNL     1      -1.057   0.211  -0.656  0.00  0.00    +0.000 A 
ATOM     16  C   UNL     1      -0.206   0.839   0.264  0.00  0.00    +0.000 A 
ATOM     17  C   UNL     1       1.093   1.197  -0.101  0.00  0.00    +0.000 A 
ENDBRANCH   1  15
TORSDOF 2
