MODEL 1
REMARK VINA RESULT:      -4.2      0.000      0.000
REMARK  Name = *****
REMARK  5 active torsions:
REMARK  status: ('A' for Active; 'I' for Inactive)
REMARK    1  A    between atoms: C_1  and  C_2
REMARK    2  A    between atoms: C_2  and  C_3
REMARK    3  A    between atoms: C_2  and  N_8
REMARK    4  A    between atoms: N_8  and  C_9
REMARK    5  A    between atoms: N_8  and  C_10
REMARK                            x       y       z     vdW  Elec       q    Type
REMARK                         _______ _______ _______ _____ _____    ______ ____
ROOT
ATOM      1  N   UNL     1     101.631 126.641  83.310  0.00  0.00    +0.000 N 
ATOM      2  C   UNL     1     101.532 125.855  84.538  0.00  0.00    +0.000 C 
ENDROOT
BRANCH   1   3
ATOM      3  C   UNL     1     102.536 126.249  82.321  0.00  0.00    +0.000 A 
ATOM      4  C   UNL     1     102.889 127.105  81.261  0.00  0.00    +0.000 A 
ATOM      5  C   UNL     1     103.806 126.727  80.270  0.00  0.00    +0.000 A 
ATOM      6  C   UNL     1     104.400 125.475  80.322  0.00  0.00    +0.000 A 
ATOM      7  C   UNL     1     104.087 124.604  81.356  0.00  0.00    +0.000 A 
ATOM      8  C   UNL     1     103.170 124.993  82.342  0.00  0.00    +0.000 A 
ATOM      9 CL   UNL     1     105.527 125.006  79.110  0.00  0.00    +0.000 Cl
ENDBRANCH   1   3
BRANCH   1  11
ATOM     10  C   UNL     1      99.282 126.906  82.469  0.00  0.00    +0.000 C 
ATOM     11  C   UNL     1     100.548 127.613  82.983  0.00  0.00    +0.000 C 
BRANCH  11  12
ATOM     12  C   UNL     1     100.300 128.598  84.165  0.00  0.00    +0.000 C 
ATOM     13  C   UNL     1      99.176 129.596  83.989  0.00  0.00    +0.000 C 
ATOM     14  C   UNL     1      99.646 130.849  84.097  0.00  0.00    +0.000 C 
ATOM     15  C   UNL     1     101.063 130.807  84.354  0.00  0.00    +0.000 C 
ATOM     16  C   UNL     1     101.470 129.532  84.409  0.00  0.00    +0.000 C 
ENDBRANCH  11  12
ENDBRANCH   1  11
TORSDOF 3
ENDMDL
