MODEL 1
REMARK VINA RESULT:      -4.5      0.000      0.000
REMARK  Name = *****
REMARK  6 active torsions:
REMARK  status: ('A' for Active; 'I' for Inactive)
REMARK    1  A    between atoms: C_1  and  C_2
REMARK    2  A    between atoms: C_2  and  C_3
REMARK    3  A    between atoms: C_2  and  C_10
REMARK    4  A    between atoms: C_2  and  N_17
REMARK    5  A    between atoms: C_3  and  C_4
REMARK    6  A    between atoms: C_10  and  C_11
REMARK                            x       y       z     vdW  Elec       q    Type
REMARK                         _______ _______ _______ _____ _____    ______ ____
ROOT
ATOM      1  C   UNL     1      88.040  67.969  87.224  0.00  0.00    +0.000 C 
ATOM      2  C   UNL     1      89.115  68.844  86.549  0.00  0.00    +0.000 C 
ENDROOT
BRANCH   2   3
ATOM      3  N   UNL     1      90.377  67.987  86.490  0.00  0.00    +0.000 NA
ATOM      4  O   UNL     1      90.151  66.781  86.649  0.00  0.00    +0.000 OA
ENDBRANCH   2   3
BRANCH   2   5
ATOM      5  C   UNL     1      88.705  69.179  85.078  0.00  0.00    +0.000 C 
BRANCH   5   6
ATOM      6  C   UNL     1      89.223  70.480  84.503  0.00  0.00    +0.000 A 
ATOM      7  C   UNL     1      90.554  70.590  84.075  0.00  0.00    +0.000 A 
ATOM      8  C   UNL     1      91.033  71.791  83.549  0.00  0.00    +0.000 A 
ATOM      9  C   UNL     1      90.187  72.892  83.438  0.00  0.00    +0.000 A 
ATOM     10  C   UNL     1      88.859  72.792  83.847  0.00  0.00    +0.000 A 
ATOM     11  C   UNL     1      88.379  71.592  84.375  0.00  0.00    +0.000 A 
ENDBRANCH   5   6
ENDBRANCH   2   5
BRANCH   2  12
ATOM     12  C   UNL     1      89.386  70.142  87.367  0.00  0.00    +0.000 C 
BRANCH  12  13
ATOM     13  C   UNL     1      88.257  70.655  88.239  0.00  0.00    +0.000 A 
ATOM     14  C   UNL     1      88.392  70.698  89.634  0.00  0.00    +0.000 A 
ATOM     15  C   UNL     1      87.349  71.172  90.432  0.00  0.00    +0.000 A 
ATOM     16  C   UNL     1      86.164  71.609  89.846  0.00  0.00    +0.000 A 
ATOM     17  C   UNL     1      86.019  71.578  88.462  0.00  0.00    +0.000 A 
ATOM     18  C   UNL     1      87.061  71.105  87.661  0.00  0.00    +0.000 A 
ENDBRANCH  12  13
ENDBRANCH   2  12
TORSDOF 5
ENDMDL
