REMARK  Name = *****
REMARK  3 active torsions:
REMARK  status: ('A' for Active; 'I' for Inactive)
REMARK    1  A    between atoms: C_4  and  C_7
REMARK    2  A    between atoms: C_7  and  S_9
REMARK    3  A    between atoms: S_9  and  C_10
REMARK                            x       y       z     vdW  Elec       q    Type
REMARK                         _______ _______ _______ _____ _____    ______ ____
ROOT
ATOM      1  C   UNL     1      -2.735   0.269  -0.588  0.00  0.00    +0.000 C 
ATOM      2  O   UNL     1      -3.239   1.385  -0.688  0.00  0.00    +0.000 OA
ENDROOT
BRANCH   1   6
ATOM      3  C   UNL     1       1.449  -0.009   0.374  0.00  0.00    +0.000 A 
ATOM      4  C   UNL     1       0.781  -1.144  -0.082  0.00  0.00    +0.000 A 
ATOM      5  C   UNL     1      -0.578  -1.080  -0.404  0.00  0.00    +0.000 A 
ATOM      6  C   UNL     1      -1.282   0.123  -0.272  0.00  0.00    +0.000 A 
ATOM      7  C   UNL     1      -0.595   1.263   0.177  0.00  0.00    +0.000 A 
ATOM      8  C   UNL     1       0.763   1.196   0.502  0.00  0.00    +0.000 A 
ENDBRANCH   1   6
BRANCH   1   9
ATOM      9  S   UNL     1      -3.741  -1.177  -0.594  0.00  0.00    +0.000 S 
BRANCH   9  10
ATOM     10  C   UNL     1      -4.517  -0.982  -2.141  0.00  0.00    +0.000 C 
ATOM     11  C   UNL     1      -3.920  -1.245  -3.329  0.00  0.00    +0.000 C 
ATOM     12  S   UNL     1      -4.940  -0.975  -4.747  0.00  0.00    +0.000 S 
ATOM     13  C   UNL     1      -6.373  -0.472  -3.893  0.00  0.00    +0.000 C 
ATOM     14  O   UNL     1      -7.420  -0.163  -4.448  0.00  0.00    +0.000 OA
ATOM     15  S   UNL     1      -6.186  -0.468  -2.157  0.00  0.00    +0.000 S 
ATOM     16  S   UNL     1      -2.322  -1.814  -3.728  0.00  0.00    +0.000 S 
ENDBRANCH   9  10
ENDBRANCH   1   9
TORSDOF 3
