MODEL 1
REMARK VINA RESULT:      -4.4      0.000      0.000
REMARK  Name = *****
REMARK  3 active torsions:
REMARK  status: ('A' for Active; 'I' for Inactive)
REMARK    1  A    between atoms: C_5  and  O_7
REMARK    2  A    between atoms: O_7  and  C_8
REMARK    3  A    between atoms: C_8  and  C_10
REMARK                            x       y       z     vdW  Elec       q    Type
REMARK                         _______ _______ _______ _____ _____    ______ ____
ROOT
ATOM      1  C   UNL     1     103.478 127.375  82.029  0.00  0.00    +0.000 C 
ATOM      2  O   UNL     1     103.706 128.462  81.521  0.00  0.00    +0.000 OA
ENDROOT
BRANCH   1   3
ATOM      3  C   UNL     1     103.978 126.093  81.458  0.00  0.00    +0.000 A 
ATOM      4  C   UNL     1     104.568 126.010  80.192  0.00  0.00    +0.000 A 
ATOM      5  C   UNL     1     105.011 124.777  79.725  0.00  0.00    +0.000 A 
ATOM      6  C   UNL     1     104.881 123.623  80.490  0.00  0.00    +0.000 A 
ATOM      7  C   UNL     1     104.296 123.698  81.751  0.00  0.00    +0.000 A 
ATOM      8  C   UNL     1     103.845 124.930  82.235  0.00  0.00    +0.000 A 
ATOM      9  F   UNL     1     105.573 124.700  78.511  0.00  0.00    +0.000 F 
ENDBRANCH   1   3
BRANCH   1  10
ATOM     10  O   UNL     1     102.769 127.126  83.188  0.00  0.00    +0.000 OA
BRANCH  10  15
ATOM     11  C   UNL     1      99.951 129.398  83.818  0.00  0.00    +0.000 A 
ATOM     12  C   UNL     1      98.909 128.714  83.181  0.00  0.00    +0.000 A 
ATOM     13  C   UNL     1      99.156 127.498  82.541  0.00  0.00    +0.000 A 
ATOM     14  C   UNL     1     100.445 126.975  82.536  0.00  0.00    +0.000 A 
ATOM     15  C   UNL     1     101.484 127.668  83.154  0.00  0.00    +0.000 A 
ATOM     16  C   UNL     1     101.244 128.872  83.812  0.00  0.00    +0.000 A 
ATOM     17  F   UNL     1     100.676 125.795  81.943  0.00  0.00    +0.000 F 
ENDBRANCH  10  15
ENDBRANCH   1  10
TORSDOF 3
ENDMDL
