MODEL 1
REMARK VINA RESULT:      -5.0      0.000      0.000
REMARK  Name = *****
REMARK  5 active torsions:
REMARK  status: ('A' for Active; 'I' for Inactive)
REMARK    1  A    between atoms: C_1  and  C_2
REMARK    2  A    between atoms: C_3  and  C_18
REMARK    3  A    between atoms: C_5  and  O_8
REMARK    4  A    between atoms: O_8  and  C_9
REMARK    5  A    between atoms: C_9  and  C_11
REMARK                            x       y       z     vdW  Elec       q    Type
REMARK                         _______ _______ _______ _____ _____    ______ ____
ROOT
ATOM      1  O   UNL     1     100.384 126.791  83.462  0.00  0.00    +0.000 OA
ENDROOT
BRANCH   1   6
ATOM      2  C   UNL     1     105.279 127.621  80.668  0.00  0.00    +0.000 C 
ATOM      3  C   UNL     1     103.988 127.387  81.404  0.00  0.00    +0.000 A 
ATOM      4  C   UNL     1     103.252 126.194  81.236  0.00  0.00    +0.000 A 
ATOM      5  C   UNL     1     102.056 126.021  81.948  0.00  0.00    +0.000 A 
ATOM      6  C   UNL     1     101.615 127.007  82.829  0.00  0.00    +0.000 A 
ATOM      7  C   UNL     1     102.324 128.192  82.990  0.00  0.00    +0.000 A 
ATOM      8  C   UNL     1     103.513 128.374  82.286  0.00  0.00    +0.000 A 
ATOM      9  C   UNL     1     103.710 125.113  80.295  0.00  0.00    +0.000 C 
ENDBRANCH   1   6
BRANCH   1  10
ATOM     10  C   UNL     1      99.302 127.488  82.961  0.00  0.00    +0.000 C 
ATOM     11  O   UNL     1      98.598 127.218  82.001  0.00  0.00    +0.000 OA
BRANCH  10  12
ATOM     12  C   UNL     1      99.007 128.599  83.883  0.00  0.00    +0.000 A 
ATOM     13  C   UNL     1      99.467 129.871  83.511  0.00  0.00    +0.000 A 
ATOM     14  C   UNL     1      99.219 130.973  84.333  0.00  0.00    +0.000 A 
ATOM     15  C   UNL     1      98.523 130.805  85.528  0.00  0.00    +0.000 A 
ATOM     16  C   UNL     1      98.084 129.535  85.910  0.00  0.00    +0.000 A 
ATOM     17  C   UNL     1      98.329 128.426  85.093  0.00  0.00    +0.000 A 
ATOM     18 CL   UNL     1      97.816 126.881  85.672  0.00  0.00    +0.000 Cl
ENDBRANCH  10  12
ENDBRANCH   1  10
TORSDOF 3
ENDMDL
