MODEL 1
REMARK VINA RESULT:      -4.8      0.000      0.000
REMARK  Name = *****
REMARK  5 active torsions:
REMARK  status: ('A' for Active; 'I' for Inactive)
REMARK    1  A    between atoms: C_1  and  C_2
REMARK    2  A    between atoms: C_2  and  C_4
REMARK    3  A    between atoms: C_4  and  C_5
REMARK    4  A    between atoms: C_4  and  C_13
REMARK    5  A    between atoms: C_5  and  C_6
REMARK                            x       y       z     vdW  Elec       q    Type
REMARK                         _______ _______ _______ _____ _____    ______ ____
ROOT
ATOM      1  C   UNL     1      87.212  70.232  88.398  0.00  0.00    +0.000 C 
ENDROOT
BRANCH   1   2
ATOM      2  C   UNL     1      86.179  71.100  87.694  0.00  0.00    +0.000 A 
ATOM      3  C   UNL     1      86.232  71.253  86.297  0.00  0.00    +0.000 A 
ATOM      4  C   UNL     1      85.283  72.033  85.633  0.00  0.00    +0.000 A 
ATOM      5  C   UNL     1      84.277  72.656  86.359  0.00  0.00    +0.000 A 
ATOM      6  C   UNL     1      84.198  72.514  87.737  0.00  0.00    +0.000 A 
ATOM      7  C   UNL     1      85.146  71.737  88.405  0.00  0.00    +0.000 A 
ATOM      8  F   UNL     1      83.366  73.400  85.718  0.00  0.00    +0.000 F 
ENDBRANCH   1   2
BRANCH   1  10
ATOM      9  C   UNL     1      88.465  71.734  90.106  0.00  0.00    +0.000 C 
ATOM     10  C   UNL     1      87.461  70.632  89.856  0.00  0.00    +0.000 C 
ATOM     11  O   UNL     1      86.940  70.050  90.809  0.00  0.00    +0.000 OA
ENDBRANCH   1  10
BRANCH   1  12
ATOM     12  C   UNL     1      86.993  68.714  88.194  0.00  0.00    +0.000 C 
BRANCH  12  13
ATOM     13  C   UNL     1      88.080  67.940  87.479  0.00  0.00    +0.000 A 
ATOM     14  C   UNL     1      89.097  68.619  86.790  0.00  0.00    +0.000 A 
ATOM     15  C   UNL     1      90.097  67.911  86.120  0.00  0.00    +0.000 A 
ATOM     16  C   UNL     1      90.090  66.519  86.137  0.00  0.00    +0.000 A 
ATOM     17  C   UNL     1      89.092  65.829  86.823  0.00  0.00    +0.000 A 
ATOM     18  C   UNL     1      88.093  66.538  87.493  0.00  0.00    +0.000 A 
ATOM     19 CL   UNL     1      91.319  65.646  85.308  0.00  0.00    +0.000 Cl
ENDBRANCH  12  13
ENDBRANCH   1  12
TORSDOF 4
ENDMDL
