MODEL 1
REMARK VINA RESULT:      -4.8      0.000      0.000
REMARK  Name = *****
REMARK  4 active torsions:
REMARK  status: ('A' for Active; 'I' for Inactive)
REMARK    1  A    between atoms: C_1  and  C_2
REMARK    2  A    between atoms: C_5  and  C_8
REMARK    3  A    between atoms: C_8  and  C_10
REMARK    4  A    between atoms: C_10  and  C_11
REMARK                            x       y       z     vdW  Elec       q    Type
REMARK                         _______ _______ _______ _____ _____    ______ ____
ROOT
ATOM      1  C   UNL     1      87.932  70.743  85.740  0.00  0.00    +0.000 C 
ATOM      2  O   UNL     1      88.185  70.700  84.534  0.00  0.00    +0.000 OA
ENDROOT
BRANCH   1   7
ATOM      3  C   UNL     1      82.950  73.025  87.684  0.00  0.00    +0.000 C 
ATOM      4  C   UNL     1      84.243  72.464  87.170  0.00  0.00    +0.000 A 
ATOM      5  C   UNL     1      84.493  72.405  85.795  0.00  0.00    +0.000 A 
ATOM      6  C   UNL     1      85.685  71.854  85.308  0.00  0.00    +0.000 A 
ATOM      7  C   UNL     1      86.640  71.346  86.195  0.00  0.00    +0.000 A 
ATOM      8  C   UNL     1      86.383  71.395  87.571  0.00  0.00    +0.000 A 
ATOM      9  C   UNL     1      85.192  71.943  88.055  0.00  0.00    +0.000 A 
ENDBRANCH   1   7
BRANCH   1  10
ATOM     10  C   UNL     1      88.914  70.192  86.756  0.00  0.00    +0.000 C 
BRANCH  10  11
ATOM     11  C   UNL     1      88.941  68.683  86.838  0.00  0.00    +0.000 A 
ATOM     12  C   UNL     1      87.875  67.972  87.408  0.00  0.00    +0.000 A 
ATOM     13  C   UNL     1      87.898  66.575  87.458  0.00  0.00    +0.000 A 
ATOM     14  C   UNL     1      88.981  65.882  86.927  0.00  0.00    +0.000 A 
ATOM     15  C   UNL     1      90.038  66.572  86.339  0.00  0.00    +0.000 A 
ATOM     16  C   UNL     1      90.015  67.968  86.289  0.00  0.00    +0.000 A 
ATOM     17 CL   UNL     1      89.012  64.163  86.987  0.00  0.00    +0.000 Cl
ENDBRANCH  10  11
ENDBRANCH   1  10
TORSDOF 3
ENDMDL
