REMARK  Name = *****
REMARK  4 active torsions:
REMARK  status: ('A' for Active; 'I' for Inactive)
REMARK    1  A    between atoms: C_4  and  C_7
REMARK    2  A    between atoms: C_7  and  N_8
REMARK    3  A    between atoms: N_8  and  C_9
REMARK    4  A    between atoms: C_9  and  C_10
REMARK                            x       y       z     vdW  Elec       q    Type
REMARK                         _______ _______ _______ _____ _____    ______ ____
ROOT
ATOM      1  N   UNL     1       3.730  -0.881   0.643  0.00  0.00    +0.000 NA
ENDROOT
BRANCH   1   2
ATOM      2  C   UNL     1       2.787  -0.628  -0.196  0.00  0.00    +0.000 C 
BRANCH   2   6
ATOM      3  C   UNL     1      -1.427   0.309  -0.328  0.00  0.00    +0.000 C 
ATOM      4  C   UNL     1      -1.018  -1.090   0.124  0.00  0.00    +0.000 C 
ATOM      5  C   UNL     1       0.430  -1.400  -0.247  0.00  0.00    +0.000 C 
ATOM      6  C   UNL     1       1.388  -0.335   0.292  0.00  0.00    +0.000 C 
ATOM      7  C   UNL     1       0.976   1.067  -0.165  0.00  0.00    +0.000 C 
ATOM      8  C   UNL     1      -0.473   1.374   0.205  0.00  0.00    +0.000 C 
ENDBRANCH   2   6
ENDBRANCH   1   2
BRANCH   1   9
ATOM      9  C   UNL     1       5.025  -1.139  -0.003  0.00  0.00    +0.000 C 
BRANCH   9  10
ATOM     10  C   UNL     1       6.110  -1.461   0.997  0.00  0.00    +0.000 A 
ATOM     11  C   UNL     1       5.869  -2.347   2.057  0.00  0.00    +0.000 A 
ATOM     12  C   UNL     1       6.885  -2.674   2.957  0.00  0.00    +0.000 A 
ATOM     13  C   UNL     1       8.156  -2.126   2.803  0.00  0.00    +0.000 A 
ATOM     14  C   UNL     1       8.413  -1.252   1.749  0.00  0.00    +0.000 A 
ATOM     15  C   UNL     1       7.398  -0.925   0.847  0.00  0.00    +0.000 A 
ENDBRANCH   9  10
ENDBRANCH   1   9
TORSDOF 4
