MODEL 1
REMARK VINA RESULT:      -4.1      0.000      0.000
REMARK  Name = *****
REMARK  3 active torsions:
REMARK  status: ('A' for Active; 'I' for Inactive)
REMARK    1  A    between atoms: C_4  and  C_7
REMARK    2  A    between atoms: C_7  and  O_8
REMARK    3  A    between atoms: O_8  and  C_9
REMARK                            x       y       z     vdW  Elec       q    Type
REMARK                         _______ _______ _______ _____ _____    ______ ____
ROOT
ATOM      1  C   UNL     1     101.734 125.998  82.251  0.00  0.00    +0.000 C 
ENDROOT
BRANCH   1   5
ATOM      2  C   UNL     1      99.049 129.140  83.496  0.00  0.00    +0.000 A 
ATOM      3  C   UNL     1      98.548 128.011  82.851  0.00  0.00    +0.000 A 
ATOM      4  C   UNL     1      99.413 126.991  82.450  0.00  0.00    +0.000 A 
ATOM      5  C   UNL     1     100.790 127.090  82.698  0.00  0.00    +0.000 A 
ATOM      6  C   UNL     1     101.285 128.236  83.336  0.00  0.00    +0.000 A 
ATOM      7  C   UNL     1     100.418 129.254  83.736  0.00  0.00    +0.000 A 
ENDBRANCH   1   5
BRANCH   1   8
ATOM      8  O   UNL     1     102.782 126.609  81.503  0.00  0.00    +0.000 OA
BRANCH   8   9
ATOM      9  C   UNL     1     103.688 125.745  80.986  0.00  0.00    +0.000 A 
ATOM     10  N   UNL     1     104.436 126.102  79.943  0.00  0.00    +0.000 NA
ATOM     11  S   UNL     1     105.431 124.823  79.564  0.00  0.00    +0.000 S 
ATOM     12  C   UNL     1     104.861 123.800  80.790  0.00  0.00    +0.000 A 
ATOM     13  C   UNL     1     103.886 124.438  81.514  0.00  0.00    +0.000 A 
ATOM     14  I   UNL     1     105.531 121.905  81.127  0.00  0.00    +0.000 I 
ENDBRANCH   8   9
ENDBRANCH   1   8
TORSDOF 3
ENDMDL
