MODEL 1
REMARK VINA RESULT:      -4.5      0.000      0.000
REMARK  Name = *****
REMARK  3 active torsions:
REMARK  status: ('A' for Active; 'I' for Inactive)
REMARK    1  A    between atoms: C_7  and  O_8
REMARK    2  A    between atoms: O_8  and  C_9
REMARK    3  A    between atoms: C_9  and  C_11
REMARK                            x       y       z     vdW  Elec       q    Type
REMARK                         _______ _______ _______ _____ _____    ______ ____
ROOT
ATOM      1  O   UNL     1     100.187 126.728  83.236  0.00  0.00    +0.000 OA
ENDROOT
BRANCH   1   8
ATOM      2  C   UNL     1     102.677 125.740  83.859  0.00  0.00    +0.000 C 
ATOM      3  C   UNL     1     102.719 127.292  84.025  0.00  0.00    +0.000 C 
ATOM      4  C   UNL     1     102.294 127.803  82.603  0.00  0.00    +0.000 C 
ATOM      5  C   UNL     1     103.245 127.550  81.649  0.00  0.00    +0.000 C 
ATOM      6  C   UNL     1     103.268 126.052  81.553  0.00  0.00    +0.000 C 
ATOM      7  C   UNL     1     102.258 125.661  82.382  0.00  0.00    +0.000 C 
ATOM      8  C   UNL     1     101.216 126.768  82.256  0.00  0.00    +0.000 C 
ENDBRANCH   1   8
BRANCH   1   9
ATOM      9  C   UNL     1      99.080 127.436  82.912  0.00  0.00    +0.000 C 
ATOM     10  O   UNL     1      98.276 127.160  82.036  0.00  0.00    +0.000 OA
BRANCH   9  11
ATOM     11  C   UNL     1      98.956 128.631  83.791  0.00  0.00    +0.000 A 
ATOM     12  C   UNL     1      98.315 128.477  85.029  0.00  0.00    +0.000 A 
ATOM     13  C   UNL     1      98.173 129.568  85.889  0.00  0.00    +0.000 A 
ATOM     14  C   UNL     1      98.667 130.817  85.519  0.00  0.00    +0.000 A 
ATOM     15  C   UNL     1      99.305 130.980  84.289  0.00  0.00    +0.000 A 
ATOM     16  C   UNL     1      99.450 129.891  83.426  0.00  0.00    +0.000 A 
ENDBRANCH   9  11
ENDBRANCH   1   9
TORSDOF 3
ENDMDL
