REMARK  Name = *****
REMARK  3 active torsions:
REMARK  status: ('A' for Active; 'I' for Inactive)
REMARK    1  A    between atoms: C_4  and  C_8
REMARK    2  A    between atoms: C_8  and  O_10
REMARK    3  A    between atoms: O_10  and  C_11
REMARK                            x       y       z     vdW  Elec       q    Type
REMARK                         _______ _______ _______ _____ _____    ______ ____
ROOT
ATOM      1  C   UNL     1      -0.187   2.156   0.691  0.00  0.00    +0.000 C 
ATOM      2  O   UNL     1      -1.157   2.829   0.383  0.00  0.00    +0.000 OA
ENDROOT
BRANCH   1   6
ATOM      3  C   UNL     1       0.436  -1.818  -0.718  0.00  0.00    +0.000 A 
ATOM      4  C   UNL     1       0.083  -0.801  -1.606  0.00  0.00    +0.000 A 
ATOM      5  C   UNL     1      -0.115   0.496  -1.134  0.00  0.00    +0.000 A 
ATOM      6  C   UNL     1       0.043   0.790   0.216  0.00  0.00    +0.000 A 
ATOM      7  C   UNL     1       0.387  -0.229   1.099  0.00  0.00    +0.000 A 
ATOM      8  C   UNL     1       0.588  -1.531   0.639  0.00  0.00    +0.000 A 
ATOM      9  F   UNL     1       0.513   0.012   2.412  0.00  0.00    +0.000 F 
ATOM     10  F   UNL     1      -0.435   1.454  -2.015  0.00  0.00    +0.000 F 
ENDBRANCH   1   6
BRANCH   1  11
ATOM     11  O   UNL     1       0.885   2.522   1.482  0.00  0.00    +0.000 OA
BRANCH  11  12
ATOM     12  C   UNL     1       0.787   3.848   1.909  0.00  0.00    +0.000 A 
ATOM     13  C   UNL     1       1.344   4.885   1.153  0.00  0.00    +0.000 A 
ATOM     14  C   UNL     1       1.259   6.196   1.621  0.00  0.00    +0.000 A 
ATOM     15  C   UNL     1       0.632   6.462   2.842  0.00  0.00    +0.000 A 
ATOM     16  C   UNL     1       0.097   5.414   3.595  0.00  0.00    +0.000 A 
ATOM     17  C   UNL     1       0.177   4.100   3.139  0.00  0.00    +0.000 A 
ATOM     18 CL   UNL     1      -0.659   5.749   5.104  0.00  0.00    +0.000 Cl
ATOM     19 CL   UNL     1       2.152   4.577  -0.338  0.00  0.00    +0.000 Cl
ENDBRANCH  11  12
ENDBRANCH   1  11
TORSDOF 3
