MODEL 1
REMARK VINA RESULT:      -4.0      0.000      0.000
REMARK  Name = *****
REMARK  2 active torsions:
REMARK  status: ('A' for Active; 'I' for Inactive)
REMARK    1  A    between atoms: C_6  and  S_7
REMARK    2  A    between atoms: S_7  and  C_9
REMARK                            x       y       z     vdW  Elec       q    Type
REMARK                         _______ _______ _______ _____ _____    ______ ____
ROOT
ATOM      1  C   UNL     1     103.968 124.272  81.609  0.00  0.00    +0.000 C 
ATOM      2  C   UNL     1     103.589 125.264  80.515  0.00  0.00    +0.000 C 
ATOM      3  S   UNL     1     104.823 126.580  80.341  0.00  0.00    +0.000 S 
ATOM      4  C   UNL     1     104.747 127.325  81.934  0.00  0.00    +0.000 C 
ATOM      5  C   UNL     1     105.269 128.742  82.052  0.00  0.00    +0.000 C 
ATOM      6  C   UNL     1     103.791 128.481  82.134  0.00  0.00    +0.000 C 
ATOM      7  S   UNL     1     105.226 126.198  83.184  0.00  0.00    +0.000 S 
ATOM      8  C   UNL     1     103.992 124.883  83.005  0.00  0.00    +0.000 C 
ENDROOT
BRANCH   6   9
ATOM      9  S   UNL     1     103.109 128.754  83.823  0.00  0.00    +0.000 S 
ATOM     10  O   UNL     1     103.111 130.246  84.001  0.00  0.00    +0.000 OA
BRANCH   9  11
ATOM     11  C   UNL     1     101.409 128.326  83.375  0.00  0.00    +0.000 A 
ATOM     12  C   UNL     1     100.372 129.222  83.659  0.00  0.00    +0.000 A 
ATOM     13  C   UNL     1      99.053 128.899  83.328  0.00  0.00    +0.000 A 
ATOM     14  C   UNL     1      98.768 127.683  82.709  0.00  0.00    +0.000 A 
ATOM     15  C   UNL     1      99.797 126.791  82.415  0.00  0.00    +0.000 A 
ATOM     16  C   UNL     1     101.115 127.112  82.745  0.00  0.00    +0.000 A 
ENDBRANCH   9  11
ENDBRANCH   6   9
TORSDOF 2
ENDMDL
