MODEL 1
REMARK VINA RESULT:      -4.5      0.000      0.000
REMARK  Name = *****
REMARK  4 active torsions:
REMARK  status: ('A' for Active; 'I' for Inactive)
REMARK    1  A    between atoms: C_1  and  O_2
REMARK    2  A    between atoms: O_2  and  C_3
REMARK    3  A    between atoms: C_6  and  C_9
REMARK    4  A    between atoms: C_10  and  C_11
REMARK                            x       y       z     vdW  Elec       q    Type
REMARK                         _______ _______ _______ _____ _____    ______ ____
ROOT
ATOM      1  C   UNL     1      88.735  66.099  87.066  0.00  0.00    +0.000 C 
ATOM      2  C   UNL     1      89.217  67.132  86.685  0.00  0.00    +0.000 C 
ENDROOT
BRANCH   2   3
ATOM      3  C   UNL     1      89.808  68.393  86.219  0.00  0.00    +0.000 C 
ATOM      4  C   UNL     1      89.257  68.857  84.836  0.00  0.00    +0.000 C 
ATOM      5  C   UNL     1      88.784  70.302  85.123  0.00  0.00    +0.000 C 
ATOM      6  C   UNL     1      89.813  70.760  86.163  0.00  0.00    +0.000 C 
ATOM      7  C   UNL     1      89.491  69.611  87.129  0.00  0.00    +0.000 C 
ATOM      8  C   UNL     1      87.992  69.815  87.223  0.00  0.00    +0.000 C 
ATOM      9  C   UNL     1      87.569  70.222  86.017  0.00  0.00    +0.000 C 
ENDBRANCH   2   3
BRANCH   1  13
ATOM     10  C   UNL     1      87.047  62.466  88.440  0.00  0.00    +0.000 A 
ATOM     11  C   UNL     1      87.832  63.244  89.294  0.00  0.00    +0.000 A 
ATOM     12  C   UNL     1      88.390  64.445  88.837  0.00  0.00    +0.000 A 
ATOM     13  C   UNL     1      88.166  64.872  87.527  0.00  0.00    +0.000 A 
ATOM     14  C   UNL     1      87.383  64.097  86.671  0.00  0.00    +0.000 A 
ATOM     15  C   UNL     1      86.828  62.900  87.130  0.00  0.00    +0.000 A 
BRANCH  10  17
ATOM     16  C   UNL     1      85.575  61.283  89.882  0.00  0.00    +0.000 C 
ATOM     17  O   UNL     1      86.446  61.280  88.758  0.00  0.00    +0.000 OA
ENDBRANCH  10  17
ENDBRANCH   1  13
TORSDOF 3
ENDMDL
