MODEL 1
REMARK VINA RESULT:      -4.1      0.000      0.000
REMARK  Name = *****
REMARK  4 active torsions:
REMARK  status: ('A' for Active; 'I' for Inactive)
REMARK    1  A    between atoms: C_1  and  C_2
REMARK    2  A    between atoms: C_5  and  C_7
REMARK    3  A    between atoms: C_8  and  C_9
REMARK    4  A    between atoms: C_10  and  C_14
REMARK                            x       y       z     vdW  Elec       q    Type
REMARK                         _______ _______ _______ _____ _____    ______ ____
ROOT
ATOM      1  C   UNL     1     102.453 126.868  82.457  0.00  0.00    +0.000 C 
ATOM      2  C   UNL     1     101.801 127.162  83.594  0.00  0.00    +0.000 C 
ENDROOT
BRANCH   1   7
ATOM      3  C   UNL     1     105.096 122.865  80.252  0.00  0.00    +0.000 C 
ATOM      4  C   UNL     1     104.434 123.770  81.234  0.00  0.00    +0.000 A 
ATOM      5  C   UNL     1     104.344 123.633  82.600  0.00  0.00    +0.000 A 
ATOM      6  C   UNL     1     103.632 124.711  83.204  0.00  0.00    +0.000 A 
ATOM      7  C   UNL     1     103.188 125.653  82.291  0.00  0.00    +0.000 A 
ATOM      8  S   UNL     1     103.658 125.191  80.694  0.00  0.00    +0.000 S 
ENDBRANCH   1   7
BRANCH   2   9
ATOM      9  C   UNL     1     101.049 128.366  83.760  0.00  0.00    +0.000 A 
ATOM     10  C   UNL     1      99.749 128.720  83.414  0.00  0.00    +0.000 A 
ATOM     11  C   UNL     1      99.418 130.061  83.788  0.00  0.00    +0.000 A 
ATOM     12  C   UNL     1     100.470 130.708  84.390  0.00  0.00    +0.000 A 
ATOM     13  S   UNL     1     101.851 129.715  84.495  0.00  0.00    +0.000 S 
BRANCH  10  14
ATOM     14  C   UNL     1      98.826 127.860  82.733  0.00  0.00    +0.000 C 
ATOM     15  N   UNL     1      98.076 127.154  82.198  0.00  0.00    +0.000 NA
ENDBRANCH  10  14
ENDBRANCH   2   9
TORSDOF 3
ENDMDL
