MODEL 1
REMARK VINA RESULT:      -4.9      0.000      0.000
REMARK  Name = *****
REMARK  3 active torsions:
REMARK  status: ('A' for Active; 'I' for Inactive)
REMARK    1  A    between atoms: C_4  and  C_7
REMARK    2  A    between atoms: C_7  and  C_8
REMARK    3  A    between atoms: C_9  and  C_10
REMARK                            x       y       z     vdW  Elec       q    Type
REMARK                         _______ _______ _______ _____ _____    ______ ____
ROOT
ATOM      1  C   UNL     1      88.808  66.272  86.915  0.00  0.00    +0.000 C 
ATOM      2  C   UNL     1      89.803  66.834  86.210  0.00  0.00    +0.000 C 
ATOM      3 CL   UNL     1      91.155  65.939  85.614  0.00  0.00    +0.000 Cl
ENDROOT
BRANCH   2   4
ATOM      4  C   UNL     1      89.793  68.272  85.905  0.00  0.00    +0.000 A 
ATOM      5  C   UNL     1      90.001  68.723  84.593  0.00  0.00    +0.000 A 
ATOM      6  C   UNL     1      89.995  70.089  84.304  0.00  0.00    +0.000 A 
ATOM      7  C   UNL     1      89.784  71.017  85.323  0.00  0.00    +0.000 A 
ATOM      8  C   UNL     1      89.577  70.580  86.630  0.00  0.00    +0.000 A 
ATOM      9  C   UNL     1      89.579  69.214  86.921  0.00  0.00    +0.000 A 
ENDBRANCH   2   4
BRANCH   1  10
ATOM     10  C   UNL     1      88.675  64.830  87.316  0.00  0.00    +0.000 C 
BRANCH  10  14
ATOM     11  C   UNL     1      87.223  64.448  91.361  0.00  0.00    +0.000 A 
ATOM     12  C   UNL     1      86.493  65.179  90.426  0.00  0.00    +0.000 A 
ATOM     13  C   UNL     1      86.957  65.301  89.116  0.00  0.00    +0.000 A 
ATOM     14  C   UNL     1      88.156  64.686  88.728  0.00  0.00    +0.000 A 
ATOM     15  C   UNL     1      88.886  63.959  89.679  0.00  0.00    +0.000 A 
ATOM     16  C   UNL     1      88.419  63.839  90.989  0.00  0.00    +0.000 A 
ENDBRANCH  10  14
ENDBRANCH   1  10
TORSDOF 3
ENDMDL
