MODEL 1
REMARK VINA RESULT:      -4.1      0.000      0.000
REMARK  Name = *****
REMARK  4 active torsions:
REMARK  status: ('A' for Active; 'I' for Inactive)
REMARK    1  A    between atoms: C_1  and  C_2
REMARK    2  A    between atoms: C_7  and  S_8
REMARK    3  A    between atoms: S_8  and  S_9
REMARK    4  A    between atoms: S_9  and  C_10
REMARK                            x       y       z     vdW  Elec       q    Type
REMARK                         _______ _______ _______ _____ _____    ______ ____
ROOT
ATOM      1  S   UNL     1      87.907  70.904  85.373  0.00  0.00    +0.000 S 
ENDROOT
BRANCH   1   8
ATOM      2  C   UNL     1      85.270  72.307  84.293  0.00  0.00    +0.000 C 
ATOM      3  C   UNL     1      85.385  72.075  85.775  0.00  0.00    +0.000 A 
ATOM      4  C   UNL     1      84.323  72.471  86.607  0.00  0.00    +0.000 A 
ATOM      5  C   UNL     1      84.381  72.271  87.987  0.00  0.00    +0.000 A 
ATOM      6  C   UNL     1      85.499  71.670  88.554  0.00  0.00    +0.000 A 
ATOM      7  C   UNL     1      86.561  71.271  87.743  0.00  0.00    +0.000 A 
ATOM      8  C   UNL     1      86.521  71.473  86.356  0.00  0.00    +0.000 A 
ENDBRANCH   1   8
BRANCH   1   9
ATOM      9  S   UNL     1      89.241  70.300  86.819  0.00  0.00    +0.000 S 
BRANCH   9  10
ATOM     10  C   UNL     1      89.165  68.509  86.816  0.00  0.00    +0.000 A 
ATOM     11  C   UNL     1      88.018  67.903  87.322  0.00  0.00    +0.000 A 
ATOM     12  C   UNL     1      87.945  66.512  87.353  0.00  0.00    +0.000 A 
ATOM     13  C   UNL     1      89.014  65.765  86.877  0.00  0.00    +0.000 A 
ATOM     14  C   UNL     1      90.116  66.446  86.387  0.00  0.00    +0.000 A 
ATOM     15  N   UNL     1      90.212  67.792  86.345  0.00  0.00    +0.000 NA
ENDBRANCH   9  10
ENDBRANCH   1   9
TORSDOF 3
ENDMDL
