MODEL 1
REMARK VINA RESULT:      -4.8      0.000      0.000
REMARK  Name = *****
REMARK  2 active torsions:
REMARK  status: ('A' for Active; 'I' for Inactive)
REMARK    1  A    between atoms: C_6  and  N_7
REMARK    2  A    between atoms: C_8  and  C_9
REMARK                            x       y       z     vdW  Elec       q    Type
REMARK                         _______ _______ _______ _____ _____    ______ ____
ROOT
ATOM      1  N   UNL     1     101.891 125.694  82.207  0.00  0.00    +0.000 NA
ATOM      2  C   UNL     1     103.138 125.560  82.533  0.00  0.00    +0.000 C 
ENDROOT
BRANCH   2   3
ATOM      3  C   UNL     1     103.914 124.381  82.117  0.00  0.00    +0.000 A 
ATOM      4  C   UNL     1     104.326 123.424  83.051  0.00  0.00    +0.000 A 
ATOM      5  C   UNL     1     105.056 122.324  82.612  0.00  0.00    +0.000 A 
ATOM      6  C   UNL     1     105.375 122.175  81.264  0.00  0.00    +0.000 A 
ATOM      7  C   UNL     1     104.969 123.124  80.332  0.00  0.00    +0.000 A 
ATOM      8  C   UNL     1     104.237 124.225  80.767  0.00  0.00    +0.000 A 
ATOM      9  F   UNL     1     103.849 125.137  79.864  0.00  0.00    +0.000 F 
ATOM     10  F   UNL     1     106.078 121.113  80.853  0.00  0.00    +0.000 F 
ATOM     11  F   UNL     1     105.452 121.402  83.501  0.00  0.00    +0.000 F 
ENDBRANCH   2   3
BRANCH   1  17
ATOM     12  C   UNL     1     101.981 127.900  83.239  0.00  0.00    +0.000 A 
ATOM     13  C   UNL     1     101.329 129.045  83.703  0.00  0.00    +0.000 A 
ATOM     14  C   UNL     1      99.943 129.141  83.596  0.00  0.00    +0.000 A 
ATOM     15  C   UNL     1      99.204 128.101  83.036  0.00  0.00    +0.000 A 
ATOM     16  C   UNL     1      99.862 126.958  82.572  0.00  0.00    +0.000 A 
ATOM     17  C   UNL     1     101.253 126.856  82.658  0.00  0.00    +0.000 A 
ATOM     18 CL   UNL     1      99.137 130.550  84.168  0.00  0.00    +0.000 Cl
ENDBRANCH   1  17
TORSDOF 2
ENDMDL
