MODEL 1
REMARK VINA RESULT:      -4.8      0.000      0.000
REMARK  Name = *****
REMARK  3 active torsions:
REMARK  status: ('A' for Active; 'I' for Inactive)
REMARK    1  A    between atoms: C_4  and  C_7
REMARK    2  A    between atoms: C_7  and  C_8
REMARK    3  A    between atoms: C_8  and  C_9
REMARK                            x       y       z     vdW  Elec       q    Type
REMARK                         _______ _______ _______ _____ _____    ______ ____
ROOT
ATOM      1  C   UNL     1      88.755  70.256  86.928  0.00  0.00    +0.000 C 
ATOM      2  F   UNL     1      89.971  70.832  86.677  0.00  0.00    +0.000 F 
ENDROOT
BRANCH   1   3
ATOM      3  C   UNL     1      88.845  68.743  86.890  0.00  0.00    +0.000 A 
ATOM      4  C   UNL     1      87.809  67.958  87.424  0.00  0.00    +0.000 A 
ATOM      5  C   UNL     1      87.896  66.566  87.407  0.00  0.00    +0.000 A 
ATOM      6  C   UNL     1      89.017  65.957  86.859  0.00  0.00    +0.000 A 
ATOM      7  C   UNL     1      90.054  66.714  86.326  0.00  0.00    +0.000 A 
ATOM      8  C   UNL     1      89.971  68.107  86.343  0.00  0.00    +0.000 A 
ATOM      9  F   UNL     1      89.101  64.620  86.843  0.00  0.00    +0.000 F 
ENDBRANCH   1   3
BRANCH   1  10
ATOM     10  C   UNL     1      87.752  70.772  85.886  0.00  0.00    +0.000 C 
BRANCH  10  14
ATOM     11  C   UNL     1      84.183  72.414  87.678  0.00  0.00    +0.000 A 
ATOM     12  C   UNL     1      85.182  71.871  88.484  0.00  0.00    +0.000 A 
ATOM     13  C   UNL     1      86.336  71.341  87.904  0.00  0.00    +0.000 A 
ATOM     14  C   UNL     1      86.502  71.348  86.513  0.00  0.00    +0.000 A 
ATOM     15  C   UNL     1      85.491  71.897  85.712  0.00  0.00    +0.000 A 
ATOM     16  C   UNL     1      84.338  72.428  86.294  0.00  0.00    +0.000 A 
ENDBRANCH  10  14
ENDBRANCH   1  10
TORSDOF 3
ENDMDL
