REMARK  Name = *****
REMARK  4 active torsions:
REMARK  status: ('A' for Active; 'I' for Inactive)
REMARK    1  A    between atoms: C_4  and  C_7
REMARK    2  A    between atoms: C_7  and  C_8
REMARK    3  A    between atoms: C_8  and  C_9
REMARK    4  A    between atoms: C_9  and  C_10
REMARK                            x       y       z     vdW  Elec       q    Type
REMARK                         _______ _______ _______ _____ _____    ______ ____
ROOT
ATOM      1  C   UNL     1      -2.794   2.477  -0.417  0.00  0.00    +0.000 C 
ENDROOT
BRANCH   1   2
ATOM      2  C   UNL     1      -1.267   2.557  -0.335  0.00  0.00    +0.000 C 
BRANCH   2   6
ATOM      3  C   UNL     1       0.820  -1.203   0.663  0.00  0.00    +0.000 C 
ATOM      4  C   UNL     1       0.534  -0.877  -0.813  0.00  0.00    +0.000 C 
ATOM      5  C   UNL     1      -0.094   0.467  -1.055  0.00  0.00    +0.000 C 
ATOM      6  C   UNL     1      -0.638   1.209  -0.074  0.00  0.00    +0.000 C 
ATOM      7  C   UNL     1      -0.627   0.726   1.294  0.00  0.00    +0.000 C 
ATOM      8  C   UNL     1       0.043  -0.380   1.648  0.00  0.00    +0.000 C 
ENDBRANCH   2   6
ENDBRANCH   1   2
BRANCH   1   9
ATOM      9  C   UNL     1      -3.401   3.856  -0.685  0.00  0.00    +0.000 C 
BRANCH   9  10
ATOM     10  C   UNL     1      -4.899   3.786  -0.843  0.00  0.00    +0.000 A 
ATOM     11  C   UNL     1      -5.737   3.850   0.278  0.00  0.00    +0.000 A 
ATOM     12  C   UNL     1      -7.123   3.765   0.130  0.00  0.00    +0.000 A 
ATOM     13  C   UNL     1      -7.682   3.613  -1.137  0.00  0.00    +0.000 A 
ATOM     14  C   UNL     1      -6.857   3.542  -2.258  0.00  0.00    +0.000 A 
ATOM     15  C   UNL     1      -5.472   3.625  -2.112  0.00  0.00    +0.000 A 
ENDBRANCH   9  10
ENDBRANCH   1   9
TORSDOF 4
