REMARK  Name = *****
REMARK  5 active torsions:
REMARK  status: ('A' for Active; 'I' for Inactive)
REMARK    1  A    between atoms: C_4  and  O_7
REMARK    2  A    between atoms: O_7  and  N_8
REMARK    3  A    between atoms: N_8  and  C_9
REMARK    4  A    between atoms: C_9  and  C_10
REMARK    5  A    between atoms: C_15  and  C_16
REMARK                            x       y       z     vdW  Elec       q    Type
REMARK                         _______ _______ _______ _____ _____    ______ ____
ROOT
ATOM      1  C   UNL     1      -5.756  -1.590  -0.690  0.00  0.00    +0.000 A 
ATOM      2  C   UNL     1      -5.621  -2.705   0.152  0.00  0.00    +0.000 A 
ATOM      3  C   UNL     1      -6.606  -3.692   0.183  0.00  0.00    +0.000 A 
ATOM      4  C   UNL     1      -7.731  -3.575  -0.626  0.00  0.00    +0.000 A 
ATOM      5  C   UNL     1      -7.873  -2.471  -1.468  0.00  0.00    +0.000 A 
ATOM      6  C   UNL     1      -6.889  -1.463  -1.514  0.00  0.00    +0.000 A 
ENDROOT
BRANCH   6   7
ATOM      7  C   UNL     1      -7.071  -0.291  -2.440  0.00  0.00    +0.000 C 
ATOM      8  F   UNL     1      -6.038  -0.149  -3.316  0.00  0.00    +0.000 F 
ATOM      9  F   UNL     1      -8.194  -0.368  -3.208  0.00  0.00    +0.000 F 
ATOM     10  F   UNL     1      -7.163   0.891  -1.771  0.00  0.00    +0.000 F 
ENDBRANCH   6   7
BRANCH   1  11
ATOM     11  C   UNL     1      -4.683  -0.567  -0.686  0.00  0.00    +0.000 C 
BRANCH  11  12
ATOM     12  N   UNL     1      -3.562  -0.757  -0.065  0.00  0.00    +0.000 NA
BRANCH  12  13
ATOM     13  O   UNL     1      -2.753   0.375  -0.243  0.00  0.00    +0.000 OA
BRANCH  13  17
ATOM     14  C   UNL     1       1.173  -0.057   1.098  0.00  0.00    +0.000 A 
ATOM     15  C   UNL     1       0.365  -1.191   1.026  0.00  0.00    +0.000 A 
ATOM     16  C   UNL     1      -0.958  -1.083   0.589  0.00  0.00    +0.000 A 
ATOM     17  C   UNL     1      -1.477   0.162   0.227  0.00  0.00    +0.000 A 
ATOM     18  C   UNL     1      -0.662   1.295   0.297  0.00  0.00    +0.000 A 
ATOM     19  C   UNL     1       0.660   1.187   0.734  0.00  0.00    +0.000 A 
ENDBRANCH  13  17
ENDBRANCH  12  13
ENDBRANCH  11  12
ENDBRANCH   1  11
TORSDOF 5
