REMARK  Name = *****
REMARK  3 active torsions:
REMARK  status: ('A' for Active; 'I' for Inactive)
REMARK    1  A    between atoms: C_4  and  S_7
REMARK    2  A    between atoms: S_7  and  C_8
REMARK    3  A    between atoms: C_9  and  C_10
REMARK                            x       y       z     vdW  Elec       q    Type
REMARK                         _______ _______ _______ _____ _____    ______ ____
ROOT
ATOM      1  C   UNL     1       3.537  -2.287  -0.116  0.00  0.00    +0.000 C 
ATOM      2  C   UNL     1       4.640  -2.916  -0.547  0.00  0.00    +0.000 C 
ENDROOT
BRANCH   2   3
ATOM      3  C   UNL     1       5.092  -4.215  -0.030  0.00  0.00    +0.000 A 
ATOM      4  C   UNL     1       4.202  -5.264   0.237  0.00  0.00    +0.000 A 
ATOM      5  C   UNL     1       4.674  -6.495   0.699  0.00  0.00    +0.000 A 
ATOM      6  C   UNL     1       6.040  -6.694   0.888  0.00  0.00    +0.000 A 
ATOM      7  C   UNL     1       6.936  -5.664   0.610  0.00  0.00    +0.000 A 
ATOM      8  C   UNL     1       6.465  -4.433   0.147  0.00  0.00    +0.000 A 
ENDBRANCH   2   3
BRANCH   1   9
ATOM      9  S   UNL     1       3.075  -0.752  -0.774  0.00  0.00    +0.000 S 
BRANCH   9  13
ATOM     10  C   UNL     1      -1.365   0.380  -0.061  0.00  0.00    +0.000 C 
ATOM     11  C   UNL     1      -0.992  -1.096   0.036  0.00  0.00    +0.000 C 
ATOM     12  C   UNL     1       0.379  -1.375  -0.580  0.00  0.00    +0.000 C 
ATOM     13  C   UNL     1       1.461  -0.485   0.047  0.00  0.00    +0.000 C 
ATOM     14  C   UNL     1       1.085   0.997  -0.070  0.00  0.00    +0.000 C 
ATOM     15  C   UNL     1      -0.287   1.272   0.546  0.00  0.00    +0.000 C 
ENDBRANCH   9  13
ENDBRANCH   1   9
TORSDOF 3
