MODEL 1
REMARK VINA RESULT:      -5.1      0.000      0.000
REMARK  Name = *****
REMARK  1 active torsions:
REMARK  status: ('A' for Active; 'I' for Inactive)
REMARK    1  A    between atoms: C_4  and  C_7
REMARK                            x       y       z     vdW  Elec       q    Type
REMARK                         _______ _______ _______ _____ _____    ______ ____
ROOT
ATOM      1  C   UNL     1     103.327 125.927  82.092  0.00  0.00    +0.000 C 
ATOM      2  C   UNL     1     101.979 125.938  82.239  0.00  0.00    +0.000 C 
ATOM      3  C   UNL     1     101.052 127.045  82.670  0.00  0.00    +0.000 A 
ATOM      4  C   UNL     1      99.695 126.767  82.372  0.00  0.00    +0.000 A 
ATOM      5  C   UNL     1      98.661 127.651  82.688  0.00  0.00    +0.000 A 
ATOM      6  C   UNL     1      98.947 128.849  83.318  0.00  0.00    +0.000 A 
ATOM      7  C   UNL     1     100.268 129.160  83.634  0.00  0.00    +0.000 A 
ATOM      8  C   UNL     1     101.334 128.282  83.329  0.00  0.00    +0.000 A 
ATOM      9  S   UNL     1     102.938 128.969  83.877  0.00  0.00    +0.000 S 
ATOM     10  C   UNL     1     103.895 127.548  83.686  0.00  0.00    +0.000 C 
ATOM     11  C   UNL     1     104.054 127.138  82.420  0.00  0.00    +0.000 C 
ENDROOT
BRANCH   1  15
ATOM     12  C   UNL     1     105.321 122.418  80.654  0.00  0.00    +0.000 A 
ATOM     13  C   UNL     1     105.193 123.536  79.834  0.00  0.00    +0.000 A 
ATOM     14  C   UNL     1     104.539 124.677  80.304  0.00  0.00    +0.000 A 
ATOM     15  C   UNL     1     104.005 124.710  81.600  0.00  0.00    +0.000 A 
ATOM     16  C   UNL     1     104.149 123.581  82.420  0.00  0.00    +0.000 A 
ATOM     17  C   UNL     1     104.801 122.439  81.947  0.00  0.00    +0.000 A 
ENDBRANCH   1  15
TORSDOF 1
ENDMDL
