REMARK  Name = *****
REMARK  5 active torsions:
REMARK  status: ('A' for Active; 'I' for Inactive)
REMARK    1  A    between atoms: C_1  and  O_2
REMARK    2  A    between atoms: O_2  and  P_3
REMARK    3  A    between atoms: P_3  and  C_5
REMARK    4  A    between atoms: P_3  and  O_11
REMARK    5  A    between atoms: O_11  and  C_12
REMARK                            x       y       z     vdW  Elec       q    Type
REMARK                         _______ _______ _______ _____ _____    ______ ____
ROOT
ATOM      1  P   UNL     1       3.077  -1.038   1.290  0.00  0.00    +0.000 P 
ATOM      2  S   UNL     1       1.187  -1.214   1.991  0.00  0.00    +0.000 S 
ENDROOT
BRANCH   1   3
ATOM      3  C   UNL     1       3.700  -2.283   0.062  0.00  0.00    +0.000 A 
ATOM      4  C   UNL     1       4.971  -2.097  -0.508  0.00  0.00    +0.000 A 
ATOM      5  C   UNL     1       5.469  -3.023  -1.424  0.00  0.00    +0.000 A 
ATOM      6  C   UNL     1       4.706  -4.135  -1.778  0.00  0.00    +0.000 A 
ATOM      7  C   UNL     1       3.443  -4.325  -1.217  0.00  0.00    +0.000 A 
ATOM      8  C   UNL     1       2.939  -3.403  -0.299  0.00  0.00    +0.000 A 
ENDBRANCH   1   3
BRANCH   1  10
ATOM      9  C   UNL     1       2.820   1.316   0.118  0.00  0.00    +0.000 C 
ATOM     10  O   UNL     1       2.500  -0.058  -0.013  0.00  0.00    +0.000 OA
ENDBRANCH   1  10
BRANCH   1  11
ATOM     11  O   UNL     1       3.654  -2.018   2.594  0.00  0.00    +0.000 OA
BRANCH  11  12
ATOM     12  C   UNL     1       4.860  -1.649   3.124  0.00  0.00    +0.000 A 
ATOM     13  C   UNL     1       5.059  -0.371   3.642  0.00  0.00    +0.000 A 
ATOM     14  C   UNL     1       6.310  -0.030   4.156  0.00  0.00    +0.000 A 
ATOM     15  C   UNL     1       7.345  -0.967   4.157  0.00  0.00    +0.000 A 
ATOM     16  C   UNL     1       7.129  -2.251   3.656  0.00  0.00    +0.000 A 
ATOM     17  C   UNL     1       5.879  -2.597   3.143  0.00  0.00    +0.000 A 
ENDBRANCH  11  12
ENDBRANCH   1  11
TORSDOF 4
