MODEL 1
REMARK VINA RESULT:      -4.1      0.000      0.000
REMARK  Name = *****
REMARK  4 active torsions:
REMARK  status: ('A' for Active; 'I' for Inactive)
REMARK    1  A    between atoms: C_1  and  C_2
REMARK    2  A    between atoms: C_7  and  C_8
REMARK    3  A    between atoms: C_8  and  O_10
REMARK    4  A    between atoms: O_10  and  C_11
REMARK                            x       y       z     vdW  Elec       q    Type
REMARK                         _______ _______ _______ _____ _____    ______ ____
ROOT
ATOM      1  C   UNL     1      88.776  70.417  85.947  0.00  0.00    +0.000 C 
ATOM      2  O   UNL     1      89.839  71.017  85.970  0.00  0.00    +0.000 OA
ENDROOT
BRANCH   1   9
ATOM      3  C   UNL     1      88.198  70.339  88.949  0.00  0.00    +0.000 C 
ATOM      4  C   UNL     1      87.251  70.918  87.935  0.00  0.00    +0.000 A 
ATOM      5  C   UNL     1      86.040  71.470  88.387  0.00  0.00    +0.000 A 
ATOM      6  C   UNL     1      85.110  71.999  87.489  0.00  0.00    +0.000 A 
ATOM      7  C   UNL     1      85.374  71.986  86.123  0.00  0.00    +0.000 A 
ATOM      8  C   UNL     1      86.576  71.456  85.655  0.00  0.00    +0.000 A 
ATOM      9  C   UNL     1      87.526  70.940  86.553  0.00  0.00    +0.000 A 
ENDBRANCH   1   9
BRANCH   1  10
ATOM     10  O   UNL     1      88.572  69.167  85.466  0.00  0.00    +0.000 OA
BRANCH  10  11
ATOM     11  C   UNL     1      89.282  68.129  86.141  0.00  0.00    +0.000 C 
ATOM     12  C   UNL     1      90.053  67.233  85.178  0.00  0.00    +0.000 C 
ATOM     13  C   UNL     1      90.211  65.913  85.924  0.00  0.00    +0.000 C 
ATOM     14  C   UNL     1      89.114  65.892  86.990  0.00  0.00    +0.000 C 
ATOM     15  C   UNL     1      88.291  67.152  86.761  0.00  0.00    +0.000 C 
ENDBRANCH  10  11
ENDBRANCH   1  10
TORSDOF 3
ENDMDL
