MODEL 1
REMARK VINA RESULT:      -4.8      0.000      0.000
REMARK  Name = *****
REMARK  5 active torsions:
REMARK  status: ('A' for Active; 'I' for Inactive)
REMARK    1  A    between atoms: C_1  and  N_2
REMARK    2  A    between atoms: N_2  and  C_3
REMARK    3  A    between atoms: C_7  and  O_10
REMARK    4  A    between atoms: O_10  and  C_11
REMARK    5  A    between atoms: C_11  and  C_12
REMARK                            x       y       z     vdW  Elec       q    Type
REMARK                         _______ _______ _______ _____ _____    ______ ____
ROOT
ATOM      1  O   UNL     1      89.388  69.865  85.361  0.00  0.00    +0.000 OA
ENDROOT
BRANCH   1   8
ATOM      2  C   UNL     1      89.917  63.626  85.354  0.00  0.00    +0.000 C 
ATOM      3  N   UNL     1      90.873  64.563  84.761  0.00  0.00    +0.000 N 
ATOM      4  C   UNL     1      91.259  64.234  83.388  0.00  0.00    +0.000 C 
ATOM      5  C   UNL     1      90.480  65.912  84.905  0.00  0.00    +0.000 A 
ATOM      6  N   UNL     1      90.317  66.715  83.827  0.00  0.00    +0.000 NA
ATOM      7  N   UNL     1      89.944  68.035  83.962  0.00  0.00    +0.000 NA
ATOM      8  C   UNL     1      89.753  68.547  85.191  0.00  0.00    +0.000 A 
ATOM      9  C   UNL     1      89.921  67.786  86.326  0.00  0.00    +0.000 A 
ATOM     10  C   UNL     1      90.291  66.451  86.177  0.00  0.00    +0.000 A 
ENDBRANCH   1   8
BRANCH   1  11
ATOM     11  C   UNL     1      89.175  70.212  86.734  0.00  0.00    +0.000 C 
BRANCH  11  12
ATOM     12  C   UNL     1      87.802  70.830  86.937  0.00  0.00    +0.000 A 
ATOM     13  C   UNL     1      87.290  71.025  88.234  0.00  0.00    +0.000 A 
ATOM     14  C   UNL     1      86.023  71.582  88.433  0.00  0.00    +0.000 A 
ATOM     15  C   UNL     1      85.250  71.945  87.335  0.00  0.00    +0.000 A 
ATOM     16  C   UNL     1      85.729  71.754  86.043  0.00  0.00    +0.000 A 
ATOM     17  C   UNL     1      86.995  71.198  85.846  0.00  0.00    +0.000 A 
ATOM     18 CL   UNL     1      83.690  72.630  87.576  0.00  0.00    +0.000 Cl
ATOM     19 CL   UNL     1      88.192  70.581  89.641  0.00  0.00    +0.000 Cl
ENDBRANCH  11  12
ENDBRANCH   1  11
TORSDOF 3
ENDMDL
