REMARK  Name = *****
REMARK  3 active torsions:
REMARK  status: ('A' for Active; 'I' for Inactive)
REMARK    1  A    between atoms: C_3  and  C_16
REMARK    2  A    between atoms: C_6  and  C_7
REMARK    3  A    between atoms: C_8  and  C_9
REMARK                            x       y       z     vdW  Elec       q    Type
REMARK                         _______ _______ _______ _____ _____    ______ ____
ROOT
ATOM      1  C   UNL     1       1.329   2.603  -0.204  0.00  0.00    +0.000 C 
ATOM      2  C   UNL     1       1.860   3.675  -0.318  0.00  0.00    +0.000 C 
ENDROOT
BRANCH   2   3
ATOM      3  C   UNL     1       2.481   4.951  -0.490  0.00  0.00    +0.000 A 
ATOM      4  C   UNL     1       1.812   6.114  -0.095  0.00  0.00    +0.000 A 
ATOM      5  C   UNL     1       2.410   7.361  -0.287  0.00  0.00    +0.000 A 
ATOM      6  C   UNL     1       3.670   7.435  -0.871  0.00  0.00    +0.000 A 
ATOM      7  C   UNL     1       4.346   6.285  -1.264  0.00  0.00    +0.000 A 
ATOM      8  C   UNL     1       3.750   5.037  -1.074  0.00  0.00    +0.000 A 
ATOM      9  F   UNL     1       4.241   8.632  -1.060  0.00  0.00    +0.000 F 
ENDBRANCH   2   3
BRANCH   1  15
ATOM     10  C   UNL     1      -0.708   1.252  -0.074  0.00  0.00    +0.000 A 
ATOM     11  C   UNL     1      -1.341   0.007  -0.011  0.00  0.00    +0.000 A 
ATOM     12  C   UNL     1      -0.578  -1.166   0.022  0.00  0.00    +0.000 A 
ATOM     13  C   UNL     1       0.819  -1.086  -0.002  0.00  0.00    +0.000 A 
ATOM     14  C   UNL     1       1.449   0.160  -0.066  0.00  0.00    +0.000 A 
ATOM     15  C   UNL     1       0.686   1.329  -0.106  0.00  0.00    +0.000 A 
BRANCH  12  16
ATOM     16  C   UNL     1      -1.226  -2.444   0.073  0.00  0.00    +0.000 C 
ATOM     17  N   UNL     1      -1.751  -3.478   0.110  0.00  0.00    +0.000 NA
ENDBRANCH  12  16
ENDBRANCH   1  15
TORSDOF 3
