REMARK  Name = *****
REMARK  1 active torsions:
REMARK  status: ('A' for Active; 'I' for Inactive)
REMARK    1  A    between atoms: C_4  and  C_7
REMARK                            x       y       z     vdW  Elec       q    Type
REMARK                         _______ _______ _______ _____ _____    ______ ____
ROOT
ATOM      1  C   UNL     1      -3.135  -1.136  -0.430  0.00  0.00    +0.000 C 
ATOM      2  C   UNL     1      -3.884  -2.033   0.228  0.00  0.00    +0.000 C 
ATOM      3  C   UNL     1      -5.261  -2.187  -0.234  0.00  0.00    +0.000 A 
ATOM      4  C   UNL     1      -6.189  -2.958   0.471  0.00  0.00    +0.000 A 
ATOM      5  C   UNL     1      -7.493  -3.097  -0.013  0.00  0.00    +0.000 A 
ATOM      6  C   UNL     1      -7.871  -2.476  -1.205  0.00  0.00    +0.000 A 
ATOM      7  C   UNL     1      -6.947  -1.711  -1.917  0.00  0.00    +0.000 A 
ATOM      8  C   UNL     1      -5.649  -1.562  -1.428  0.00  0.00    +0.000 A 
ATOM      9  O   UNL     1      -4.766  -0.831  -2.199  0.00  0.00    +0.000 OA
ATOM     10  N   UNL     1      -3.651  -0.378  -1.470  0.00  0.00    +0.000 N 
ATOM     11  H   UNL     1      -3.234   0.484  -1.700  0.00  0.00    +0.000 HD
ENDROOT
BRANCH   1  15
ATOM     12  C   UNL     1       0.924  -0.383   0.704  0.00  0.00    +0.000 A 
ATOM     13  C   UNL     1       0.523  -1.677   0.376  0.00  0.00    +0.000 A 
ATOM     14  C   UNL     1      -0.801  -1.928   0.010  0.00  0.00    +0.000 A 
ATOM     15  C   UNL     1      -1.738  -0.886  -0.030  0.00  0.00    +0.000 A 
ATOM     16  C   UNL     1      -1.322   0.413   0.297  0.00  0.00    +0.000 A 
ATOM     17  C   UNL     1       0.003   0.662   0.664  0.00  0.00    +0.000 A 
ENDBRANCH   1  15
TORSDOF 1
