REMARK  Name = *****
REMARK  3 active torsions:
REMARK  status: ('A' for Active; 'I' for Inactive)
REMARK    1  A    between atoms: C_4  and  C_7
REMARK    2  A    between atoms: C_7  and  S_8
REMARK    3  A    between atoms: S_8  and  C_9
REMARK                            x       y       z     vdW  Elec       q    Type
REMARK                         _______ _______ _______ _____ _____    ______ ____
ROOT
ATOM      1  C   UNL     1      -2.875   0.296  -0.238  0.00  0.00    +0.000 C 
ENDROOT
BRANCH   1   5
ATOM      2  C   UNL     1       1.401  -0.167   0.107  0.00  0.00    +0.000 A 
ATOM      3  C   UNL     1       0.580  -1.292   0.061  0.00  0.00    +0.000 A 
ATOM      4  C   UNL     1      -0.803  -1.144  -0.053  0.00  0.00    +0.000 A 
ATOM      5  C   UNL     1      -1.379   0.133  -0.128  0.00  0.00    +0.000 A 
ATOM      6  C   UNL     1      -0.542   1.258  -0.072  0.00  0.00    +0.000 A 
ATOM      7  C   UNL     1       0.841   1.107   0.042  0.00  0.00    +0.000 A 
ENDBRANCH   1   5
BRANCH   1   8
ATOM      8  S   UNL     1      -3.653   0.397   1.400  0.00  0.00    +0.000 S 
BRANCH   8   9
ATOM      9  C   UNL     1      -5.329   0.597   0.945  0.00  0.00    +0.000 A 
ATOM     10  N   UNL     1      -5.715   0.634  -0.310  0.00  0.00    +0.000 NA
ATOM     11  C   UNL     1      -7.085   0.802  -0.370  0.00  0.00    +0.000 A 
ATOM     12  C   UNL     1      -7.722   0.891   0.850  0.00  0.00    +0.000 A 
ATOM     13  S   UNL     1      -6.573   0.759   2.115  0.00  0.00    +0.000 S 
ATOM     14 CL   UNL     1      -7.881   0.888  -1.881  0.00  0.00    +0.000 Cl
ENDBRANCH   8   9
ENDBRANCH   1   8
TORSDOF 3
