MODEL 1
REMARK VINA RESULT:      -4.7      0.000      0.000
REMARK  Name = *****
REMARK  3 active torsions:
REMARK  status: ('A' for Active; 'I' for Inactive)
REMARK    1  A    between atoms: C_1  and  C_2
REMARK    2  A    between atoms: C_5  and  N_8
REMARK    3  A    between atoms: C_9  and  C_10
REMARK                            x       y       z     vdW  Elec       q    Type
REMARK                         _______ _______ _______ _____ _____    ______ ____
ROOT
ATOM      1  N   UNL     1     101.689 125.912  82.203  0.00  0.00    +0.000 NA
ATOM      2  C   UNL     1     102.961 125.818  82.437  0.00  0.00    +0.000 C 
ENDROOT
BRANCH   1   7
ATOM      3  C   UNL     1      99.137 130.577  84.295  0.00  0.00    +0.000 C 
ATOM      4  C   UNL     1      99.811 129.368  83.717  0.00  0.00    +0.000 A 
ATOM      5  C   UNL     1      99.054 128.355  83.115  0.00  0.00    +0.000 A 
ATOM      6  C   UNL     1      99.678 127.212  82.610  0.00  0.00    +0.000 A 
ATOM      7  C   UNL     1     101.063 127.064  82.699  0.00  0.00    +0.000 A 
ATOM      8  C   UNL     1     101.816 128.058  83.326  0.00  0.00    +0.000 A 
ATOM      9  C   UNL     1     101.196 129.203  83.833  0.00  0.00    +0.000 A 
ENDBRANCH   1   7
BRANCH   2  10
ATOM     10  C   UNL     1     103.753 124.662  81.977  0.00  0.00    +0.000 A 
ATOM     11  C   UNL     1     104.140 124.546  80.637  0.00  0.00    +0.000 A 
ATOM     12  C   UNL     1     104.890 123.444  80.225  0.00  0.00    +0.000 A 
ATOM     13  C   UNL     1     105.246 122.471  81.153  0.00  0.00    +0.000 A 
ATOM     14  C   UNL     1     104.866 122.578  82.488  0.00  0.00    +0.000 A 
ATOM     15  C   UNL     1     104.116 123.679  82.905  0.00  0.00    +0.000 A 
ATOM     16  F   UNL     1     105.966 121.414  80.757  0.00  0.00    +0.000 F 
ENDBRANCH   2  10
TORSDOF 2
ENDMDL
