MODEL 1
REMARK VINA RESULT:      -4.5      0.000      0.000
REMARK  Name = *****
REMARK  4 active torsions:
REMARK  status: ('A' for Active; 'I' for Inactive)
REMARK    1  A    between atoms: C_4  and  C_7
REMARK    2  A    between atoms: C_7  and  C_9
REMARK    3  A    between atoms: C_9  and  C_10
REMARK    4  A    between atoms: C_10  and  C_11
REMARK                            x       y       z     vdW  Elec       q    Type
REMARK                         _______ _______ _______ _____ _____    ______ ____
ROOT
ATOM      1  C   UNL     1      89.735  68.615  86.422  0.00  0.00    +0.000 C 
ENDROOT
BRANCH   1   2
ATOM      2  C   UNL     1      89.399  70.093  86.483  0.00  0.00    +0.000 C 
ATOM      3  O   UNL     1      89.985  70.926  85.791  0.00  0.00    +0.000 OA
BRANCH   2   7
ATOM      4  C   UNL     1      86.392  71.370  89.277  0.00  0.00    +0.000 A 
ATOM      5  C   UNL     1      86.128  71.438  87.910  0.00  0.00    +0.000 A 
ATOM      6  C   UNL     1      87.093  71.029  86.986  0.00  0.00    +0.000 A 
ATOM      7  C   UNL     1      88.332  70.548  87.427  0.00  0.00    +0.000 A 
ATOM      8  C   UNL     1      88.588  70.481  88.805  0.00  0.00    +0.000 A 
ATOM      9  C   UNL     1      87.621  70.891  89.725  0.00  0.00    +0.000 A 
ENDBRANCH   2   7
ENDBRANCH   1   2
BRANCH   1  10
ATOM     10  C   UNL     1      88.519  67.777  86.026  0.00  0.00    +0.000 C 
BRANCH  10  11
ATOM     11  C   UNL     1      88.176  66.748  87.082  0.00  0.00    +0.000 A 
ATOM     12  C   UNL     1      88.789  65.485  87.147  0.00  0.00    +0.000 A 
ATOM     13  C   UNL     1      88.424  64.564  88.132  0.00  0.00    +0.000 A 
ATOM     14  C   UNL     1      87.440  64.897  89.058  0.00  0.00    +0.000 A 
ATOM     15  C   UNL     1      86.816  66.139  89.010  0.00  0.00    +0.000 A 
ATOM     16  C   UNL     1      87.180  67.060  88.025  0.00  0.00    +0.000 A 
ATOM     17 CL   UNL     1      86.988  63.763  90.271  0.00  0.00    +0.000 Cl
ATOM     18 CL   UNL     1      90.008  65.004  86.021  0.00  0.00    +0.000 Cl
ENDBRANCH  10  11
ENDBRANCH   1  10
TORSDOF 4
ENDMDL
