MODEL 1
REMARK VINA RESULT:      -4.4      0.000      0.000
REMARK  Name = *****
REMARK  4 active torsions:
REMARK  status: ('A' for Active; 'I' for Inactive)
REMARK    1  A    between atoms: C_1  and  C_2
REMARK    2  A    between atoms: C_2  and  C_3
REMARK    3  A    between atoms: C_2  and  O_9
REMARK    4  A    between atoms: O_9  and  C_10
REMARK                            x       y       z     vdW  Elec       q    Type
REMARK                         _______ _______ _______ _____ _____    ______ ____
ROOT
ATOM      1  C   UNL     1     104.215 128.444  81.650  0.00  0.00    +0.000 C 
ATOM      2  C   UNL     1     103.126 127.371  81.627  0.00  0.00    +0.000 C 
ENDROOT
BRANCH   2   3
ATOM      3  C   UNL     1     103.742 126.025  81.275  0.00  0.00    +0.000 A 
ATOM      4  C   UNL     1     103.688 124.939  82.160  0.00  0.00    +0.000 A 
ATOM      5  C   UNL     1     104.275 123.718  81.823  0.00  0.00    +0.000 A 
ATOM      6  C   UNL     1     104.927 123.570  80.601  0.00  0.00    +0.000 A 
ATOM      7  C   UNL     1     104.994 124.642  79.714  0.00  0.00    +0.000 A 
ATOM      8  C   UNL     1     104.408 125.865  80.049  0.00  0.00    +0.000 A 
ENDBRANCH   2   3
BRANCH   2   9
ATOM      9  O   UNL     1     102.526 127.368  82.933  0.00  0.00    +0.000 OA
BRANCH   9  10
ATOM     10  C   UNL     1     101.188 127.644  83.005  0.00  0.00    +0.000 A 
ATOM     11  C   UNL     1     100.631 128.796  83.560  0.00  0.00    +0.000 A 
ATOM     12  C   UNL     1      99.245 128.975  83.557  0.00  0.00    +0.000 A 
ATOM     13  C   UNL     1      98.414 128.009  82.992  0.00  0.00    +0.000 A 
ATOM     14  C   UNL     1      98.968 126.867  82.418  0.00  0.00    +0.000 A 
ATOM     15  C   UNL     1     100.352 126.691  82.418  0.00  0.00    +0.000 A 
ENDBRANCH   9  10
ENDBRANCH   2   9
TORSDOF 3
ENDMDL
