REMARK  Name = *****
REMARK  5 active torsions:
REMARK  status: ('A' for Active; 'I' for Inactive)
REMARK    1  A    between atoms: C_1  and  N_2
REMARK    2  A    between atoms: N_2  and  C_3
REMARK    3  A    between atoms: N_2  and  C_12
REMARK    4  A    between atoms: C_3  and  S_4
REMARK    5  A    between atoms: S_4  and  C_5
REMARK                            x       y       z     vdW  Elec       q    Type
REMARK                         _______ _______ _______ _____ _____    ______ ____
ROOT
ATOM      1  C   UNL     1       3.259   0.987  -0.871  0.00  0.00    +0.000 C 
ENDROOT
BRANCH   1   3
ATOM      2  C   UNL     1       1.186  -0.204  -0.223  0.00  0.00    +0.000 C 
ATOM      3  N   UNL     1       2.590   0.077   0.068  0.00  0.00    +0.000 N 
BRANCH   3   4
ATOM      4  C   UNL     1       3.361  -0.900   0.708  0.00  0.00    +0.000 A 
ATOM      5  C   UNL     1       2.919  -2.224   0.878  0.00  0.00    +0.000 A 
ATOM      6  C   UNL     1       3.700  -3.190   1.526  0.00  0.00    +0.000 A 
ATOM      7  C   UNL     1       4.947  -2.854   2.036  0.00  0.00    +0.000 A 
ATOM      8  C   UNL     1       5.406  -1.550   1.904  0.00  0.00    +0.000 A 
ATOM      9  C   UNL     1       4.621  -0.591   1.252  0.00  0.00    +0.000 A 
ENDBRANCH   3   4
ENDBRANCH   1   3
BRANCH   1  10
ATOM     10  S   UNL     1       3.697   0.159  -2.440  0.00  0.00    +0.000 S 
BRANCH  10  11
ATOM     11  C   UNL     1       4.429   1.531  -3.307  0.00  0.00    +0.000 A 
ATOM     12  C   UNL     1       5.619   2.118  -2.862  0.00  0.00    +0.000 A 
ATOM     13  C   UNL     1       6.184   3.186  -3.565  0.00  0.00    +0.000 A 
ATOM     14  C   UNL     1       5.565   3.660  -4.720  0.00  0.00    +0.000 A 
ATOM     15  C   UNL     1       4.388   3.072  -5.180  0.00  0.00    +0.000 A 
ATOM     16  C   UNL     1       3.824   2.005  -4.476  0.00  0.00    +0.000 A 
ATOM     17 CL   UNL     1       6.261   4.973  -5.586  0.00  0.00    +0.000 Cl
ENDBRANCH  10  11
ENDBRANCH   1  10
TORSDOF 4
