MODEL 1
REMARK VINA RESULT:      -4.4      0.000      0.000
REMARK  Name = *****
REMARK  3 active torsions:
REMARK  status: ('A' for Active; 'I' for Inactive)
REMARK    1  A    between atoms: C_3  and  C_7
REMARK    2  A    between atoms: C_7  and  C_8
REMARK    3  A    between atoms: C_8  and  C_9
REMARK                            x       y       z     vdW  Elec       q    Type
REMARK                         _______ _______ _______ _____ _____    ______ ____
ROOT
ATOM      1  C   UNL     1     102.693 127.603  82.794  0.00  0.00    +0.000 C 
ENDROOT
BRANCH   1   4
ATOM      2  C   UNL     1      99.090 129.100  83.341  0.00  0.00    +0.000 C 
ATOM      3  C   UNL     1     100.593 128.874  83.594  0.00  0.00    +0.000 C 
ATOM      4  C   UNL     1     101.188 127.671  82.896  0.00  0.00    +0.000 C 
ATOM      5  C   UNL     1     100.397 126.710  82.385  0.00  0.00    +0.000 C 
ATOM      6  C   UNL     1      98.960 126.765  82.497  0.00  0.00    +0.000 C 
ATOM      7  C   UNL     1      98.336 127.869  82.928  0.00  0.00    +0.000 C 
ENDBRANCH   1   4
BRANCH   1   8
ATOM      8  C   UNL     1     103.172 127.093  81.428  0.00  0.00    +0.000 C 
BRANCH   8   9
ATOM      9  C   UNL     1     103.762 125.703  81.499  0.00  0.00    +0.000 C 
ATOM     10  C   UNL     1     104.065 125.003  80.392  0.00  0.00    +0.000 C 
ATOM     11  C   UNL     1     104.645 123.685  80.460  0.00  0.00    +0.000 C 
ATOM     12  C   UNL     1     104.718 123.013  81.616  0.00  0.00    +0.000 C 
ATOM     13  C   UNL     1     104.224 123.595  82.908  0.00  0.00    +0.000 C 
ATOM     14  C   UNL     1     103.996 125.119  82.876  0.00  0.00    +0.000 C 
ENDBRANCH   8   9
ENDBRANCH   1   8
TORSDOF 3
ENDMDL
