REMARK  Name = *****
REMARK  4 active torsions:
REMARK  status: ('A' for Active; 'I' for Inactive)
REMARK    1  A    between atoms: C_8  and  C_9
REMARK    2  A    between atoms: C_9  and  O_11
REMARK    3  A    between atoms: O_11  and  C_12
REMARK    4  A    between atoms: C_12  and  C_13
REMARK                            x       y       z     vdW  Elec       q    Type
REMARK                         _______ _______ _______ _____ _____    ______ ____
ROOT
ATOM      1  C   UNL     1       1.435   1.335  -1.939  0.00  0.00    +0.000 C 
ATOM      2  O   UNL     1       1.012   0.960  -3.023  0.00  0.00    +0.000 OA
ENDROOT
BRANCH   1  10
ATOM      3  C   UNL     1      -0.833  -1.328  -0.836  0.00  0.00    +0.000 C 
ATOM      4  C   UNL     1       0.706  -1.356  -0.689  0.00  0.00    +0.000 C 
ATOM      5  C   UNL     1       1.184  -0.115   0.105  0.00  0.00    +0.000 C 
ATOM      6  C   UNL     1       0.452  -0.155   1.436  0.00  0.00    +0.000 C 
ATOM      7  C   UNL     1      -0.888  -0.146   1.329  0.00  0.00    +0.000 C 
ATOM      8  C   UNL     1      -1.409  -0.102  -0.095  0.00  0.00    +0.000 C 
ATOM      9  C   UNL     1      -0.830   1.168  -0.762  0.00  0.00    +0.000 C 
ATOM     10  C   UNL     1       0.717   1.177  -0.613  0.00  0.00    +0.000 C 
ENDBRANCH   1  10
BRANCH   1  11
ATOM     11  O   UNL     1       2.640   1.934  -1.739  0.00  0.00    +0.000 OA
BRANCH  11  12
ATOM     12  C   UNL     1       3.405   2.135  -2.930  0.00  0.00    +0.000 C 
BRANCH  12  13
ATOM     13  C   UNL     1       4.504   3.114  -2.608  0.00  0.00    +0.000 A 
ATOM     14  C   UNL     1       5.640   2.700  -1.896  0.00  0.00    +0.000 A 
ATOM     15  C   UNL     1       6.645   3.614  -1.576  0.00  0.00    +0.000 A 
ATOM     16  C   UNL     1       6.523   4.949  -1.957  0.00  0.00    +0.000 A 
ATOM     17  C   UNL     1       5.395   5.373  -2.657  0.00  0.00    +0.000 A 
ATOM     18  C   UNL     1       4.388   4.461  -2.978  0.00  0.00    +0.000 A 
ENDBRANCH  12  13
ENDBRANCH  11  12
ENDBRANCH   1  11
TORSDOF 4
