MODEL 1
REMARK VINA RESULT:      -4.2      0.000      0.000
REMARK  Name = *****
REMARK  3 active torsions:
REMARK  status: ('A' for Active; 'I' for Inactive)
REMARK    1  A    between atoms: C_3  and  S_7
REMARK    2  A    between atoms: S_7  and  S_8
REMARK    3  A    between atoms: S_8  and  C_9
REMARK                            x       y       z     vdW  Elec       q    Type
REMARK                         _______ _______ _______ _____ _____    ______ ____
ROOT
ATOM      1  S   UNL     1     103.084 127.726  82.938  0.00  0.00    +0.000 S 
ENDROOT
BRANCH   1   4
ATOM      2  C   UNL     1      99.197 129.146  83.313  0.00  0.00    +0.000 C 
ATOM      3  C   UNL     1     100.680 128.950  83.686  0.00  0.00    +0.000 C 
ATOM      4  C   UNL     1     101.344 127.775  83.002  0.00  0.00    +0.000 C 
ATOM      5  C   UNL     1     100.618 126.799  82.429  0.00  0.00    +0.000 C 
ATOM      6  C   UNL     1      99.176 126.808  82.467  0.00  0.00    +0.000 C 
ATOM      7  C   UNL     1      98.499 127.895  82.863  0.00  0.00    +0.000 C 
ENDBRANCH   1   4
BRANCH   1   8
ATOM      8  S   UNL     1     103.315 126.982  81.032  0.00  0.00    +0.000 S 
BRANCH   8   9
ATOM      9  C   UNL     1     103.868 125.316  81.350  0.00  0.00    +0.000 A 
ATOM     10  C   UNL     1     104.378 124.522  80.317  0.00  0.00    +0.000 A 
ATOM     11  C   UNL     1     104.811 123.221  80.579  0.00  0.00    +0.000 A 
ATOM     12  C   UNL     1     104.742 122.709  81.873  0.00  0.00    +0.000 A 
ATOM     13  C   UNL     1     104.241 123.497  82.909  0.00  0.00    +0.000 A 
ATOM     14  C   UNL     1     103.808 124.799  82.648  0.00  0.00    +0.000 A 
ENDBRANCH   8   9
ENDBRANCH   1   8
TORSDOF 3
ENDMDL
