MODEL 1
REMARK VINA RESULT:      -4.2      0.000      0.000
REMARK  Name = *****
REMARK  5 active torsions:
REMARK  status: ('A' for Active; 'I' for Inactive)
REMARK    1  A    between atoms: C_1  and  O_2
REMARK    2  A    between atoms: O_2  and  N_3
REMARK    3  A    between atoms: C_4  and  C_5
REMARK    4  A    between atoms: C_4  and  C_12
REMARK    5  A    between atoms: C_5  and  C_6
REMARK                            x       y       z     vdW  Elec       q    Type
REMARK                         _______ _______ _______ _____ _____    ______ ____
ROOT
ATOM      1  N   UNL     1     102.490 125.079  83.717  0.00  0.00    +0.000 NA
ATOM      2  C   UNL     1     102.118 125.887  82.765  0.00  0.00    +0.000 C 
ENDROOT
BRANCH   2   3
ATOM      3  C   UNL     1     101.055 126.907  82.895  0.00  0.00    +0.000 A 
ATOM      4  C   UNL     1      99.774 126.578  82.433  0.00  0.00    +0.000 A 
ATOM      5  C   UNL     1      98.745 127.516  82.520  0.00  0.00    +0.000 A 
ATOM      6  C   UNL     1      98.995 128.775  83.069  0.00  0.00    +0.000 A 
ATOM      7  C   UNL     1     100.273 129.098  83.532  0.00  0.00    +0.000 A 
ATOM      8  C   UNL     1     101.309 128.165  83.447  0.00  0.00    +0.000 A 
ATOM      9 CL   UNL     1     102.866 128.615  84.039  0.00  0.00    +0.000 Cl
ENDBRANCH   2   3
BRANCH   1  11
ATOM     10  C   UNL     1     102.718 125.447  85.966  0.00  0.00    +0.000 C 
ATOM     11  O   UNL     1     101.781 125.321  84.903  0.00  0.00    +0.000 OA
ENDBRANCH   1  11
BRANCH   2  12
ATOM     12  C   UNL     1     102.779 125.767  81.401  0.00  0.00    +0.000 C 
BRANCH  12  13
ATOM     13  C   UNL     1     103.905 126.756  81.225  0.00  0.00    +0.000 A 
ATOM     14  C   UNL     1     103.734 127.884  80.410  0.00  0.00    +0.000 A 
ATOM     15  C   UNL     1     104.764 128.812  80.259  0.00  0.00    +0.000 A 
ATOM     16  C   UNL     1     105.975 128.624  80.923  0.00  0.00    +0.000 A 
ATOM     17  C   UNL     1     106.156 127.507  81.737  0.00  0.00    +0.000 A 
ATOM     18  C   UNL     1     105.126 126.577  81.889  0.00  0.00    +0.000 A 
ENDBRANCH  12  13
ENDBRANCH   2  12
TORSDOF 4
ENDMDL
