REMARK  Name = *****
REMARK  2 active torsions:
REMARK  status: ('A' for Active; 'I' for Inactive)
REMARK    1  A    between atoms: C_9  and  S_11
REMARK    2  A    between atoms: S_11  and  C_12
REMARK                            x       y       z     vdW  Elec       q    Type
REMARK                         _______ _______ _______ _____ _____    ______ ____
ROOT
ATOM      1  C   UNL     1       2.439   0.483  -0.083  0.00  0.00    +0.000 C 
ATOM      2  C   UNL     1       1.250   1.264   0.478  0.00  0.00    +0.000 C 
ATOM      3  C   UNL     1      -0.071   0.608   0.152  0.00  0.00    +0.000 A 
ATOM      4  C   UNL     1      -1.224   1.400   0.034  0.00  0.00    +0.000 A 
ATOM      5  C   UNL     1      -2.457   0.811  -0.231  0.00  0.00    +0.000 A 
ATOM      6  C   UNL     1      -2.548  -0.570  -0.373  0.00  0.00    +0.000 A 
ATOM      7  C   UNL     1      -1.406  -1.366  -0.241  0.00  0.00    +0.000 A 
ATOM      8  C   UNL     1      -0.150  -0.798   0.034  0.00  0.00    +0.000 A 
ATOM      9  C   UNL     1       1.093  -1.600   0.198  0.00  0.00    +0.000 C 
ATOM     10  C   UNL     1       2.291  -0.996   0.111  0.00  0.00    +0.000 C 
ENDROOT
BRANCH   9  11
ATOM     11  S   UNL     1       0.994  -3.313   0.462  0.00  0.00    +0.000 S 
BRANCH  11  12
ATOM     12  C   UNL     1       1.310  -3.351   2.219  0.00  0.00    +0.000 A 
ATOM     13  C   UNL     1       0.403  -2.800   3.131  0.00  0.00    +0.000 A 
ATOM     14  C   UNL     1       0.663  -2.852   4.502  0.00  0.00    +0.000 A 
ATOM     15  C   UNL     1       1.826  -3.462   4.970  0.00  0.00    +0.000 A 
ATOM     16  C   UNL     1       2.729  -4.023   4.068  0.00  0.00    +0.000 A 
ATOM     17  C   UNL     1       2.470  -3.971   2.696  0.00  0.00    +0.000 A 
ENDBRANCH  11  12
ENDBRANCH   9  11
TORSDOF 2
