MODEL 1
REMARK VINA RESULT:      -4.4      0.000      0.000
REMARK  Name = *****
REMARK  4 active torsions:
REMARK  status: ('A' for Active; 'I' for Inactive)
REMARK    1  A    between atoms: C_1  and  C_2
REMARK    2  A    between atoms: C_5  and  S_8
REMARK    3  A    between atoms: S_8  and  C_9
REMARK    4  A    between atoms: C_9  and  C_11
REMARK                            x       y       z     vdW  Elec       q    Type
REMARK                         _______ _______ _______ _____ _____    ______ ____
ROOT
ATOM      1  S   UNL     1      87.805  69.185  85.049  0.00  0.00    +0.000 S 
ENDROOT
BRANCH   1   6
ATOM      2  C   UNL     1      88.952  64.441  86.218  0.00  0.00    +0.000 C 
ATOM      3  C   UNL     1      89.088  65.760  86.978  0.00  0.00    +0.000 C 
ATOM      4  C   UNL     1      87.714  66.442  87.102  0.00  0.00    +0.000 C 
ATOM      5  C   UNL     1      87.848  67.903  87.537  0.00  0.00    +0.000 C 
ATOM      6  C   UNL     1      88.715  68.729  86.570  0.00  0.00    +0.000 C 
ATOM      7  C   UNL     1      89.942  67.967  86.135  0.00  0.00    +0.000 C 
ATOM      8  C   UNL     1      90.119  66.651  86.331  0.00  0.00    +0.000 C 
ENDBRANCH   1   6
BRANCH   1   9
ATOM      9  C   UNL     1      87.657  70.923  85.284  0.00  0.00    +0.000 C 
ATOM     10  O   UNL     1      88.498  71.695  84.841  0.00  0.00    +0.000 OA
BRANCH   9  11
ATOM     11  C   UNL     1      86.473  71.442  86.038  0.00  0.00    +0.000 A 
ATOM     12  C   UNL     1      86.360  71.408  87.435  0.00  0.00    +0.000 A 
ATOM     13  C   UNL     1      85.221  71.918  88.066  0.00  0.00    +0.000 A 
ATOM     14  C   UNL     1      84.185  72.465  87.311  0.00  0.00    +0.000 A 
ATOM     15  C   UNL     1      84.284  72.505  85.922  0.00  0.00    +0.000 A 
ATOM     16  C   UNL     1      85.421  71.996  85.290  0.00  0.00    +0.000 A 
ENDBRANCH   9  11
ENDBRANCH   1   9
TORSDOF 3
ENDMDL
