MODEL 1
REMARK VINA RESULT:      -4.5      0.000      0.000
REMARK  Name = *****
REMARK  5 active torsions:
REMARK  status: ('A' for Active; 'I' for Inactive)
REMARK    1  A    between atoms: C_1  and  C_2
REMARK    2  A    between atoms: C_4  and  C_17
REMARK    3  A    between atoms: C_6  and  S_8
REMARK    4  A    between atoms: S_8  and  C_9
REMARK    5  A    between atoms: C_9  and  C_10
REMARK                            x       y       z     vdW  Elec       q    Type
REMARK                         _______ _______ _______ _____ _____    ______ ____
ROOT
ATOM      1  S   UNL     1      89.326  70.276  86.736  0.00  0.00    +0.000 S 
ENDROOT
BRANCH   1   7
ATOM      2  C   UNL     1      86.945  65.916  87.974  0.00  0.00    +0.000 C 
ATOM      3  C   UNL     1      88.118  66.577  87.314  0.00  0.00    +0.000 A 
ATOM      4  C   UNL     1      89.104  65.813  86.722  0.00  0.00    +0.000 A 
ATOM      5  C   UNL     1      90.151  66.499  86.139  0.00  0.00    +0.000 A 
ATOM      6  N   UNL     1      90.218  67.844  86.139  0.00  0.00    +0.000 NA
ATOM      7  C   UNL     1      89.214  68.506  86.734  0.00  0.00    +0.000 A 
ATOM      8  N   UNL     1      88.158  67.924  87.327  0.00  0.00    +0.000 NA
ATOM      9  C   UNL     1      91.266  65.754  85.469  0.00  0.00    +0.000 C 
ENDBRANCH   1   7
BRANCH   1  10
ATOM     10  C   UNL     1      88.028  70.653  85.525  0.00  0.00    +0.000 C 
BRANCH  10  11
ATOM     11  C   UNL     1      86.802  71.226  86.194  0.00  0.00    +0.000 A 
ATOM     12  C   UNL     1      85.764  71.778  85.426  0.00  0.00    +0.000 A 
ATOM     13  C   UNL     1      84.636  72.320  86.045  0.00  0.00    +0.000 A 
ATOM     14  C   UNL     1      84.539  72.318  87.435  0.00  0.00    +0.000 A 
ATOM     15  C   UNL     1      85.563  71.781  88.211  0.00  0.00    +0.000 A 
ATOM     16  C   UNL     1      86.693  71.239  87.593  0.00  0.00    +0.000 A 
ATOM     17 CL   UNL     1      83.149  72.985  88.197  0.00  0.00    +0.000 Cl
ENDBRANCH  10  11
ENDBRANCH   1  10
TORSDOF 3
ENDMDL
