REMARK  Name = *****
REMARK  3 active torsions:
REMARK  status: ('A' for Active; 'I' for Inactive)
REMARK    1  A    between atoms: C_7  and  O_8
REMARK    2  A    between atoms: O_8  and  C_9
REMARK    3  A    between atoms: C_9  and  C_11
REMARK                            x       y       z     vdW  Elec       q    Type
REMARK                         _______ _______ _______ _____ _____    ______ ____
ROOT
ATOM      1  C   UNL     1       3.547   1.234  -0.705  0.00  0.00    +0.000 C 
ATOM      2  O   UNL     1       3.519   1.567  -1.878  0.00  0.00    +0.000 OA
ENDROOT
BRANCH   1   3
ATOM      3  C   UNL     1       4.718   0.583  -0.066  0.00  0.00    +0.000 A 
ATOM      4  C   UNL     1       4.834   0.435   1.322  0.00  0.00    +0.000 A 
ATOM      5  C   UNL     1       5.877  -0.329   1.856  0.00  0.00    +0.000 A 
ATOM      6  C   UNL     1       6.798  -0.939   1.004  0.00  0.00    +0.000 A 
ATOM      7  C   UNL     1       6.703  -0.776  -0.377  0.00  0.00    +0.000 A 
ATOM      8  C   UNL     1       5.667  -0.010  -0.912  0.00  0.00    +0.000 A 
ATOM      9 CL   UNL     1       8.048  -1.922   1.661  0.00  0.00    +0.000 Cl
ENDBRANCH   1   3
BRANCH   1  10
ATOM     10  O   UNL     1       2.482   1.151   0.133  0.00  0.00    +0.000 OA
BRANCH  10  17
ATOM     11  C   UNL     1      -1.292  -0.668  -0.512  0.00  0.00    +0.000 C 
ATOM     12  C   UNL     1      -1.238   0.867  -0.440  0.00  0.00    +0.000 C 
ATOM     13  C   UNL     1       0.050   1.134   0.362  0.00  0.00    +0.000 C 
ATOM     14  C   UNL     1       0.042  -0.031   1.354  0.00  0.00    +0.000 C 
ATOM     15  C   UNL     1      -0.029  -1.089   0.254  0.00  0.00    +0.000 C 
ATOM     16  C   UNL     1       1.199  -0.747  -0.608  0.00  0.00    +0.000 C 
ATOM     17  C   UNL     1       1.261   0.796  -0.530  0.00  0.00    +0.000 C 
ENDBRANCH  10  17
ENDBRANCH   1  10
TORSDOF 3
