MODEL 1
REMARK VINA RESULT:      -4.8      0.000      0.000
REMARK  Name = *****
REMARK  6 active torsions:
REMARK  status: ('A' for Active; 'I' for Inactive)
REMARK    1  A    between atoms: C_1  and  C_2
REMARK    2  A    between atoms: C_2  and  N_3
REMARK    3  A    between atoms: N_3  and  C_4
REMARK    4  A    between atoms: N_3  and  C_10
REMARK    5  A    between atoms: C_10  and  C_12
REMARK    6  A    between atoms: C_15  and  C_18
REMARK                            x       y       z     vdW  Elec       q    Type
REMARK                         _______ _______ _______ _____ _____    ______ ____
ROOT
ATOM      1  N   UNL     1      88.733  70.022  86.907  0.00  0.00    +0.000 N 
ENDROOT
BRANCH   1   2
ATOM      2  C   UNL     1      88.823  68.593  86.826  0.00  0.00    +0.000 A 
ATOM      3  C   UNL     1      89.981  67.918  86.393  0.00  0.00    +0.000 A 
ATOM      4  C   UNL     1      90.045  66.519  86.325  0.00  0.00    +0.000 A 
ATOM      5  C   UNL     1      88.951  65.747  86.693  0.00  0.00    +0.000 A 
ATOM      6  C   UNL     1      87.795  66.376  87.134  0.00  0.00    +0.000 A 
ATOM      7  C   UNL     1      87.737  67.775  87.199  0.00  0.00    +0.000 A 
ENDBRANCH   1   2
BRANCH   1   9
ATOM      8  C   UNL     1      89.373  71.010  84.687  0.00  0.00    +0.000 C 
ATOM      9  C   UNL     1      89.750  70.788  86.150  0.00  0.00    +0.000 C 
ENDBRANCH   1   9
BRANCH   1  10
ATOM     10  C   UNL     1      88.031  70.639  87.956  0.00  0.00    +0.000 C 
ATOM     11  C   UNL     1      88.495  70.668  89.218  0.00  0.00    +0.000 C 
BRANCH  10  12
ATOM     12  C   UNL     1      86.706  71.248  87.654  0.00  0.00    +0.000 A 
ATOM     13  C   UNL     1      85.849  71.646  88.690  0.00  0.00    +0.000 A 
ATOM     14  C   UNL     1      84.609  72.230  88.413  0.00  0.00    +0.000 A 
ATOM     15  C   UNL     1      84.193  72.424  87.093  0.00  0.00    +0.000 A 
ATOM     16  C   UNL     1      85.050  72.051  86.053  0.00  0.00    +0.000 A 
ATOM     17  C   UNL     1      86.290  71.466  86.331  0.00  0.00    +0.000 A 
ATOM     18  C   UNL     1      82.879  73.083  86.797  0.00  0.00    +0.000 C 
ENDBRANCH  10  12
ENDBRANCH   1  10
TORSDOF 4
ENDMDL
