MODEL 1
REMARK VINA RESULT:      -4.7      0.000      0.000
REMARK  Name = *****
REMARK  1 active torsions:
REMARK  status: ('A' for Active; 'I' for Inactive)
REMARK    1  A    between atoms: C_4  and  C_7
REMARK                            x       y       z     vdW  Elec       q    Type
REMARK                         _______ _______ _______ _____ _____    ______ ____
ROOT
ATOM      1  C   UNL     1     102.747 126.266  81.756  0.00  0.00    +0.000 A 
ATOM      2  C   UNL     1     103.138 124.973  82.045  0.00  0.00    +0.000 A 
ATOM      3  C   UNL     1     104.166 124.476  81.176  0.00  0.00    +0.000 A 
ATOM      4  C   UNL     1     104.817 123.219  81.143  0.00  0.00    +0.000 A 
ATOM      5  C   UNL     1     105.805 122.958  80.189  0.00  0.00    +0.000 A 
ATOM      6  C   UNL     1     106.158 123.930  79.262  0.00  0.00    +0.000 A 
ATOM      7  C   UNL     1     105.532 125.178  79.271  0.00  0.00    +0.000 A 
ATOM      8  C   UNL     1     104.537 125.436  80.235  0.00  0.00    +0.000 A 
ATOM      9  S   UNL     1     103.641 126.890  80.437  0.00  0.00    +0.000 S 
ENDROOT
BRANCH   1  13
ATOM     10  C   UNL     1      99.791 128.667  83.717  0.00  0.00    +0.000 A 
ATOM     11  C   UNL     1      99.417 127.523  83.016  0.00  0.00    +0.000 A 
ATOM     12  C   UNL     1     100.386 126.743  82.381  0.00  0.00    +0.000 A 
ATOM     13  C   UNL     1     101.744 127.094  82.443  0.00  0.00    +0.000 A 
ATOM     14  C   UNL     1     102.104 128.252  83.149  0.00  0.00    +0.000 A 
ATOM     15  C   UNL     1     101.134 129.031  83.784  0.00  0.00    +0.000 A 
ENDBRANCH   1  13
TORSDOF 1
ENDMDL
