REMARK  Name = *****
REMARK  3 active torsions:
REMARK  status: ('A' for Active; 'I' for Inactive)
REMARK    1  A    between atoms: C_3  and  N_4
REMARK    2  A    between atoms: N_4  and  C_5
REMARK    3  A    between atoms: C_12  and  C_14
REMARK                            x       y       z     vdW  Elec       q    Type
REMARK                         _______ _______ _______ _____ _____    ______ ____
ROOT
ATOM      1  N   UNL     1      -1.588  -0.761  -1.405  0.00  0.00    +0.000 N 
ATOM      2  C   UNL     1      -2.975  -0.510  -1.484  0.00  0.00    +0.000 C 
ATOM      3  O   UNL     1      -3.626   0.012  -0.577  0.00  0.00    +0.000 OA
ENDROOT
BRANCH   1   4
ATOM      4  C   UNL     1      -0.738  -1.040  -2.526  0.00  0.00    +0.000 A 
ATOM      5  C   UNL     1      -0.955  -0.450  -3.777  0.00  0.00    +0.000 A 
ATOM      6  C   UNL     1      -0.100  -0.727  -4.841  0.00  0.00    +0.000 A 
ATOM      7  C   UNL     1       0.986  -1.578  -4.691  0.00  0.00    +0.000 A 
ATOM      8  C   UNL     1       1.230  -2.157  -3.450  0.00  0.00    +0.000 A 
ATOM      9  C   UNL     1       0.378  -1.882  -2.375  0.00  0.00    +0.000 A 
ATOM     10  F   UNL     1      -0.323  -0.150  -6.029  0.00  0.00    +0.000 F 
ENDBRANCH   1   4
BRANCH   2  11
ATOM     11  C   UNL     1      -3.756  -0.977  -2.658  0.00  0.00    +0.000 A 
ATOM     12  C   UNL     1      -3.618  -2.280  -3.152  0.00  0.00    +0.000 A 
ATOM     13  C   UNL     1      -4.386  -2.694  -4.242  0.00  0.00    +0.000 A 
ATOM     14  C   UNL     1      -5.304  -1.818  -4.822  0.00  0.00    +0.000 A 
ATOM     15  C   UNL     1      -5.468  -0.530  -4.309  0.00  0.00    +0.000 A 
ATOM     16  C   UNL     1      -4.701  -0.111  -3.221  0.00  0.00    +0.000 A 
ENDBRANCH   2  11
BRANCH   1  19
ATOM     17  C   UNL     1      -1.023   0.526   0.769  0.00  0.00    +0.000 C 
ATOM     18  C   UNL     1       0.282   0.046   0.223  0.00  0.00    +0.000 C 
ATOM     19  C   UNL     1      -0.985  -0.725  -0.079  0.00  0.00    +0.000 C 
ENDBRANCH   1  19
TORSDOF 3
