REMARK  Name = *****
REMARK  3 active torsions:
REMARK  status: ('A' for Active; 'I' for Inactive)
REMARK    1  A    between atoms: N_4  and  C_7
REMARK    2  A    between atoms: C_7  and  S_9
REMARK    3  A    between atoms: S_9  and  C_10
REMARK                            x       y       z     vdW  Elec       q    Type
REMARK                         _______ _______ _______ _____ _____    ______ ____
ROOT
ATOM      1  C   UNL     1       2.609   0.009   0.992  0.00  0.00    +0.000 C 
ATOM      2  S   UNL     1       3.490   1.419   1.283  0.00  0.00    +0.000 S 
ENDROOT
BRANCH   1   6
ATOM      3  C   UNL     1      -1.527  -0.152  -0.261  0.00  0.00    +0.000 C 
ATOM      4  C   UNL     1      -0.903   1.094   0.352  0.00  0.00    +0.000 C 
ATOM      5  C   UNL     1       0.592   1.179   0.052  0.00  0.00    +0.000 C 
ATOM      6  N   UNL     1       1.308  -0.047   0.448  0.00  0.00    +0.000 N 
ATOM      7  C   UNL     1       0.719  -1.279  -0.112  0.00  0.00    +0.000 C 
ATOM      8  C   UNL     1      -0.772  -1.394   0.194  0.00  0.00    +0.000 C 
ENDBRANCH   1   6
BRANCH   1   9
ATOM      9  S   UNL     1       3.387  -1.526   1.392  0.00  0.00    +0.000 S 
BRANCH   9  10
ATOM     10  C   UNL     1       2.698  -1.974   2.981  0.00  0.00    +0.000 A 
ATOM     11  C   UNL     1       1.676  -1.274   3.631  0.00  0.00    +0.000 A 
ATOM     12  C   UNL     1       1.192  -1.706   4.871  0.00  0.00    +0.000 A 
ATOM     13  C   UNL     1       1.724  -2.843   5.474  0.00  0.00    +0.000 A 
ATOM     14  C   UNL     1       2.741  -3.549   4.838  0.00  0.00    +0.000 A 
ATOM     15  C   UNL     1       3.224  -3.117   3.600  0.00  0.00    +0.000 A 
ENDBRANCH   9  10
ENDBRANCH   1   9
TORSDOF 3
