REMARK  Name = *****
REMARK  5 active torsions:
REMARK  status: ('A' for Active; 'I' for Inactive)
REMARK    1  A    between atoms: C_4  and  C_7
REMARK    2  A    between atoms: C_7  and  C_8
REMARK    3  A    between atoms: C_8  and  C_9
REMARK    4  A    between atoms: C_9  and  C_10
REMARK    5  A    between atoms: C_9  and  C_12
REMARK                            x       y       z     vdW  Elec       q    Type
REMARK                         _______ _______ _______ _____ _____    ______ ____
ROOT
ATOM      1  C   UNL     1      -5.339   0.079  -1.825  0.00  0.00    +0.000 C 
ENDROOT
BRANCH   1   2
ATOM      2  C   UNL     1      -5.057  -0.736  -3.096  0.00  0.00    +0.000 C 
BRANCH   2   6
ATOM      3  C   UNL     1      -5.847   1.629  -6.614  0.00  0.00    +0.000 A 
ATOM      4  C   UNL     1      -4.564   1.596  -6.070  0.00  0.00    +0.000 A 
ATOM      5  C   UNL     1      -4.305   0.827  -4.935  0.00  0.00    +0.000 A 
ATOM      6  C   UNL     1      -5.328   0.080  -4.336  0.00  0.00    +0.000 A 
ATOM      7  C   UNL     1      -6.616   0.124  -4.887  0.00  0.00    +0.000 A 
ATOM      8  C   UNL     1      -6.873   0.893  -6.023  0.00  0.00    +0.000 A 
ENDBRANCH   2   6
ENDBRANCH   1   2
BRANCH   1   9
ATOM      9  C   UNL     1      -5.076  -0.668  -0.504  0.00  0.00    +0.000 C 
BRANCH   9  10
ATOM     10  C   UNL     1      -5.970  -1.880  -0.339  0.00  0.00    +0.000 A 
ATOM     11  C   UNL     1      -5.731  -3.208  -0.651  0.00  0.00    +0.000 A 
ATOM     12  C   UNL     1      -6.842  -4.049  -0.352  0.00  0.00    +0.000 A 
ATOM     13  C   UNL     1      -7.896  -3.343   0.180  0.00  0.00    +0.000 A 
ATOM     14  S   UNL     1      -7.547  -1.678   0.320  0.00  0.00    +0.000 S 
ENDBRANCH   9  10
BRANCH   9  15
ATOM     15  C   UNL     1      -3.648  -1.020  -0.360  0.00  0.00    +0.000 C 
ATOM     16  N   UNL     1      -2.522  -1.288  -0.265  0.00  0.00    +0.000 NA
ENDBRANCH   9  15
ENDBRANCH   1   9
TORSDOF 5
