MODEL 1
REMARK VINA RESULT:      -3.3      0.000      0.000
REMARK  Name = *****
REMARK  5 active torsions:
REMARK  status: ('A' for Active; 'I' for Inactive)
REMARK    1  A    between atoms: C_1  and  C_2
REMARK    2  A    between atoms: C_4  and  C_7
REMARK    3  A    between atoms: C_7  and  C_8
REMARK    4  A    between atoms: C_8  and  O_9
REMARK    5  A    between atoms: O_9  and  C_10
REMARK                            x       y       z     vdW  Elec       q    Type
REMARK                         _______ _______ _______ _____ _____    ______ ____
ROOT
ATOM      1  C   UNL     1      88.511  69.714  83.667  0.00  0.00    +0.000 C 
ENDROOT
BRANCH   1   2
ATOM      2  C   UNL     1      89.656  68.701  83.649  0.00  0.00    +0.000 C 
BRANCH   2   6
ATOM      3  C   UNL     1      87.522  67.081  87.517  0.00  0.00    +0.000 C 
ATOM      4  C   UNL     1      88.407  67.097  86.323  0.00  0.00    +0.000 C 
ATOM      5  C   UNL     1      88.053  67.334  85.054  0.00  0.00    +0.000 C 
ATOM      6  C   UNL     1      89.231  67.308  84.125  0.00  0.00    +0.000 C 
ATOM      7  C   UNL     1      90.309  66.645  85.000  0.00  0.00    +0.000 C 
ATOM      8  C   UNL     1      89.880  66.867  86.451  0.00  0.00    +0.000 C 
ENDBRANCH   2   6
ENDBRANCH   1   2
BRANCH   1   9
ATOM      9  O   UNL     1      88.918  70.817  84.479  0.00  0.00    +0.000 OA
BRANCH   9  10
ATOM     10  C   UNL     1      88.585  70.770  85.805  0.00  0.00    +0.000 A 
ATOM     11  C   UNL     1      89.462  70.540  86.866  0.00  0.00    +0.000 A 
ATOM     12  C   UNL     1      88.984  70.519  88.180  0.00  0.00    +0.000 A 
ATOM     13  C   UNL     1      87.630  70.725  88.439  0.00  0.00    +0.000 A 
ATOM     14  C   UNL     1      86.750  70.953  87.384  0.00  0.00    +0.000 A 
ATOM     15  C   UNL     1      87.229  70.974  86.073  0.00  0.00    +0.000 A 
ENDBRANCH   9  10
ENDBRANCH   1   9
TORSDOF 4
ENDMDL
