MODEL 1
REMARK VINA RESULT:      -4.7      0.000      0.000
REMARK  Name = *****
REMARK  4 active torsions:
REMARK  status: ('A' for Active; 'I' for Inactive)
REMARK    1  A    between atoms: C_1  and  C_2
REMARK    2  A    between atoms: C_5  and  N_8
REMARK    3  A    between atoms: C_9  and  C_10
REMARK    4  A    between atoms: C_9  and  C_11
REMARK                            x       y       z     vdW  Elec       q    Type
REMARK                         _______ _______ _______ _____ _____    ______ ____
ROOT
ATOM      1  N   UNL     1     102.466 125.666  82.858  0.00  0.00    +0.000 NA
ATOM      2  C   UNL     1     103.243 125.582  81.816  0.00  0.00    +0.000 C 
ATOM      3  C   UNL     1     103.358 126.662  80.754  0.00  0.00    +0.000 C 
ENDROOT
BRANCH   1   8
ATOM      4  C   UNL     1      99.149 130.234  83.730  0.00  0.00    +0.000 C 
ATOM      5  C   UNL     1     100.029 129.048  83.471  0.00  0.00    +0.000 A 
ATOM      6  C   UNL     1      99.503 127.895  82.875  0.00  0.00    +0.000 A 
ATOM      7  C   UNL     1     100.314 126.776  82.667  0.00  0.00    +0.000 A 
ATOM      8  C   UNL     1     101.657 126.793  83.045  0.00  0.00    +0.000 A 
ATOM      9  C   UNL     1     102.172 127.928  83.672  0.00  0.00    +0.000 A 
ATOM     10  C   UNL     1     101.366 129.050  83.884  0.00  0.00    +0.000 A 
ENDBRANCH   1   8
BRANCH   2  11
ATOM     11  C   UNL     1     104.063 124.342  81.648  0.00  0.00    +0.000 A 
ATOM     12  C   UNL     1     104.607 123.986  80.408  0.00  0.00    +0.000 A 
ATOM     13  C   UNL     1     105.362 122.815  80.284  0.00  0.00    +0.000 A 
ATOM     14  C   UNL     1     105.567 121.999  81.396  0.00  0.00    +0.000 A 
ATOM     15  C   UNL     1     105.019 122.338  82.631  0.00  0.00    +0.000 A 
ATOM     16  C   UNL     1     104.263 123.506  82.756  0.00  0.00    +0.000 A 
ATOM     17 CL   UNL     1     106.496 120.560  81.239  0.00  0.00    +0.000 Cl
ENDBRANCH   2  11
TORSDOF 2
ENDMDL
