MODEL 1
REMARK VINA RESULT:      -4.1      0.000      0.000
REMARK  Name = *****
REMARK  5 active torsions:
REMARK  status: ('A' for Active; 'I' for Inactive)
REMARK    1  A    between atoms: C_1  and  C_2
REMARK    2  A    between atoms: C_2  and  C_9
REMARK    3  A    between atoms: C_9  and  O_11
REMARK    4  A    between atoms: O_11  and  C_12
REMARK    5  A    between atoms: C_12  and  C_13
REMARK                            x       y       z     vdW  Elec       q    Type
REMARK                         _______ _______ _______ _____ _____    ______ ____
ROOT
ATOM      1  C   UNL     1     101.112 126.322  85.060  0.00  0.00    +0.000 C 
ATOM      2  O   UNL     1     100.641 125.241  85.393  0.00  0.00    +0.000 OA
ENDROOT
BRANCH   1   4
ATOM      3  C   UNL     1     100.810 128.655  85.789  0.00  0.00    +0.000 C 
ATOM      4  C   UNL     1     100.288 127.585  84.819  0.00  0.00    +0.000 C 
ATOM      5  C   UNL     1      98.749 127.338  85.025  0.00  0.00    +0.000 C 
ATOM      6  C   UNL     1      98.148 127.690  83.644  0.00  0.00    +0.000 C 
ATOM      7  C   UNL     1      99.029 128.867  83.221  0.00  0.00    +0.000 C 
ATOM      8  C   UNL     1     100.331 128.059  83.333  0.00  0.00    +0.000 C 
ATOM      9  C   UNL     1      99.933 126.903  82.434  0.00  0.00    +0.000 C 
ATOM     10  C   UNL     1      98.628 126.670  82.642  0.00  0.00    +0.000 C 
ENDBRANCH   1   4
BRANCH   1  11
ATOM     11  O   UNL     1     102.443 126.589  84.945  0.00  0.00    +0.000 OA
BRANCH  11  12
ATOM     12  C   UNL     1     103.225 125.621  84.238  0.00  0.00    +0.000 C 
BRANCH  12  13
ATOM     13  C   UNL     1     103.405 126.083  82.816  0.00  0.00    +0.000 A 
ATOM     14  C   UNL     1     103.691 127.426  82.530  0.00  0.00    +0.000 A 
ATOM     15  C   UNL     1     103.852 127.850  81.211  0.00  0.00    +0.000 A 
ATOM     16  C   UNL     1     103.719 126.939  80.164  0.00  0.00    +0.000 A 
ATOM     17  C   UNL     1     103.419 125.606  80.435  0.00  0.00    +0.000 A 
ATOM     18  C   UNL     1     103.258 125.180  81.755  0.00  0.00    +0.000 A 
ENDBRANCH  12  13
ENDBRANCH  11  12
ENDBRANCH   1  11
TORSDOF 4
ENDMDL
