MODEL 1
REMARK VINA RESULT:      -4.0      0.000      0.000
REMARK  Name = *****
REMARK  3 active torsions:
REMARK  status: ('A' for Active; 'I' for Inactive)
REMARK    1  A    between atoms: C_5  and  C_7
REMARK    2  A    between atoms: C_7  and  C_8
REMARK    3  A    between atoms: C_8  and  C_10
REMARK                            x       y       z     vdW  Elec       q    Type
REMARK                         _______ _______ _______ _____ _____    ______ ____
ROOT
ATOM      1  C   UNL     1     102.816 125.395  82.556  0.00  0.00    +0.000 C 
ATOM      2  O   UNL     1     103.162 124.632  83.456  0.00  0.00    +0.000 OA
ENDROOT
BRANCH   1   3
ATOM      3  C   UNL     1     101.979 126.587  82.903  0.00  0.00    +0.000 A 
ATOM      4  C   UNL     1     102.500 127.701  83.574  0.00  0.00    +0.000 A 
ATOM      5  C   UNL     1     101.681 128.803  83.850  0.00  0.00    +0.000 A 
ATOM      6  C   UNL     1     100.343 128.791  83.461  0.00  0.00    +0.000 A 
ATOM      7  C   UNL     1      99.812 127.687  82.799  0.00  0.00    +0.000 A 
ATOM      8  C   UNL     1     100.629 126.587  82.520  0.00  0.00    +0.000 A 
ATOM      9 CL   UNL     1      99.345 130.151  83.794  0.00  0.00    +0.000 Cl
ENDBRANCH   1   3
BRANCH   1  10
ATOM     10  C   UNL     1     103.187 125.169  81.099  0.00  0.00    +0.000 C 
BRANCH  10  15
ATOM     11  C   UNL     1     106.331 127.451  81.336  0.00  0.00    +0.000 C 
ATOM     12  C   UNL     1     105.553 128.757  81.183  0.00  0.00    +0.000 C 
ATOM     13  C   UNL     1     104.294 128.587  80.386  0.00  0.00    +0.000 C 
ATOM     14  C   UNL     1     103.757 127.390  80.105  0.00  0.00    +0.000 C 
ATOM     15  C   UNL     1     104.329 126.075  80.597  0.00  0.00    +0.000 C 
ATOM     16  C   UNL     1     105.399 126.294  81.689  0.00  0.00    +0.000 C 
ENDBRANCH  10  15
ENDBRANCH   1  10
TORSDOF 3
ENDMDL
