MODEL 1
REMARK VINA RESULT:      -4.6      0.000      0.000
REMARK  Name = *****
REMARK  4 active torsions:
REMARK  status: ('A' for Active; 'I' for Inactive)
REMARK    1  A    between atoms: C_4  and  C_7
REMARK    2  A    between atoms: C_8  and  C_9
REMARK    3  A    between atoms: C_9  and  C_10
REMARK    4  A    between atoms: C_13  and  C_16
REMARK                            x       y       z     vdW  Elec       q    Type
REMARK                         _______ _______ _______ _____ _____    ______ ____
ROOT
ATOM      1  C   UNL     1      88.932  70.107  86.668  0.00  0.00    +0.000 C 
ENDROOT
BRANCH   1   2
ATOM      2  C   UNL     1      88.946  68.598  86.766  0.00  0.00    +0.000 A 
ATOM      3  C   UNL     1      90.005  67.858  86.220  0.00  0.00    +0.000 A 
ATOM      4  C   UNL     1      90.008  66.464  86.300  0.00  0.00    +0.000 A 
ATOM      5  C   UNL     1      88.948  65.802  86.923  0.00  0.00    +0.000 A 
ATOM      6  C   UNL     1      87.884  66.525  87.466  0.00  0.00    +0.000 A 
ATOM      7  C   UNL     1      87.885  67.919  87.385  0.00  0.00    +0.000 A 
BRANCH   5   8
ATOM      8  C   UNL     1      88.941  64.328  87.012  0.00  0.00    +0.000 C 
ATOM      9  O   UNL     1      88.266  63.726  87.837  0.00  0.00    +0.000 OA
ENDBRANCH   5   8
ENDBRANCH   1   2
BRANCH   1  11
ATOM     10  C   UNL     1      86.739  71.282  86.325  0.00  0.00    +0.000 C 
ATOM     11  C   UNL     1      87.631  70.693  87.138  0.00  0.00    +0.000 C 
BRANCH  10  15
ATOM     12  C   UNL     1      83.038  73.030  87.564  0.00  0.00    +0.000 A 
ATOM     13  C   UNL     1      83.928  72.553  88.525  0.00  0.00    +0.000 A 
ATOM     14  C   UNL     1      85.137  71.971  88.133  0.00  0.00    +0.000 A 
ATOM     15  C   UNL     1      85.464  71.853  86.775  0.00  0.00    +0.000 A 
ATOM     16  C   UNL     1      84.569  72.353  85.820  0.00  0.00    +0.000 A 
ATOM     17  C   UNL     1      83.359  72.932  86.212  0.00  0.00    +0.000 A 
ENDBRANCH  10  15
ENDBRANCH   1  11
TORSDOF 4
ENDMDL
