MODEL 1
REMARK VINA RESULT:      -5.0      0.000      0.000
REMARK  Name = *****
REMARK  0 active torsions:
REMARK  status: ('A' for Active; 'I' for Inactive)
REMARK                            x       y       z     vdW  Elec       q    Type
REMARK                         _______ _______ _______ _____ _____    ______ ____
ROOT
ATOM      1  C   UNL     1      89.594  68.239  86.069  0.00  0.00    +0.000 C 
ATOM      2  C   UNL     1      90.291  66.911  86.358  0.00  0.00    +0.000 C 
ATOM      3  C   UNL     1      89.301  65.745  86.395  0.00  0.00    +0.000 C 
ATOM      4  C   UNL     1      88.169  66.014  87.367  0.00  0.00    +0.000 C 
ATOM      5  C   UNL     1      87.839  65.183  88.380  0.00  0.00    +0.000 C 
ATOM      6  C   UNL     1      86.716  65.400  89.363  0.00  0.00    +0.000 C 
ATOM      7  C   UNL     1      86.333  64.017  89.884  0.00  0.00    +0.000 C 
ATOM      8  C   UNL     1      85.078  63.394  89.212  0.00  0.00    +0.000 C 
ATOM      9  C   UNL     1      85.632  62.841  87.896  0.00  0.00    +0.000 C 
ATOM     10  C   UNL     1      86.701  61.993  88.594  0.00  0.00    +0.000 C 
ATOM     11  C   UNL     1      87.467  63.038  89.451  0.00  0.00    +0.000 C 
ATOM     12  C   UNL     1      88.498  63.863  88.684  0.00  0.00    +0.000 C 
ATOM     13  C   UNL     1      85.791  61.232  89.537  0.00  0.00    +0.000 C 
ATOM     14  C   UNL     1      84.814  62.074  89.908  0.00  0.00    +0.000 C 
ATOM     15  C   UNL     1      87.467  67.330  87.095  0.00  0.00    +0.000 C 
ATOM     16  C   UNL     1      88.459  68.493  87.057  0.00  0.00    +0.000 C 
ENDROOT
TORSDOF 0
ENDMDL
