MODEL 1
REMARK VINA RESULT:      -4.5      0.000      0.000
REMARK  Name = *****
REMARK  2 active torsions:
REMARK  status: ('A' for Active; 'I' for Inactive)
REMARK    1  A    between atoms: C_7  and  C_8
REMARK    2  A    between atoms: C_9  and  C_10
REMARK                            x       y       z     vdW  Elec       q    Type
REMARK                         _______ _______ _______ _____ _____    ______ ____
ROOT
ATOM      1  C   UNL     1     103.061 125.562  81.169  0.00  0.00    +0.000 C 
ATOM      2  C   UNL     1     102.289 126.266  81.761  0.00  0.00    +0.000 C 
ENDROOT
BRANCH   1   9
ATOM      3  C   UNL     1     106.502 123.227  80.015  0.00  0.00    +0.000 C 
ATOM      4  C   UNL     1     105.205 122.502  80.404  0.00  0.00    +0.000 C 
ATOM      5  C   UNL     1     104.500 123.522  81.317  0.00  0.00    +0.000 C 
ATOM      6  C   UNL     1     105.693 124.129  82.063  0.00  0.00    +0.000 C 
ATOM      7  C   UNL     1     106.396 124.559  80.778  0.00  0.00    +0.000 C 
ATOM      8  C   UNL     1     105.322 125.438  80.109  0.00  0.00    +0.000 C 
ATOM      9  C   UNL     1     104.008 124.700  80.443  0.00  0.00    +0.000 C 
ENDBRANCH   1   9
BRANCH   2  10
ATOM     10  C   UNL     1     101.370 127.105  82.467  0.00  0.00    +0.000 A 
ATOM     11  C   UNL     1     101.839 128.209  83.182  0.00  0.00    +0.000 A 
ATOM     12  C   UNL     1     100.943 129.027  83.873  0.00  0.00    +0.000 A 
ATOM     13  C   UNL     1      99.578 128.742  83.848  0.00  0.00    +0.000 A 
ATOM     14  C   UNL     1      99.107 127.641  83.133  0.00  0.00    +0.000 A 
ATOM     15  C   UNL     1     100.003 126.822  82.442  0.00  0.00    +0.000 A 
ENDBRANCH   2  10
TORSDOF 2
ENDMDL
