MODEL 1
REMARK VINA RESULT:      -4.3      0.000      0.000
REMARK  Name = *****
REMARK  4 active torsions:
REMARK  status: ('A' for Active; 'I' for Inactive)
REMARK    1  A    between atoms: C_1  and  C_2
REMARK    2  A    between atoms: C_7  and  O_8
REMARK    3  A    between atoms: O_8  and  C_9
REMARK    4  A    between atoms: C_9  and  C_11
REMARK                            x       y       z     vdW  Elec       q    Type
REMARK                         _______ _______ _______ _____ _____    ______ ____
ROOT
ATOM      1  O   UNL     1     100.403 127.424  82.198  0.00  0.00    +0.000 OA
ENDROOT
BRANCH   1   8
ATOM      2  C   UNL     1     103.248 124.962  82.262  0.00  0.00    +0.000 C 
ATOM      3  C   UNL     1     102.354 126.096  81.754  0.00  0.00    +0.000 C 
ATOM      4  C   UNL     1     103.187 127.250  81.168  0.00  0.00    +0.000 C 
ATOM      5  C   UNL     1     103.897 128.077  82.237  0.00  0.00    +0.000 C 
ATOM      6  C   UNL     1     102.928 128.576  83.304  0.00  0.00    +0.000 C 
ATOM      7  C   UNL     1     102.120 127.432  83.917  0.00  0.00    +0.000 C 
ATOM      8  C   UNL     1     101.394 126.600  82.852  0.00  0.00    +0.000 C 
ENDBRANCH   1   8
BRANCH   1   9
ATOM      9  C   UNL     1      99.144 127.368  82.699  0.00  0.00    +0.000 C 
ATOM     10  O   UNL     1      98.290 126.548  82.403  0.00  0.00    +0.000 OA
BRANCH   9  11
ATOM     11  C   UNL     1      98.931 128.458  83.690  0.00  0.00    +0.000 A 
ATOM     12  C   UNL     1      99.393 129.742  83.371  0.00  0.00    +0.000 A 
ATOM     13  C   UNL     1      99.215 130.798  84.267  0.00  0.00    +0.000 A 
ATOM     14  C   UNL     1      98.573 130.578  85.484  0.00  0.00    +0.000 A 
ATOM     15  C   UNL     1      98.110 129.304  85.810  0.00  0.00    +0.000 A 
ATOM     16  C   UNL     1      98.286 128.245  84.916  0.00  0.00    +0.000 A 
ENDBRANCH   9  11
ENDBRANCH   1   9
TORSDOF 3
ENDMDL
