REMARK  Name = *****
REMARK  5 active torsions:
REMARK  status: ('A' for Active; 'I' for Inactive)
REMARK    1  A    between atoms: C_1  and  O_2
REMARK    2  A    between atoms: O_2  and  C_3
REMARK    3  A    between atoms: C_3  and  C_9
REMARK    4  A    between atoms: C_10  and  S_11
REMARK    5  A    between atoms: S_11  and  C_12
REMARK                            x       y       z     vdW  Elec       q    Type
REMARK                         _______ _______ _______ _____ _____    ______ ____
ROOT
ATOM      1  C   UNL     1       2.105   0.603   2.494  0.00  0.00    +0.000 C 
ATOM      2  C   UNL     1       1.624   0.394   3.575  0.00  0.00    +0.000 C 
ENDROOT
BRANCH   1   3
ATOM      3  C   UNL     1       2.675   0.851   1.155  0.00  0.00    +0.000 C 
ATOM      4  C   UNL     1       2.546   2.343   0.781  0.00  0.00    +0.000 C 
ATOM      5  C   UNL     1       3.239   2.671  -0.542  0.00  0.00    +0.000 C 
ATOM      6  C   UNL     1       4.708   2.262  -0.519  0.00  0.00    +0.000 C 
ATOM      7  C   UNL     1       4.879   0.795  -0.138  0.00  0.00    +0.000 C 
ATOM      8  C   UNL     1       4.172   0.466   1.179  0.00  0.00    +0.000 C 
BRANCH   3  10
ATOM      9  C   UNL     1       0.675   0.174  -0.054  0.00  0.00    +0.000 C 
ATOM     10  O   UNL     1       2.063  -0.017   0.183  0.00  0.00    +0.000 OA
ENDBRANCH   3  10
ENDBRANCH   1   3
BRANCH   2  11
ATOM     11  S   UNL     1       0.927   0.087   5.084  0.00  0.00    +0.000 S 
BRANCH  11  12
ATOM     12  C   UNL     1      -0.703  -0.333   4.489  0.00  0.00    +0.000 A 
ATOM     13  C   UNL     1      -0.928  -1.522   3.785  0.00  0.00    +0.000 A 
ATOM     14  C   UNL     1      -2.210  -1.841   3.332  0.00  0.00    +0.000 A 
ATOM     15  C   UNL     1      -3.275  -0.979   3.588  0.00  0.00    +0.000 A 
ATOM     16  C   UNL     1      -3.060   0.202   4.298  0.00  0.00    +0.000 A 
ATOM     17  C   UNL     1      -1.778   0.523   4.749  0.00  0.00    +0.000 A 
ENDBRANCH  11  12
ENDBRANCH   2  11
TORSDOF 4
