MODEL 1
REMARK VINA RESULT:      -4.5      0.000      0.000
REMARK  Name = *****
REMARK  4 active torsions:
REMARK  status: ('A' for Active; 'I' for Inactive)
REMARK    1  A    between atoms: C_1  and  O_2
REMARK    2  A    between atoms: O_2  and  C_3
REMARK    3  A    between atoms: C_6  and  C_9
REMARK    4  A    between atoms: C_10  and  C_11
REMARK                            x       y       z     vdW  Elec       q    Type
REMARK                         _______ _______ _______ _____ _____    ______ ____
ROOT
ATOM      1  C   UNL     1     103.177 125.129  82.101  0.00  0.00    +0.000 C 
ATOM      2  C   UNL     1     102.378 125.975  82.405  0.00  0.00    +0.000 C 
ENDROOT
BRANCH   2   3
ATOM      3  C   UNL     1     101.428 126.980  82.769  0.00  0.00    +0.000 A 
ATOM      4  C   UNL     1     100.071 126.793  82.485  0.00  0.00    +0.000 A 
ATOM      5  C   UNL     1      99.144 127.776  82.842  0.00  0.00    +0.000 A 
ATOM      6  C   UNL     1      99.581 128.932  83.479  0.00  0.00    +0.000 A 
ATOM      7  C   UNL     1     100.928 129.127  83.766  0.00  0.00    +0.000 A 
ATOM      8  C   UNL     1     101.857 128.147  83.409  0.00  0.00    +0.000 A 
ATOM      9  F   UNL     1      98.692 129.873  83.820  0.00  0.00    +0.000 F 
ENDBRANCH   2   3
BRANCH   1  13
ATOM     10  C   UNL     1     105.996 122.156  81.032  0.00  0.00    +0.000 A 
ATOM     11  C   UNL     1     105.552 123.078  80.082  0.00  0.00    +0.000 A 
ATOM     12  C   UNL     1     104.620 124.060  80.437  0.00  0.00    +0.000 A 
ATOM     13  C   UNL     1     104.126 124.123  81.742  0.00  0.00    +0.000 A 
ATOM     14  C   UNL     1     104.566 123.203  82.692  0.00  0.00    +0.000 A 
ATOM     15  C   UNL     1     105.497 122.224  82.335  0.00  0.00    +0.000 A 
BRANCH  10  17
ATOM     16  C   UNL     1     106.780 119.993  81.632  0.00  0.00    +0.000 C 
ATOM     17  O   UNL     1     106.901 121.153  80.818  0.00  0.00    +0.000 OA
ENDBRANCH  10  17
ENDBRANCH   1  13
TORSDOF 3
ENDMDL
