MODEL 1
REMARK VINA RESULT:      -4.7      0.000      0.000
REMARK  Name = *****
REMARK  6 active torsions:
REMARK  status: ('A' for Active; 'I' for Inactive)
REMARK    1  A    between atoms: C_1  and  C_2
REMARK    2  A    between atoms: C_5  and  C_8
REMARK    3  A    between atoms: C_8  and  O_10
REMARK    4  A    between atoms: O_10  and  C_11
REMARK    5  A    between atoms: C_12  and  C_18
REMARK    6  A    between atoms: C_15  and  C_17
REMARK                            x       y       z     vdW  Elec       q    Type
REMARK                         _______ _______ _______ _____ _____    ______ ____
ROOT
ATOM      1  C   UNL     1      87.295  63.666  87.770  0.00  0.00    +0.000 C 
ATOM      2  O   UNL     1      87.378  62.562  87.252  0.00  0.00    +0.000 OA
ENDROOT
BRANCH   1   7
ATOM      3  C   UNL     1      88.221  64.679  93.410  0.00  0.00    +0.000 C 
ATOM      4  C   UNL     1      87.990  64.387  91.956  0.00  0.00    +0.000 A 
ATOM      5  C   UNL     1      89.050  63.974  91.140  0.00  0.00    +0.000 A 
ATOM      6  C   UNL     1      88.847  63.731  89.778  0.00  0.00    +0.000 A 
ATOM      7  C   UNL     1      87.577  63.909  89.213  0.00  0.00    +0.000 A 
ATOM      8  C   UNL     1      86.519  64.335  90.027  0.00  0.00    +0.000 A 
ATOM      9  C   UNL     1      86.727  64.578  91.387  0.00  0.00    +0.000 A 
ENDBRANCH   1   7
BRANCH   1  10
ATOM     10  O   UNL     1      86.942  64.855  87.160  0.00  0.00    +0.000 OA
BRANCH  10  11
ATOM     11  C   UNL     1      88.025  65.700  86.885  0.00  0.00    +0.000 A 
ATOM     12  C   UNL     1      87.922  67.061  87.197  0.00  0.00    +0.000 A 
ATOM     13  C   UNL     1      89.000  67.893  86.877  0.00  0.00    +0.000 A 
ATOM     14  C   UNL     1      90.133  67.379  86.237  0.00  0.00    +0.000 A 
ATOM     15  C   UNL     1      90.207  66.022  85.892  0.00  0.00    +0.000 A 
ATOM     16  C   UNL     1      89.142  65.179  86.226  0.00  0.00    +0.000 A 
ATOM     17  C   UNL     1      91.437  65.470  85.237  0.00  0.00    +0.000 C 
ATOM     18  C   UNL     1      86.712  67.611  87.889  0.00  0.00    +0.000 C 
ENDBRANCH  10  11
ENDBRANCH   1  10
TORSDOF 3
ENDMDL
