MODEL 1
REMARK VINA RESULT:      -3.4      0.000      0.000
REMARK  Name = *****
REMARK  5 active torsions:
REMARK  status: ('A' for Active; 'I' for Inactive)
REMARK    1  A    between atoms: C_4  and  C_7
REMARK    2  A    between atoms: C_7  and  C_8
REMARK    3  A    between atoms: C_8  and  C_9
REMARK    4  A    between atoms: C_9  and  S_10
REMARK    5  A    between atoms: S_10  and  C_11
REMARK                            x       y       z     vdW  Elec       q    Type
REMARK                         _______ _______ _______ _____ _____    ______ ____
ROOT
ATOM      1  C   UNL     1      86.964  63.299  86.324  0.00  0.00    +0.000 C 
ENDROOT
BRANCH   1   2
ATOM      2  C   UNL     1      85.456  63.148  86.543  0.00  0.00    +0.000 C 
BRANCH   2   6
ATOM      3  C   UNL     1      84.563  61.652  90.488  0.00  0.00    +0.000 A 
ATOM      4  C   UNL     1      85.738  61.268  89.846  0.00  0.00    +0.000 A 
ATOM      5  C   UNL     1      86.029  61.756  88.570  0.00  0.00    +0.000 A 
ATOM      6  C   UNL     1      85.148  62.637  87.930  0.00  0.00    +0.000 A 
ATOM      7  C   UNL     1      83.966  63.013  88.582  0.00  0.00    +0.000 A 
ATOM      8  C   UNL     1      83.677  62.523  89.857  0.00  0.00    +0.000 A 
ENDBRANCH   2   6
ENDBRANCH   1   2
BRANCH   1   9
ATOM      9  C   UNL     1      87.385  64.725  85.965  0.00  0.00    +0.000 C 
BRANCH   9  10
ATOM     10  S   UNL     1      88.718  65.338  87.053  0.00  0.00    +0.000 S 
BRANCH  10  11
ATOM     11  C   UNL     1      87.977  65.046  88.649  0.00  0.00    +0.000 A 
ATOM     12  C   UNL     1      88.598  64.157  89.533  0.00  0.00    +0.000 A 
ATOM     13  C   UNL     1      88.048  63.913  90.793  0.00  0.00    +0.000 A 
ATOM     14  C   UNL     1      86.878  64.564  91.181  0.00  0.00    +0.000 A 
ATOM     15  C   UNL     1      86.262  65.463  90.313  0.00  0.00    +0.000 A 
ATOM     16  C   UNL     1      86.812  65.707  89.052  0.00  0.00    +0.000 A 
ENDBRANCH  10  11
ENDBRANCH   9  10
ENDBRANCH   1   9
TORSDOF 5
ENDMDL
