MODEL 1
REMARK VINA RESULT:      -4.3      0.000      0.000
REMARK  Name = *****
REMARK  5 active torsions:
REMARK  status: ('A' for Active; 'I' for Inactive)
REMARK    1  A    between atoms: C_1  and  O_2
REMARK    2  A    between atoms: O_2  and  C_3
REMARK    3  A    between atoms: C_3  and  C_13
REMARK    4  A    between atoms: N_4  and  C_5
REMARK    5  A    between atoms: C_5  and  C_11
REMARK                            x       y       z     vdW  Elec       q    Type
REMARK                         _______ _______ _______ _____ _____    ______ ____
ROOT
ATOM      1  C   UNL     1     102.997 126.317  82.282  0.00  0.00    +0.000 C 
ATOM      2  N   UNL     1     103.152 125.078  82.584  0.00  0.00    +0.000 NA
ENDROOT
BRANCH   2   3
ATOM      3  C   UNL     1     104.362 124.325  82.183  0.00  0.00    +0.000 C 
ATOM      4  C   UNL     1     104.272 122.979  82.944  0.00  0.00    +0.000 C 
ATOM      5  C   UNL     1     105.316 121.954  82.499  0.00  0.00    +0.000 C 
ATOM      6  C   UNL     1     105.263 121.724  80.994  0.00  0.00    +0.000 C 
ATOM      7  C   UNL     1     105.401 123.032  80.224  0.00  0.00    +0.000 C 
ATOM      8  C   UNL     1     104.361 124.065  80.664  0.00  0.00    +0.000 C 
BRANCH   3   9
ATOM      9  C   UNL     1     105.580 125.054  82.628  0.00  0.00    +0.000 C 
ATOM     10  N   UNL     1     106.535 125.618  82.977  0.00  0.00    +0.000 NA
ENDBRANCH   3   9
ENDBRANCH   2   3
BRANCH   1  11
ATOM     11  C   UNL     1     101.774 127.064  82.666  0.00  0.00    +0.000 A 
ATOM     12  C   UNL     1     100.523 126.545  82.317  0.00  0.00    +0.000 A 
ATOM     13  C   UNL     1      99.361 127.237  82.659  0.00  0.00    +0.000 A 
ATOM     14  C   UNL     1      99.447 128.454  83.338  0.00  0.00    +0.000 A 
ATOM     15  C   UNL     1     100.694 128.982  83.673  0.00  0.00    +0.000 A 
ATOM     16  C   UNL     1     101.859 128.292  83.332  0.00  0.00    +0.000 A 
ENDBRANCH   1  11
BRANCH   1  18
ATOM     17  C   UNL     1     103.498 127.428  80.240  0.00  0.00    +0.000 C 
ATOM     18  O   UNL     1     103.897 127.022  81.561  0.00  0.00    +0.000 OA
ENDBRANCH   1  18
TORSDOF 4
ENDMDL
