MODEL 1
REMARK VINA RESULT:      -4.8      0.000      0.000
REMARK  Name = *****
REMARK  4 active torsions:
REMARK  status: ('A' for Active; 'I' for Inactive)
REMARK    1  A    between atoms: C_1  and  C_11
REMARK    2  A    between atoms: C_2  and  C_3
REMARK    3  A    between atoms: C_6  and  O_9
REMARK    4  A    between atoms: O_9  and  C_10
REMARK                            x       y       z     vdW  Elec       q    Type
REMARK                         _______ _______ _______ _____ _____    ______ ____
ROOT
ATOM      1  C   UNL     1     101.946 125.930  82.341  0.00  0.00    +0.000 C 
ATOM      2  C   UNL     1     102.830 126.026  81.333  0.00  0.00    +0.000 C 
ENDROOT
BRANCH   2   3
ATOM      3  C   UNL     1     103.838 125.001  81.029  0.00  0.00    +0.000 A 
ATOM      4  C   UNL     1     104.644 125.056  79.886  0.00  0.00    +0.000 A 
ATOM      5  C   UNL     1     105.618 124.078  79.644  0.00  0.00    +0.000 A 
ATOM      6  C   UNL     1     105.804 123.035  80.550  0.00  0.00    +0.000 A 
ATOM      7  C   UNL     1     105.016 122.986  81.700  0.00  0.00    +0.000 A 
ATOM      8  C   UNL     1     104.045 123.962  81.944  0.00  0.00    +0.000 A 
BRANCH   6   9
ATOM      9  O   UNL     1     106.714 122.021  80.436  0.00  0.00    +0.000 OA
ATOM     10  C   UNL     1     106.622 120.966  81.386  0.00  0.00    +0.000 C 
ENDBRANCH   6   9
ENDBRANCH   2   3
BRANCH   1  11
ATOM     11  C   UNL     1     100.950 126.964  82.658  0.00  0.00    +0.000 A 
ATOM     12  C   UNL     1      99.586 126.799  82.382  0.00  0.00    +0.000 A 
ATOM     13  C   UNL     1      98.665 127.791  82.729  0.00  0.00    +0.000 A 
ATOM     14  C   UNL     1      99.097 128.954  83.364  0.00  0.00    +0.000 A 
ATOM     15  C   UNL     1     100.448 129.122  83.658  0.00  0.00    +0.000 A 
ATOM     16  C   UNL     1     101.369 128.130  83.312  0.00  0.00    +0.000 A 
ENDBRANCH   1  11
TORSDOF 3
ENDMDL
