MODEL 1
REMARK VINA RESULT:      -4.3      0.000      0.000
REMARK  Name = *****
REMARK  3 active torsions:
REMARK  status: ('A' for Active; 'I' for Inactive)
REMARK    1  A    between atoms: C_5  and  C_7
REMARK    2  A    between atoms: C_7  and  C_8
REMARK    3  A    between atoms: C_8  and  C_10
REMARK                            x       y       z     vdW  Elec       q    Type
REMARK                         _______ _______ _______ _____ _____    ______ ____
ROOT
ATOM      1  C   UNL     1     102.042 125.886  82.871  0.00  0.00    +0.000 C 
ATOM      2  O   UNL     1     102.337 125.259  83.886  0.00  0.00    +0.000 OA
ENDROOT
BRANCH   1   3
ATOM      3  C   UNL     1     101.018 126.947  82.969  0.00  0.00    +0.000 A 
ATOM      4  C   UNL     1      99.746 126.649  82.458  0.00  0.00    +0.000 A 
ATOM      5  C   UNL     1      98.725 127.597  82.528  0.00  0.00    +0.000 A 
ATOM      6  C   UNL     1      98.974 128.845  83.098  0.00  0.00    +0.000 A 
ATOM      7  C   UNL     1     100.246 129.150  83.589  0.00  0.00    +0.000 A 
ATOM      8  C   UNL     1     101.274 128.205  83.522  0.00  0.00    +0.000 A 
ATOM      9 CL   UNL     1     102.836 128.677  84.085  0.00  0.00    +0.000 Cl
ENDBRANCH   1   3
BRANCH   1  10
ATOM     10  C   UNL     1     102.731 125.682  81.536  0.00  0.00    +0.000 C 
BRANCH  10  15
ATOM     11  C   UNL     1     104.687 128.684  80.226  0.00  0.00    +0.000 A 
ATOM     12  C   UNL     1     105.911 128.520  80.876  0.00  0.00    +0.000 A 
ATOM     13  C   UNL     1     106.101 127.439  81.735  0.00  0.00    +0.000 A 
ATOM     14  C   UNL     1     105.064 126.534  81.940  0.00  0.00    +0.000 A 
ATOM     15  C   UNL     1     103.827 126.690  81.308  0.00  0.00    +0.000 A 
ATOM     16  C   UNL     1     103.649 127.772  80.437  0.00  0.00    +0.000 A 
ATOM     17  F   UNL     1     105.264 125.492  82.761  0.00  0.00    +0.000 F 
ENDBRANCH  10  15
ENDBRANCH   1  10
TORSDOF 3
ENDMDL
