MODEL 1
REMARK VINA RESULT:      -4.2      0.000      0.000
REMARK  Name = *****
REMARK  3 active torsions:
REMARK  status: ('A' for Active; 'I' for Inactive)
REMARK    1  A    between atoms: C_1  and  C_2
REMARK    2  A    between atoms: N_6  and  C_7
REMARK    3  A    between atoms: C_7  and  C_8
REMARK                            x       y       z     vdW  Elec       q    Type
REMARK                         _______ _______ _______ _____ _____    ______ ____
ROOT
ATOM      1  C   UNL     1      88.277  64.987  88.225  0.00  0.00    +0.000 C 
ATOM      2  C   UNL     1      88.477  63.691  89.014  0.00  0.00    +0.000 C 
ATOM      3  C   UNL     1      87.359  62.672  88.735  0.00  0.00    +0.000 C 
ATOM      4  C   UNL     1      86.021  63.053  89.364  0.00  0.00    +0.000 C 
ATOM      5  C   UNL     1      86.221  63.334  90.840  0.00  0.00    +0.000 C 
ATOM      6  N   UNL     1      85.560  62.815  91.815  0.00  0.00    +0.000 NA
ATOM      7  C   UNL     1      87.288  64.357  91.175  0.00  0.00    +0.000 C 
ATOM      8  C   UNL     1      88.606  63.952  90.524  0.00  0.00    +0.000 C 
ENDROOT
BRANCH   6   9
ATOM      9  C   UNL     1      84.514  61.834  91.541  0.00  0.00    +0.000 C 
BRANCH   9  10
ATOM     10  C   UNL     1      84.997  60.422  91.786  0.00  0.00    +0.000 A 
ATOM     11  C   UNL     1      84.959  59.875  93.077  0.00  0.00    +0.000 A 
ATOM     12  C   UNL     1      85.379  58.563  93.306  0.00  0.00    +0.000 A 
ATOM     13  C   UNL     1      85.838  57.784  92.246  0.00  0.00    +0.000 A 
ATOM     14  C   UNL     1      85.879  58.315  90.957  0.00  0.00    +0.000 A 
ATOM     15  C   UNL     1      85.458  59.627  90.728  0.00  0.00    +0.000 A 
ENDBRANCH   9  10
ENDBRANCH   6   9
TORSDOF 2
ENDMDL
