MODEL 1
REMARK VINA RESULT:      -4.8      0.000      0.000
REMARK  Name = *****
REMARK  4 active torsions:
REMARK  status: ('A' for Active; 'I' for Inactive)
REMARK    1  A    between atoms: C_1  and  O_2
REMARK    2  A    between atoms: O_2  and  C_3
REMARK    3  A    between atoms: C_8  and  C_9
REMARK    4  A    between atoms: C_10  and  C_11
REMARK                            x       y       z     vdW  Elec       q    Type
REMARK                         _______ _______ _______ _____ _____    ______ ____
ROOT
ATOM      1  C   UNL     1     102.044 125.957  82.248  0.00  0.00    +0.000 C 
ATOM      2  C   UNL     1     102.920 126.142  81.247  0.00  0.00    +0.000 C 
ATOM      3  F   UNL     1     102.936 127.323  80.583  0.00  0.00    +0.000 F 
ENDROOT
BRANCH   1   9
ATOM      4  C   UNL     1     101.426 128.061  83.461  0.00  0.00    +0.000 A 
ATOM      5  C   UNL     1     100.463 129.004  83.845  0.00  0.00    +0.000 A 
ATOM      6  C   UNL     1      99.127 128.848  83.468  0.00  0.00    +0.000 A 
ATOM      7  C   UNL     1      98.741 127.754  82.700  0.00  0.00    +0.000 A 
ATOM      8  C   UNL     1      99.691 126.810  82.311  0.00  0.00    +0.000 A 
ATOM      9  C   UNL     1     101.036 126.940  82.696  0.00  0.00    +0.000 A 
BRANCH   4  11
ATOM     10  C   UNL     1     103.356 129.436  83.781  0.00  0.00    +0.000 C 
ATOM     11  O   UNL     1     102.759 128.146  83.783  0.00  0.00    +0.000 OA
ENDBRANCH   4  11
ENDBRANCH   1   9
BRANCH   2  12
ATOM     12  C   UNL     1     103.915 125.144  80.814  0.00  0.00    +0.000 A 
ATOM     13  C   UNL     1     104.762 125.340  79.713  0.00  0.00    +0.000 A 
ATOM     14  C   UNL     1     105.702 124.369  79.352  0.00  0.00    +0.000 A 
ATOM     15  C   UNL     1     105.811 123.193  80.091  0.00  0.00    +0.000 A 
ATOM     16  C   UNL     1     104.987 122.989  81.194  0.00  0.00    +0.000 A 
ATOM     17  C   UNL     1     104.050 123.960  81.556  0.00  0.00    +0.000 A 
ENDBRANCH   2  12
TORSDOF 3
ENDMDL
