REMARK  Name = *****
REMARK  4 active torsions:
REMARK  status: ('A' for Active; 'I' for Inactive)
REMARK    1  A    between atoms: C_4  and  C_7
REMARK    2  A    between atoms: C_7  and  S_8
REMARK    3  A    between atoms: S_8  and  C_9
REMARK    4  A    between atoms: C_14  and  C_15
REMARK                            x       y       z     vdW  Elec       q    Type
REMARK                         _______ _______ _______ _____ _____    ______ ____
ROOT
ATOM      1  S   UNL     1      -3.731  -1.243  -0.403  0.00  0.00    +0.000 S 
ENDROOT
BRANCH   1   2
ATOM      2  C   UNL     1      -5.393  -0.658  -0.721  0.00  0.00    +0.000 A 
ATOM      3  C   UNL     1      -5.877  -0.782  -2.032  0.00  0.00    +0.000 A 
ATOM      4  C   UNL     1      -7.167  -0.359  -2.358  0.00  0.00    +0.000 A 
ATOM      5  C   UNL     1      -7.991   0.186  -1.377  0.00  0.00    +0.000 A 
ATOM      6  C   UNL     1      -7.526   0.304  -0.067  0.00  0.00    +0.000 A 
ATOM      7  C   UNL     1      -6.230  -0.119   0.270  0.00  0.00    +0.000 A 
BRANCH   7   8
ATOM      8  C   UNL     1      -5.805   0.022   1.634  0.00  0.00    +0.000 C 
ATOM      9  N   UNL     1      -5.473   0.171   2.737  0.00  0.00    +0.000 NA
ENDBRANCH   7   8
ENDBRANCH   1   2
BRANCH   1  10
ATOM     10  C   UNL     1      -2.855   0.357  -0.385  0.00  0.00    +0.000 C 
BRANCH  10  14
ATOM     11  C   UNL     1       1.342  -0.180   0.446  0.00  0.00    +0.000 A 
ATOM     12  C   UNL     1       0.894  -0.135  -0.873  0.00  0.00    +0.000 A 
ATOM     13  C   UNL     1      -0.464   0.040  -1.144  0.00  0.00    +0.000 A 
ATOM     14  C   UNL     1      -1.387   0.178  -0.097  0.00  0.00    +0.000 A 
ATOM     15  C   UNL     1      -0.925   0.122   1.226  0.00  0.00    +0.000 A 
ATOM     16  C   UNL     1       0.433  -0.054   1.495  0.00  0.00    +0.000 A 
ENDBRANCH  10  14
ENDBRANCH   1  10
TORSDOF 4
