MODEL 1
REMARK VINA RESULT:      -4.0      0.000      0.000
REMARK  Name = *****
REMARK  2 active torsions:
REMARK  status: ('A' for Active; 'I' for Inactive)
REMARK    1  A    between atoms: N_5  and  S_6
REMARK    2  A    between atoms: S_6  and  C_7
REMARK                            x       y       z     vdW  Elec       q    Type
REMARK                         _______ _______ _______ _____ _____    ______ ____
ROOT
ATOM      1  S   UNL     1     102.924 127.772  82.965  0.00  0.00    +0.000 S 
ENDROOT
BRANCH   1   6
ATOM      2  C   UNL     1     104.799 123.930  80.665  0.00  0.00    +0.000 C 
ATOM      3  C   UNL     1     104.269 123.592  82.052  0.00  0.00    +0.000 C 
ATOM      4  C   UNL     1     104.019 124.945  82.708  0.00  0.00    +0.000 C 
ATOM      5  C   UNL     1     103.669 125.807  81.517  0.00  0.00    +0.000 C 
ATOM      6  N   UNL     1     103.196 127.012  81.504  0.00  0.00    +0.000 NA
ATOM      7  C   UNL     1     103.944 125.104  80.211  0.00  0.00    +0.000 C 
ENDBRANCH   1   6
BRANCH   1   8
ATOM      8  C   UNL     1     101.136 127.843  83.012  0.00  0.00    +0.000 A 
ATOM      9  C   UNL     1     100.423 128.910  83.571  0.00  0.00    +0.000 A 
ATOM     10  C   UNL     1      99.024 128.908  83.576  0.00  0.00    +0.000 A 
ATOM     11  C   UNL     1      98.325 127.839  83.021  0.00  0.00    +0.000 A 
ATOM     12  C   UNL     1      99.023 126.771  82.461  0.00  0.00    +0.000 A 
ATOM     13  C   UNL     1     100.420 126.774  82.457  0.00  0.00    +0.000 A 
ENDBRANCH   1   8
TORSDOF 2
ENDMDL
