MODEL 1
REMARK VINA RESULT:      -4.6      0.000      0.000
REMARK  Name = *****
REMARK  1 active torsions:
REMARK  status: ('A' for Active; 'I' for Inactive)
REMARK    1  A    between atoms: C_5  and  C_9
REMARK                            x       y       z     vdW  Elec       q    Type
REMARK                         _______ _______ _______ _____ _____    ______ ____
ROOT
ATOM      1  C   UNL     1     105.540 123.368  80.052  0.00  0.00    +0.000 C 
ATOM      2  C   UNL     1     104.599 123.218  81.275  0.00  0.00    +0.000 C 
ATOM      3  C   UNL     1     104.275 124.663  81.609  0.00  0.00    +0.000 C 
ATOM      4  C   UNL     1     103.086 125.132  82.379  0.00  0.00    +0.000 C 
ATOM      5  C   UNL     1     102.647 126.330  81.945  0.00  0.00    +0.000 C 
ATOM      6  S   UNL     1     103.535 126.916  80.540  0.00  0.00    +0.000 S 
ATOM      7  C   UNL     1     104.069 125.225  80.201  0.00  0.00    +0.000 C 
ATOM      8  C   UNL     1     105.351 124.810  79.519  0.00  0.00    +0.000 C 
ENDROOT
BRANCH   5   9
ATOM      9  C   UNL     1     101.561 127.127  82.525  0.00  0.00    +0.000 A 
ATOM     10  C   UNL     1     100.228 126.712  82.386  0.00  0.00    +0.000 A 
ATOM     11  C   UNL     1      99.181 127.462  82.928  0.00  0.00    +0.000 A 
ATOM     12  C   UNL     1      99.453 128.641  83.619  0.00  0.00    +0.000 A 
ATOM     13  C   UNL     1     100.770 129.068  83.768  0.00  0.00    +0.000 A 
ATOM     14  C   UNL     1     101.816 128.316  83.224  0.00  0.00    +0.000 A 
ENDBRANCH   5   9
TORSDOF 1
ENDMDL
