REMARK  Name = *****
REMARK  2 active torsions:
REMARK  status: ('A' for Active; 'I' for Inactive)
REMARK    1  A    between atoms: C_5  and  C_7
REMARK    2  A    between atoms: N_8  and  C_9
REMARK                            x       y       z     vdW  Elec       q    Type
REMARK                         _______ _______ _______ _____ _____    ______ ____
ROOT
ATOM      1  C   UNL     1      -0.659  -2.398  -0.199  0.00  0.00    +0.000 C 
ATOM      2  N   UNL     1      -1.863  -2.531   0.270  0.00  0.00    +0.000 NA
ENDROOT
BRANCH   1   7
ATOM      3  C   UNL     1       0.107   1.204   0.619  0.00  0.00    +0.000 A 
ATOM      4  C   UNL     1       1.405   1.340   0.135  0.00  0.00    +0.000 A 
ATOM      5  C   UNL     1       2.043   0.251  -0.463  0.00  0.00    +0.000 A 
ATOM      6  C   UNL     1       1.384  -0.978  -0.581  0.00  0.00    +0.000 A 
ATOM      7  C   UNL     1       0.078  -1.118  -0.096  0.00  0.00    +0.000 A 
ATOM      8  C   UNL     1      -0.556  -0.019   0.505  0.00  0.00    +0.000 A 
ATOM      9 CL   UNL     1       2.253  -2.269  -1.334  0.00  0.00    +0.000 Cl
ENDBRANCH   1   7
BRANCH   2  10
ATOM     10  C   UNL     1      -2.448  -3.793   0.108  0.00  0.00    +0.000 A 
ATOM     11  C   UNL     1      -2.229  -4.802   1.052  0.00  0.00    +0.000 A 
ATOM     12  C   UNL     1      -2.827  -6.054   0.897  0.00  0.00    +0.000 A 
ATOM     13  C   UNL     1      -3.652  -6.286  -0.198  0.00  0.00    +0.000 A 
ATOM     14  C   UNL     1      -3.893  -5.289  -1.137  0.00  0.00    +0.000 A 
ATOM     15  C   UNL     1      -3.292  -4.039  -0.979  0.00  0.00    +0.000 A 
ATOM     16  F   UNL     1      -4.227  -7.486  -0.347  0.00  0.00    +0.000 F 
ENDBRANCH   2  10
TORSDOF 2
