REMARK  Name = *****
REMARK  1 active torsions:
REMARK  status: ('A' for Active; 'I' for Inactive)
REMARK    1  A    between atoms: C_4  and  C_5
REMARK                            x       y       z     vdW  Elec       q    Type
REMARK                         _______ _______ _______ _____ _____    ______ ____
ROOT
ATOM      1  C   UNL     1      -1.375  -1.572   0.157  0.00  0.00    +0.000 C 
ATOM      2  C   UNL     1      -2.485  -0.562   0.477  0.00  0.00    +0.000 C 
ATOM      3  C   UNL     1      -1.936   0.803   0.114  0.00  0.00    +0.000 C 
ATOM      4  C   UNL     1      -2.625   1.922  -0.158  0.00  0.00    +0.000 C 
ATOM      5  F   UNL     1      -1.975   3.037  -0.563  0.00  0.00    +0.000 F 
ATOM      6  C   UNL     1      -0.479   0.650   0.024  0.00  0.00    +0.000 A 
ATOM      7  C   UNL     1       0.527   1.601  -0.079  0.00  0.00    +0.000 A 
ATOM      8  C   UNL     1       1.858   1.176  -0.130  0.00  0.00    +0.000 A 
ATOM      9  C   UNL     1       2.173  -0.188  -0.077  0.00  0.00    +0.000 A 
ATOM     10  C   UNL     1       1.161  -1.143   0.028  0.00  0.00    +0.000 A 
ATOM     11  C   UNL     1      -0.156  -0.709   0.088  0.00  0.00    +0.000 A 
ENDROOT
BRANCH   4  12
ATOM     12  C   UNL     1      -4.042   2.021  -0.066  0.00  0.00    +0.000 A 
ATOM     13  C   UNL     1      -4.910   1.585   0.924  0.00  0.00    +0.000 A 
ATOM     14  C   UNL     1      -6.276   1.881   0.645  0.00  0.00    +0.000 A 
ATOM     15  C   UNL     1      -6.422   2.549  -0.547  0.00  0.00    +0.000 A 
ATOM     16  S   UNL     1      -4.921   2.824  -1.314  0.00  0.00    +0.000 S 
ENDBRANCH   4  12
TORSDOF 1
