MODEL 1
REMARK VINA RESULT:      -5.0      0.000      0.000
REMARK  Name = *****
REMARK  2 active torsions:
REMARK  status: ('A' for Active; 'I' for Inactive)
REMARK    1  A    between atoms: C_4  and  C_7
REMARK    2  A    between atoms: C_8  and  C_9
REMARK                            x       y       z     vdW  Elec       q    Type
REMARK                         _______ _______ _______ _____ _____    ______ ____
ROOT
ATOM      1  C   UNL     1     103.917 125.036  80.996  0.00  0.00    +0.000 A 
ATOM      2  C   UNL     1     104.115 123.898  81.805  0.00  0.00    +0.000 A 
ATOM      3  C   UNL     1     105.138 123.003  81.466  0.00  0.00    +0.000 A 
ATOM      4  C   UNL     1     105.911 123.258  80.344  0.00  0.00    +0.000 A 
ATOM      5  C   UNL     1     105.749 124.351  79.506  0.00  0.00    +0.000 A 
ATOM      6  C   UNL     1     104.722 125.238  79.859  0.00  0.00    +0.000 A 
ATOM      7  O   UNL     1     106.827 122.252  80.230  0.00  0.00    +0.000 OA
ATOM      8  C   UNL     1     106.548 121.446  81.295  0.00  0.00    +0.000 A 
ATOM      9  N   UNL     1     105.556 121.839  82.063  0.00  0.00    +0.000 NA
ENDROOT
BRANCH   1  11
ATOM     10  C   UNL     1     102.056 125.954  82.363  0.00  0.00    +0.000 C 
ATOM     11  C   UNL     1     102.843 126.003  81.276  0.00  0.00    +0.000 C 
BRANCH  10  15
ATOM     12  C   UNL     1      99.022 128.822  83.296  0.00  0.00    +0.000 A 
ATOM     13  C   UNL     1      98.671 127.637  82.654  0.00  0.00    +0.000 A 
ATOM     14  C   UNL     1      99.652 126.694  82.337  0.00  0.00    +0.000 A 
ATOM     15  C   UNL     1     100.997 126.932  82.649  0.00  0.00    +0.000 A 
ATOM     16  C   UNL     1     101.335 128.120  83.312  0.00  0.00    +0.000 A 
ATOM     17  C   UNL     1     100.354 129.063  83.628  0.00  0.00    +0.000 A 
ENDBRANCH  10  15
ENDBRANCH   1  11
TORSDOF 2
ENDMDL
