MODEL 1
REMARK VINA RESULT:      -4.5      0.000      0.000
REMARK  Name = *****
REMARK  4 active torsions:
REMARK  status: ('A' for Active; 'I' for Inactive)
REMARK    1  A    between atoms: C_1  and  S_2
REMARK    2  A    between atoms: S_2  and  N_3
REMARK    3  A    between atoms: S_2  and  C_12
REMARK    4  A    between atoms: N_3  and  C_4
REMARK                            x       y       z     vdW  Elec       q    Type
REMARK                         _______ _______ _______ _____ _____    ______ ____
ROOT
ATOM      1  C   UNL     1     103.881 127.069  83.398  0.00  0.00    +0.000 C 
ATOM      2  S   UNL     1     102.516 126.035  82.918  0.00  0.00    +0.000 S 
ATOM      3  O   UNL     1     102.321 125.107  84.017  0.00  0.00    +0.000 OA
ENDROOT
BRANCH   2   4
ATOM      4  C   UNL     1     101.055 127.060  82.942  0.00  0.00    +0.000 A 
ATOM      5  C   UNL     1     101.151 128.344  83.491  0.00  0.00    +0.000 A 
ATOM      6  C   UNL     1     100.020 129.158  83.549  0.00  0.00    +0.000 A 
ATOM      7  C   UNL     1      98.803 128.695  83.050  0.00  0.00    +0.000 A 
ATOM      8  C   UNL     1      98.715 127.423  82.483  0.00  0.00    +0.000 A 
ATOM      9  C   UNL     1      99.842 126.600  82.425  0.00  0.00    +0.000 A 
ENDBRANCH   2   4
BRANCH   2  10
ATOM     10  N   UNL     1     102.767 125.590  81.464  0.00  0.00    +0.000 NA
BRANCH  10  11
ATOM     11  C   UNL     1     103.916 125.012  80.855  0.00  0.00    +0.000 A 
ATOM     12  C   UNL     1     104.370 123.705  81.037  0.00  0.00    +0.000 A 
ATOM     13  C   UNL     1     105.530 123.259  80.390  0.00  0.00    +0.000 A 
ATOM     14  C   UNL     1     106.242 124.121  79.560  0.00  0.00    +0.000 A 
ATOM     15  C   UNL     1     105.802 125.427  79.368  0.00  0.00    +0.000 A 
ATOM     16  C   UNL     1     104.644 125.866  80.017  0.00  0.00    +0.000 A 
ATOM     17 CL   UNL     1     107.668 123.570  78.773  0.00  0.00    +0.000 Cl
ENDBRANCH  10  11
ENDBRANCH   2  10
TORSDOF 3
ENDMDL
