MODEL 1
REMARK VINA RESULT:      -4.0      0.000      0.000
REMARK  Name = *****
REMARK  4 active torsions:
REMARK  status: ('A' for Active; 'I' for Inactive)
REMARK    1  A    between atoms: C_4  and  C_7
REMARK    2  A    between atoms: C_7  and  S_8
REMARK    3  A    between atoms: S_8  and  C_9
REMARK    4  A    between atoms: C_12  and  C_14
REMARK                            x       y       z     vdW  Elec       q    Type
REMARK                         _______ _______ _______ _____ _____    ______ ____
ROOT
ATOM      1  S   UNL     1      89.258  70.265  86.990  0.00  0.00    +0.000 S 
ENDROOT
BRANCH   1   2
ATOM      2  C   UNL     1      89.246  68.522  86.857  0.00  0.00    +0.000 A 
ATOM      3  N   UNL     1      90.282  67.844  86.418  0.00  0.00    +0.000 NA
ATOM      4  C   UNL     1      89.988  66.494  86.425  0.00  0.00    +0.000 A 
ATOM      5  C   UNL     1      88.720  66.159  86.855  0.00  0.00    +0.000 A 
ATOM      6  S   UNL     1      87.871  67.588  87.279  0.00  0.00    +0.000 S 
BRANCH   5   7
ATOM      7  C   UNL     1      88.088  64.819  86.967  0.00  0.00    +0.000 C 
ATOM      8 CL   UNL     1      88.605  64.019  88.468  0.00  0.00    +0.000 Cl
ENDBRANCH   5   7
ENDBRANCH   1   2
BRANCH   1   9
ATOM      9  C   UNL     1      87.979  70.507  88.254  0.00  0.00    +0.000 C 
BRANCH   9  13
ATOM     10  C   UNL     1      84.467  72.401  86.611  0.00  0.00    +0.000 A 
ATOM     11  C   UNL     1      84.601  72.257  87.990  0.00  0.00    +0.000 A 
ATOM     12  C   UNL     1      85.737  71.647  88.524  0.00  0.00    +0.000 A 
ATOM     13  C   UNL     1      86.755  71.179  87.680  0.00  0.00    +0.000 A 
ATOM     14  C   UNL     1      86.605  71.321  86.293  0.00  0.00    +0.000 A 
ATOM     15  C   UNL     1      85.468  71.932  85.762  0.00  0.00    +0.000 A 
ENDBRANCH   9  13
ENDBRANCH   1   9
TORSDOF 4
ENDMDL
