MODEL 1
REMARK VINA RESULT:      -4.7      0.000      0.000
REMARK  Name = *****
REMARK  4 active torsions:
REMARK  status: ('A' for Active; 'I' for Inactive)
REMARK    1  A    between atoms: C_1  and  C_2
REMARK    2  A    between atoms: C_5  and  N_8
REMARK    3  A    between atoms: N_8  and  C_9
REMARK    4  A    between atoms: C_9  and  C_11
REMARK                            x       y       z     vdW  Elec       q    Type
REMARK                         _______ _______ _______ _____ _____    ______ ____
ROOT
ATOM      1  N   UNL     1      87.847  62.981  87.883  0.00  0.00    +0.000 N 
ATOM      2  H   UNL     1      87.755  62.007  87.779  0.00  0.00    +0.000 HD
ENDROOT
BRANCH   1   7
ATOM      3  C   UNL     1      87.939  64.728  93.340  0.00  0.00    +0.000 C 
ATOM      4  C   UNL     1      87.940  64.300  91.902  0.00  0.00    +0.000 A 
ATOM      5  C   UNL     1      89.143  64.068  91.230  0.00  0.00    +0.000 A 
ATOM      6  C   UNL     1      89.146  63.636  89.898  0.00  0.00    +0.000 A 
ATOM      7  C   UNL     1      87.947  63.402  89.225  0.00  0.00    +0.000 A 
ATOM      8  C   UNL     1      86.744  63.647  89.898  0.00  0.00    +0.000 A 
ATOM      9  C   UNL     1      86.739  64.078  91.227  0.00  0.00    +0.000 A 
ENDBRANCH   1   7
BRANCH   1  10
ATOM     10  C   UNL     1      87.852  63.670  86.689  0.00  0.00    +0.000 C 
ATOM     11  S   UNL     1      86.511  63.479  85.688  0.00  0.00    +0.000 S 
BRANCH  10  12
ATOM     12  C   UNL     1      89.036  64.436  86.247  0.00  0.00    +0.000 A 
ATOM     13  C   UNL     1      89.117  65.801  86.544  0.00  0.00    +0.000 A 
ATOM     14  C   UNL     1      90.241  66.512  86.145  0.00  0.00    +0.000 A 
ATOM     15  C   UNL     1      91.285  65.890  85.466  0.00  0.00    +0.000 A 
ATOM     16  C   UNL     1      91.209  64.526  85.181  0.00  0.00    +0.000 A 
ATOM     17  C   UNL     1      90.087  63.795  85.575  0.00  0.00    +0.000 A 
ATOM     18  F   UNL     1      90.323  67.821  86.418  0.00  0.00    +0.000 F 
ENDBRANCH  10  12
ENDBRANCH   1  10
TORSDOF 3
ENDMDL
