MODEL 1
REMARK VINA RESULT:      -4.4      0.000      0.000
REMARK  Name = *****
REMARK  5 active torsions:
REMARK  status: ('A' for Active; 'I' for Inactive)
REMARK    1  A    between atoms: C_1  and  O_2
REMARK    2  A    between atoms: O_2  and  C_3
REMARK    3  A    between atoms: C_3  and  C_9
REMARK    4  A    between atoms: C_10  and  S_11
REMARK    5  A    between atoms: S_11  and  C_12
REMARK                            x       y       z     vdW  Elec       q    Type
REMARK                         _______ _______ _______ _____ _____    ______ ____
ROOT
ATOM      1  C   UNL     1     102.195 126.113  82.077  0.00  0.00    +0.000 C 
ATOM      2  C   UNL     1     103.022 125.608  81.367  0.00  0.00    +0.000 C 
ENDROOT
BRANCH   1   3
ATOM      3  C   UNL     1     101.196 126.744  82.962  0.00  0.00    +0.000 C 
ATOM      4  C   UNL     1     101.565 128.220  83.226  0.00  0.00    +0.000 C 
ATOM      5  C   UNL     1     100.491 128.950  84.033  0.00  0.00    +0.000 C 
ATOM      6  C   UNL     1      99.128 128.865  83.354  0.00  0.00    +0.000 C 
ATOM      7  C   UNL     1      98.733 127.421  83.061  0.00  0.00    +0.000 C 
ATOM      8  C   UNL     1      99.817 126.688  82.266  0.00  0.00    +0.000 C 
BRANCH   3  10
ATOM      9  C   UNL     1     102.240 125.752  84.923  0.00  0.00    +0.000 C 
ATOM     10  O   UNL     1     101.054 125.984  84.176  0.00  0.00    +0.000 OA
ENDBRANCH   3  10
ENDBRANCH   1   3
BRANCH   2  11
ATOM     11  S   UNL     1     104.206 124.906  80.385  0.00  0.00    +0.000 S 
BRANCH  11  12
ATOM     12  C   UNL     1     104.413 123.407  81.333  0.00  0.00    +0.000 A 
ATOM     13  C   UNL     1     104.649 122.181  80.700  0.00  0.00    +0.000 A 
ATOM     14  C   UNL     1     104.817 121.018  81.455  0.00  0.00    +0.000 A 
ATOM     15  C   UNL     1     104.759 121.076  82.846  0.00  0.00    +0.000 A 
ATOM     16  C   UNL     1     104.535 122.295  83.484  0.00  0.00    +0.000 A 
ATOM     17  C   UNL     1     104.365 123.458  82.730  0.00  0.00    +0.000 A 
ENDBRANCH  11  12
ENDBRANCH   2  11
TORSDOF 4
ENDMDL
