MODEL 1
REMARK VINA RESULT:      -5.0      0.000      0.000
REMARK  Name = *****
REMARK  5 active torsions:
REMARK  status: ('A' for Active; 'I' for Inactive)
REMARK    1  A    between atoms: C_1  and  C_2
REMARK    2  A    between atoms: C_4  and  C_17
REMARK    3  A    between atoms: C_5  and  N_8
REMARK    4  A    between atoms: C_9  and  C_10
REMARK    5  A    between atoms: C_9  and  C_11
REMARK                            x       y       z     vdW  Elec       q    Type
REMARK                         _______ _______ _______ _____ _____    ______ ____
ROOT
ATOM      1  N   UNL     1     102.788 127.469  82.778  0.00  0.00    +0.000 NA
ATOM      2  C   UNL     1     101.502 127.633  82.904  0.00  0.00    +0.000 C 
ATOM      3  C   UNL     1     100.467 126.622  82.445  0.00  0.00    +0.000 C 
ENDROOT
BRANCH   1   8
ATOM      4  C   UNL     1     104.880 122.653  80.512  0.00  0.00    +0.000 C 
ATOM      5  C   UNL     1     104.359 123.927  81.109  0.00  0.00    +0.000 A 
ATOM      6  C   UNL     1     104.192 125.067  80.311  0.00  0.00    +0.000 A 
ATOM      7  C   UNL     1     103.681 126.259  80.850  0.00  0.00    +0.000 A 
ATOM      8  C   UNL     1     103.296 126.295  82.201  0.00  0.00    +0.000 A 
ATOM      9  C   UNL     1     103.471 125.158  82.997  0.00  0.00    +0.000 A 
ATOM     10  C   UNL     1     103.987 123.979  82.456  0.00  0.00    +0.000 A 
ATOM     11  C   UNL     1     103.532 127.474  79.979  0.00  0.00    +0.000 C 
ENDBRANCH   1   8
BRANCH   2  12
ATOM     12  C   UNL     1     101.012 128.891  83.549  0.00  0.00    +0.000 A 
ATOM     13  C   UNL     1     101.903 129.650  84.320  0.00  0.00    +0.000 A 
ATOM     14  C   UNL     1     101.474 130.828  84.936  0.00  0.00    +0.000 A 
ATOM     15  C   UNL     1     100.153 131.247  84.793  0.00  0.00    +0.000 A 
ATOM     16  C   UNL     1      99.257 130.490  84.040  0.00  0.00    +0.000 A 
ATOM     17  C   UNL     1      99.683 129.311  83.421  0.00  0.00    +0.000 A 
ENDBRANCH   2  12
TORSDOF 2
ENDMDL
