MODEL 1
REMARK VINA RESULT:      -4.0      0.000      0.000
REMARK  Name = *****
REMARK  3 active torsions:
REMARK  status: ('A' for Active; 'I' for Inactive)
REMARK    1  A    between atoms: C_4  and  C_7
REMARK    2  A    between atoms: C_8  and  S_9
REMARK    3  A    between atoms: S_9  and  C_10
REMARK                            x       y       z     vdW  Elec       q    Type
REMARK                         _______ _______ _______ _____ _____    ______ ____
ROOT
ATOM      1  C   UNL     1      89.835  66.787  86.442  0.00  0.00    +0.000 C 
ATOM      2  C   UNL     1      88.799  65.946  86.309  0.00  0.00    +0.000 C 
ENDROOT
BRANCH   1   6
ATOM      3  C   UNL     1      89.711  70.938  85.424  0.00  0.00    +0.000 A 
ATOM      4  C   UNL     1      89.533  70.552  86.751  0.00  0.00    +0.000 A 
ATOM      5  C   UNL     1      89.566  69.198  87.096  0.00  0.00    +0.000 A 
ATOM      6  C   UNL     1      89.766  68.217  86.116  0.00  0.00    +0.000 A 
ATOM      7  C   UNL     1      89.961  68.619  84.788  0.00  0.00    +0.000 A 
ATOM      8  C   UNL     1      89.927  69.972  84.443  0.00  0.00    +0.000 A 
ENDBRANCH   1   6
BRANCH   2   9
ATOM      9  S   UNL     1      88.958  64.265  86.707  0.00  0.00    +0.000 S 
BRANCH   9  10
ATOM     10  C   UNL     1      88.275  64.343  88.324  0.00  0.00    +0.000 A 
ATOM     11  C   UNL     1      88.756  63.697  89.444  0.00  0.00    +0.000 A 
ATOM     12  C   UNL     1      87.977  63.976  90.605  0.00  0.00    +0.000 A 
ATOM     13  C   UNL     1      86.935  64.834  90.331  0.00  0.00    +0.000 A 
ATOM     14  S   UNL     1      86.903  65.298  88.685  0.00  0.00    +0.000 S 
ENDBRANCH   9  10
ENDBRANCH   2   9
TORSDOF 3
ENDMDL
