MODEL 1
REMARK VINA RESULT:      -4.5      0.000      0.000
REMARK  Name = *****
REMARK  4 active torsions:
REMARK  status: ('A' for Active; 'I' for Inactive)
REMARK    1  A    between atoms: C_1  and  C_2
REMARK    2  A    between atoms: C_6  and  O_8
REMARK    3  A    between atoms: O_8  and  C_9
REMARK    4  A    between atoms: C_9  and  C_10
REMARK                            x       y       z     vdW  Elec       q    Type
REMARK                         _______ _______ _______ _____ _____    ______ ____
ROOT
ATOM      1  C   UNL     1     104.695 129.259  82.200  0.00  0.00    +0.000 C 
ATOM      2  C   UNL     1     103.699 128.136  82.168  0.00  0.00    +0.000 A 
ATOM      3  C   UNL     1     102.565 128.123  82.992  0.00  0.00    +0.000 A 
ATOM      4  C   UNL     1     101.655 127.063  82.927  0.00  0.00    +0.000 A 
ATOM      5  C   UNL     1     101.864 126.003  82.040  0.00  0.00    +0.000 A 
ATOM      6  C   UNL     1     102.985 125.999  81.212  0.00  0.00    +0.000 A 
ATOM      7  C   UNL     1     103.890 127.065  81.279  0.00  0.00    +0.000 A 
ATOM      8 CL   UNL     1     102.240 129.400  84.108  0.00  0.00    +0.000 Cl
ENDROOT
BRANCH   6   9
ATOM      9  O   UNL     1     103.314 125.034  80.303  0.00  0.00    +0.000 OA
BRANCH   9  10
ATOM     10  C   UNL     1     104.638 124.510  80.357  0.00  0.00    +0.000 C 
BRANCH  10  11
ATOM     11  C   UNL     1     104.614 123.262  81.203  0.00  0.00    +0.000 A 
ATOM     12  C   UNL     1     104.642 121.994  80.607  0.00  0.00    +0.000 A 
ATOM     13  C   UNL     1     104.605 120.840  81.393  0.00  0.00    +0.000 A 
ATOM     14  C   UNL     1     104.529 120.944  82.781  0.00  0.00    +0.000 A 
ATOM     15  C   UNL     1     104.485 122.199  83.384  0.00  0.00    +0.000 A 
ATOM     16  C   UNL     1     104.523 123.353  82.600  0.00  0.00    +0.000 A 
ENDBRANCH  10  11
ENDBRANCH   9  10
ENDBRANCH   6   9
TORSDOF 3
ENDMDL
