REMARK  Name = *****
REMARK  3 active torsions:
REMARK  status: ('A' for Active; 'I' for Inactive)
REMARK    1  A    between atoms: C_4  and  C_6
REMARK    2  A    between atoms: C_7  and  C_8
REMARK    3  A    between atoms: C_11  and  C_14
REMARK                            x       y       z     vdW  Elec       q    Type
REMARK                         _______ _______ _______ _____ _____    ______ ____
ROOT
ATOM      1  C   UNL     1       4.397   3.163  -0.109  0.00  0.00    +0.000 A 
ATOM      2  C   UNL     1       4.251   4.551  -0.043  0.00  0.00    +0.000 A 
ATOM      3  C   UNL     1       5.378   5.376  -0.094  0.00  0.00    +0.000 A 
ATOM      4  C   UNL     1       6.655   4.815  -0.211  0.00  0.00    +0.000 A 
ATOM      5  C   UNL     1       6.799   3.425  -0.276  0.00  0.00    +0.000 A 
ATOM      6  C   UNL     1       5.670   2.601  -0.225  0.00  0.00    +0.000 A 
ENDROOT
BRANCH   1   8
ATOM      7  C   UNL     1       2.281   1.601  -0.022  0.00  0.00    +0.000 C 
ATOM      8  C   UNL     1       3.244   2.318  -0.060  0.00  0.00    +0.000 C 
BRANCH   7  12
ATOM      9  C   UNL     1      -1.091   0.088   0.075  0.00  0.00    +0.000 A 
ATOM     10  C   UNL     1      -0.450  -1.131   0.094  0.00  0.00    +0.000 A 
ATOM     11  S   UNL     1       1.252  -0.960   0.060  0.00  0.00    +0.000 S 
ATOM     12  C   UNL     1       1.142   0.746   0.020  0.00  0.00    +0.000 A 
ATOM     13  C   UNL     1      -0.168   1.175   0.033  0.00  0.00    +0.000 A 
ENDBRANCH   7  12
ENDBRANCH   1   8
BRANCH   4  14
ATOM     14  C   UNL     1       7.811   5.662  -0.264  0.00  0.00    +0.000 C 
ATOM     15  N   UNL     1       8.746   6.348  -0.307  0.00  0.00    +0.000 NA
ENDBRANCH   4  14
TORSDOF 3
