MODEL 1
REMARK VINA RESULT:      -3.9      0.000      0.000
REMARK  Name = *****
REMARK  2 active torsions:
REMARK  status: ('A' for Active; 'I' for Inactive)
REMARK    1  A    between atoms: N_6  and  C_7
REMARK    2  A    between atoms: C_7  and  C_8
REMARK                            x       y       z     vdW  Elec       q    Type
REMARK                         _______ _______ _______ _____ _____    ______ ____
ROOT
ATOM      1  C   UNL     1     104.873 121.904  80.817  0.00  0.00    +0.000 C 
ATOM      2  C   UNL     1     104.757 123.215  81.069  0.00  0.00    +0.000 C 
ATOM      3  C   UNL     1     105.033 124.289  80.063  0.00  0.00    +0.000 C 
ATOM      4  S   UNL     1     103.975 125.715  80.419  0.00  0.00    +0.000 S 
ATOM      5  C   UNL     1     103.724 125.381  82.117  0.00  0.00    +0.000 C 
ATOM      6  N   UNL     1     103.216 126.165  82.992  0.00  0.00    +0.000 NA
ATOM      7  S   UNL     1     104.210 123.771  82.618  0.00  0.00    +0.000 S 
ENDROOT
BRANCH   6   8
ATOM      8  C   UNL     1     102.773 127.500  82.602  0.00  0.00    +0.000 C 
BRANCH   8   9
ATOM      9  C   UNL     1     101.285 127.669  82.809  0.00  0.00    +0.000 A 
ATOM     10  C   UNL     1     100.376 126.724  82.314  0.00  0.00    +0.000 A 
ATOM     11  C   UNL     1      99.006 126.871  82.541  0.00  0.00    +0.000 A 
ATOM     12  C   UNL     1      98.531 127.960  83.270  0.00  0.00    +0.000 A 
ATOM     13  C   UNL     1      99.423 128.904  83.772  0.00  0.00    +0.000 A 
ATOM     14  C   UNL     1     100.793 128.757  83.546  0.00  0.00    +0.000 A 
ENDBRANCH   8   9
ENDBRANCH   6   8
TORSDOF 2
ENDMDL
