MODEL 1
REMARK VINA RESULT:      -4.8      0.000      0.000
REMARK  Name = *****
REMARK  3 active torsions:
REMARK  status: ('A' for Active; 'I' for Inactive)
REMARK    1  A    between atoms: C_1  and  C_2
REMARK    2  A    between atoms: C_5  and  C_8
REMARK    3  A    between atoms: C_9  and  C_10
REMARK                            x       y       z     vdW  Elec       q    Type
REMARK                         _______ _______ _______ _____ _____    ______ ____
ROOT
ATOM      1  C   UNL     1      97.508 117.573  79.986  0.00  0.00    +0.000 C 
ATOM      2  C   UNL     1      97.990 118.491  80.592  0.00  0.00    +0.000 C 
ENDROOT
BRANCH   1   7
ATOM      3  C   UNL     1      95.202 113.180  77.105  0.00  0.00    +0.000 C 
ATOM      4  C   UNL     1      95.787 114.344  77.849  0.00  0.00    +0.000 A 
ATOM      5  C   UNL     1      96.601 115.276  77.193  0.00  0.00    +0.000 A 
ATOM      6  C   UNL     1      97.166 116.342  77.897  0.00  0.00    +0.000 A 
ATOM      7  C   UNL     1      96.929 116.481  79.266  0.00  0.00    +0.000 A 
ATOM      8  C   UNL     1      96.130 115.548  79.929  0.00  0.00    +0.000 A 
ATOM      9  C   UNL     1      95.565 114.483  79.225  0.00  0.00    +0.000 A 
ENDBRANCH   1   7
BRANCH   2  10
ATOM     10  C   UNL     1      98.587 119.619  81.332  0.00  0.00    +0.000 C 
ATOM     11  C   UNL     1      97.632 120.825  81.369  0.00  0.00    +0.000 C 
ATOM     12  C   UNL     1      96.555 120.676  82.446  0.00  0.00    +0.000 C 
ATOM     13  C   UNL     1      97.172 120.482  83.833  0.00  0.00    +0.000 C 
ATOM     14  C   UNL     1      98.345 119.546  83.833  0.00  0.00    +0.000 C 
ATOM     15  C   UNL     1      98.965 119.145  82.712  0.00  0.00    +0.000 C 
ENDBRANCH   2  10
TORSDOF 2
ENDMDL
