REMARK  Name = *****
REMARK  2 active torsions:
REMARK  status: ('A' for Active; 'I' for Inactive)
REMARK    1  A    between atoms: C_4  and  C_8
REMARK    2  A    between atoms: C_9  and  C_10
REMARK                            x       y       z     vdW  Elec       q    Type
REMARK                         _______ _______ _______ _____ _____    ______ ____
ROOT
ATOM      1  C   UNL     1       2.895   0.705  -0.536  0.00  0.00    +0.000 C 
ATOM      2  C   UNL     1       4.075   0.908  -0.434  0.00  0.00    +0.000 C 
ENDROOT
BRANCH   1   6
ATOM      3  C   UNL     1      -1.011   0.566   0.849  0.00  0.00    +0.000 C 
ATOM      4  C   UNL     1      -0.854   1.461  -0.376  0.00  0.00    +0.000 C 
ATOM      5  C   UNL     1       0.622   1.713  -0.682  0.00  0.00    +0.000 C 
ATOM      6  C   UNL     1       1.478   0.464  -0.661  0.00  0.00    +0.000 C 
ATOM      7  C   UNL     1       1.078  -0.726  -1.506  0.00  0.00    +0.000 C 
ATOM      8  C   UNL     1       0.929  -0.793  -0.006  0.00  0.00    +0.000 C 
ATOM      9  C   UNL     1      -0.448  -0.827   0.587  0.00  0.00    +0.000 C 
ENDBRANCH   1   6
BRANCH   2  10
ATOM     10  C   UNL     1       5.480   1.150  -0.315  0.00  0.00    +0.000 A 
ATOM     11  C   UNL     1       5.956   2.456  -0.180  0.00  0.00    +0.000 A 
ATOM     12  C   UNL     1       7.328   2.691  -0.066  0.00  0.00    +0.000 A 
ATOM     13  C   UNL     1       8.223   1.622  -0.087  0.00  0.00    +0.000 A 
ATOM     14  C   UNL     1       7.749   0.317  -0.222  0.00  0.00    +0.000 A 
ATOM     15  C   UNL     1       6.378   0.080  -0.336  0.00  0.00    +0.000 A 
ENDBRANCH   2  10
TORSDOF 2
