REMARK  Name = *****
REMARK  4 active torsions:
REMARK  status: ('A' for Active; 'I' for Inactive)
REMARK    1  A    between atoms: C_1  and  C_2
REMARK    2  A    between atoms: C_5  and  S_8
REMARK    3  A    between atoms: S_8  and  N_9
REMARK    4  A    between atoms: N_9  and  C_10
REMARK                            x       y       z     vdW  Elec       q    Type
REMARK                         _______ _______ _______ _____ _____    ______ ____
ROOT
ATOM      1  N   UNL     1      -4.114   1.526   0.108  0.00  0.00    +0.000 N 
ATOM      2  H   UNL     1      -4.187   2.072  -0.708  0.00  0.00    +0.000 HD
ENDROOT
BRANCH   1   3
ATOM      3  C   UNL     1      -4.406   2.132   1.353  0.00  0.00    +0.000 A 
ATOM      4  C   UNL     1      -3.945   1.645   2.586  0.00  0.00    +0.000 A 
ATOM      5  C   UNL     1      -4.207   2.329   3.779  0.00  0.00    +0.000 A 
ATOM      6  C   UNL     1      -4.913   3.527   3.751  0.00  0.00    +0.000 A 
ATOM      7  C   UNL     1      -5.351   4.051   2.539  0.00  0.00    +0.000 A 
ATOM      8  C   UNL     1      -5.086   3.363   1.350  0.00  0.00    +0.000 A 
ATOM      9 CL   UNL     1      -5.233   4.370   5.215  0.00  0.00    +0.000 Cl
ENDBRANCH   1   3
BRANCH   1  10
ATOM     10  S   UNL     1      -3.652  -0.067  -0.043  0.00  0.00    +0.000 S 
BRANCH  10  15
ATOM     11  C   UNL     1       2.457   0.114  -0.096  0.00  0.00    +0.000 C 
ATOM     12  C   UNL     1       0.958   0.097  -0.055  0.00  0.00    +0.000 A 
ATOM     13  C   UNL     1       0.228   1.265  -0.295  0.00  0.00    +0.000 A 
ATOM     14  C   UNL     1      -1.171   1.242  -0.292  0.00  0.00    +0.000 A 
ATOM     15  C   UNL     1      -1.865   0.051  -0.054  0.00  0.00    +0.000 A 
ATOM     16  C   UNL     1      -1.130  -1.120   0.167  0.00  0.00    +0.000 A 
ATOM     17  C   UNL     1       0.268  -1.099   0.162  0.00  0.00    +0.000 A 
ENDBRANCH  10  15
ENDBRANCH   1  10
TORSDOF 3
