MODEL 1
REMARK VINA RESULT:      -4.5      0.000      0.000
REMARK  Name = *****
REMARK  5 active torsions:
REMARK  status: ('A' for Active; 'I' for Inactive)
REMARK    1  A    between atoms: C_1  and  O_2
REMARK    2  A    between atoms: O_2  and  C_3
REMARK    3  A    between atoms: C_3  and  C_4
REMARK    4  A    between atoms: C_7  and  C_10
REMARK    5  A    between atoms: C_11  and  C_12
REMARK                            x       y       z     vdW  Elec       q    Type
REMARK                         _______ _______ _______ _____ _____    ______ ____
ROOT
ATOM      1  C   UNL     1     105.904 122.730  81.030  0.00  0.00    +0.000 A 
ATOM      2  C   UNL     1     105.409 122.791  82.340  0.00  0.00    +0.000 A 
ATOM      3  C   UNL     1     104.387 123.684  82.676  0.00  0.00    +0.000 A 
ATOM      4  C   UNL     1     103.855 124.534  81.707  0.00  0.00    +0.000 A 
ATOM      5  C   UNL     1     104.348 124.492  80.402  0.00  0.00    +0.000 A 
ATOM      6  C   UNL     1     105.370 123.599  80.066  0.00  0.00    +0.000 A 
ENDROOT
BRANCH   4   7
ATOM      7  C   UNL     1     102.808 125.447  82.050  0.00  0.00    +0.000 C 
ATOM      8  C   UNL     1     101.929 126.213  82.338  0.00  0.00    +0.000 C 
BRANCH   8   9
ATOM      9  C   UNL     1     100.882 127.124  82.682  0.00  0.00    +0.000 A 
ATOM     10  C   UNL     1     101.182 128.323  83.333  0.00  0.00    +0.000 A 
ATOM     11  C   UNL     1     100.159 129.212  83.668  0.00  0.00    +0.000 A 
ATOM     12  C   UNL     1      98.837 128.904  83.353  0.00  0.00    +0.000 A 
ATOM     13  C   UNL     1      98.533 127.708  82.702  0.00  0.00    +0.000 A 
ATOM     14  C   UNL     1      99.556 126.818  82.367  0.00  0.00    +0.000 A 
ENDBRANCH   8   9
ENDBRANCH   4   7
BRANCH   1  15
ATOM     15  C   UNL     1     107.036 121.799  80.667  0.00  0.00    +0.000 C 
BRANCH  15  17
ATOM     16  C   UNL     1     107.943 119.868  81.664  0.00  0.00    +0.000 C 
ATOM     17  O   UNL     1     106.769 120.485  81.157  0.00  0.00    +0.000 OA
ENDBRANCH  15  17
ENDBRANCH   1  15
TORSDOF 4
ENDMDL
