MODEL 1
REMARK VINA RESULT:      -4.3      0.000      0.000
REMARK  Name = *****
REMARK  3 active torsions:
REMARK  status: ('A' for Active; 'I' for Inactive)
REMARK    1  A    between atoms: C_5  and  C_7
REMARK    2  A    between atoms: C_7  and  C_8
REMARK    3  A    between atoms: C_9  and  C_10
REMARK                            x       y       z     vdW  Elec       q    Type
REMARK                         _______ _______ _______ _____ _____    ______ ____
ROOT
ATOM      1  C   UNL     1      87.881  70.595  88.781  0.00  0.00    +0.000 C 
ATOM      2  C   UNL     1      89.116  70.429  88.282  0.00  0.00    +0.000 C 
ENDROOT
BRANCH   2   3
ATOM      3  C   UNL     1      89.417  69.960  86.930  0.00  0.00    +0.000 A 
ATOM      4  C   UNL     1      89.701  70.884  85.918  0.00  0.00    +0.000 A 
ATOM      5  C   UNL     1      89.986  70.442  84.625  0.00  0.00    +0.000 A 
ATOM      6  C   UNL     1      89.990  69.077  84.338  0.00  0.00    +0.000 A 
ATOM      7  C   UNL     1      89.707  68.152  85.342  0.00  0.00    +0.000 A 
ATOM      8  C   UNL     1      89.421  68.592  86.636  0.00  0.00    +0.000 A 
ENDBRANCH   2   3
BRANCH   1   9
ATOM      9  C   UNL     1      86.569  70.341  88.078  0.00  0.00    +0.000 C 
BRANCH   9  14
ATOM     10  C   UNL     1      83.781  72.835  86.956  0.00  0.00    +0.000 C 
ATOM     11  C   UNL     1      83.865  72.521  85.460  0.00  0.00    +0.000 C 
ATOM     12  C   UNL     1      85.219  72.027  85.042  0.00  0.00    +0.000 C 
ATOM     13  C   UNL     1      86.156  71.622  85.914  0.00  0.00    +0.000 C 
ATOM     14  C   UNL     1      85.936  71.585  87.412  0.00  0.00    +0.000 C 
ATOM     15  C   UNL     1      84.447  71.742  87.787  0.00  0.00    +0.000 C 
ENDBRANCH   9  14
ENDBRANCH   1   9
TORSDOF 3
ENDMDL
