REMARK  Name = *****
REMARK  3 active torsions:
REMARK  status: ('A' for Active; 'I' for Inactive)
REMARK    1  A    between atoms: C_3  and  S_7
REMARK    2  A    between atoms: S_7  and  S_8
REMARK    3  A    between atoms: S_8  and  C_9
REMARK                            x       y       z     vdW  Elec       q    Type
REMARK                         _______ _______ _______ _____ _____    ______ ____
ROOT
ATOM      1  S   UNL     1      -3.081  -2.504  -1.021  0.00  0.00    +0.000 S 
ENDROOT
BRANCH   1   4
ATOM      2  C   UNL     1       0.360  -0.530   0.214  0.00  0.00    +0.000 C 
ATOM      3  C   UNL     1      -0.736  -1.613   0.222  0.00  0.00    +0.000 C 
ATOM      4  C   UNL     1      -1.991  -1.236  -0.534  0.00  0.00    +0.000 C 
ATOM      5  C   UNL     1      -2.255   0.043  -0.854  0.00  0.00    +0.000 C 
ATOM      6  C   UNL     1      -1.375   1.117  -0.463  0.00  0.00    +0.000 C 
ATOM      7  C   UNL     1      -0.151   0.869   0.023  0.00  0.00    +0.000 C 
ENDBRANCH   1   4
BRANCH   1   8
ATOM      8  S   UNL     1      -4.101  -2.751   0.750  0.00  0.00    +0.000 S 
BRANCH   8   9
ATOM      9  C   UNL     1      -5.339  -1.471   0.646  0.00  0.00    +0.000 A 
ATOM     10  C   UNL     1      -6.439  -1.608  -0.207  0.00  0.00    +0.000 A 
ATOM     11  C   UNL     1      -7.404  -0.601  -0.276  0.00  0.00    +0.000 A 
ATOM     12  C   UNL     1      -7.277   0.543   0.509  0.00  0.00    +0.000 A 
ATOM     13  C   UNL     1      -6.186   0.683   1.366  0.00  0.00    +0.000 A 
ATOM     14  C   UNL     1      -5.221  -0.324   1.437  0.00  0.00    +0.000 A 
ENDBRANCH   8   9
ENDBRANCH   1   8
TORSDOF 3
