REMARK  Name = *****
REMARK  4 active torsions:
REMARK  status: ('A' for Active; 'I' for Inactive)
REMARK    1  A    between atoms: C_1  and  O_2
REMARK    2  A    between atoms: O_2  and  C_3
REMARK    3  A    between atoms: C_6  and  C_9
REMARK    4  A    between atoms: C_10  and  C_11
REMARK                            x       y       z     vdW  Elec       q    Type
REMARK                         _______ _______ _______ _____ _____    ______ ____
ROOT
ATOM      1  C   UNL     1       3.103  -0.647   1.117  0.00  0.00    +0.000 A 
ATOM      2  C   UNL     1       2.580  -1.791   1.722  0.00  0.00    +0.000 A 
ATOM      3  C   UNL     1       3.273  -2.412   2.769  0.00  0.00    +0.000 A 
ATOM      4  C   UNL     1       4.490  -1.892   3.213  0.00  0.00    +0.000 A 
ATOM      5  C   UNL     1       5.016  -0.751   2.610  0.00  0.00    +0.000 A 
ATOM      6  C   UNL     1       4.323  -0.133   1.566  0.00  0.00    +0.000 A 
ENDROOT
BRANCH   1   8
ATOM      7  C   UNL     1       1.277  -0.417  -0.388  0.00  0.00    +0.000 C 
ATOM      8  O   UNL     1       2.530   0.054   0.092  0.00  0.00    +0.000 OA
ENDBRANCH   1   8
BRANCH   4   9
ATOM      9  C   UNL     1       5.193  -2.528   4.284  0.00  0.00    +0.000 C 
ATOM     10  C   UNL     1       5.785  -3.062   5.183  0.00  0.00    +0.000 C 
BRANCH  10  11
ATOM     11  C   UNL     1       6.512  -3.718   6.289  0.00  0.00    +0.000 C 
ATOM     12  C   UNL     1       8.028  -3.521   6.145  0.00  0.00    +0.000 C 
ATOM     13  C   UNL     1       8.637  -4.363   5.023  0.00  0.00    +0.000 C 
ATOM     14  C   UNL     1       8.276  -5.838   5.166  0.00  0.00    +0.000 C 
ATOM     15  C   UNL     1       6.767  -6.042   5.257  0.00  0.00    +0.000 C 
ATOM     16  C   UNL     1       6.151  -5.207   6.380  0.00  0.00    +0.000 C 
ENDBRANCH  10  11
ENDBRANCH   4   9
TORSDOF 3
