MODEL 1
REMARK VINA RESULT:      -4.8      0.000      0.000
REMARK  Name = *****
REMARK  3 active torsions:
REMARK  status: ('A' for Active; 'I' for Inactive)
REMARK    1  A    between atoms: C_1  and  C_2
REMARK    2  A    between atoms: C_5  and  N_8
REMARK    3  A    between atoms: C_9  and  C_10
REMARK                            x       y       z     vdW  Elec       q    Type
REMARK                         _______ _______ _______ _____ _____    ______ ____
ROOT
ATOM      1  C   UNL     1     106.599 121.941  80.901  0.00  0.00    +0.000 C 
ATOM      2  C   UNL     1     105.559 123.008  81.048  0.00  0.00    +0.000 A 
ATOM      3  C   UNL     1     105.291 123.878  79.987  0.00  0.00    +0.000 A 
ATOM      4  C   UNL     1     104.346 124.893  80.101  0.00  0.00    +0.000 A 
ATOM      5  C   UNL     1     103.658 125.065  81.301  0.00  0.00    +0.000 A 
ATOM      6  C   UNL     1     103.912 124.199  82.368  0.00  0.00    +0.000 A 
ATOM      7  C   UNL     1     104.863 123.181  82.249  0.00  0.00    +0.000 A 
ATOM      8  F   UNL     1     105.954 123.740  78.830  0.00  0.00    +0.000 F 
ENDROOT
BRANCH   5   9
ATOM      9  N   UNL     1     102.691 126.074  81.422  0.00  0.00    +0.000 NA
ATOM     10  C   UNL     1     102.012 126.077  82.526  0.00  0.00    +0.000 C 
BRANCH  10  11
ATOM     11  C   UNL     1     100.962 127.080  82.795  0.00  0.00    +0.000 A 
ATOM     12  C   UNL     1     101.270 128.291  83.420  0.00  0.00    +0.000 A 
ATOM     13  C   UNL     1     100.261 129.222  83.663  0.00  0.00    +0.000 A 
ATOM     14  C   UNL     1      98.947 128.944  83.281  0.00  0.00    +0.000 A 
ATOM     15  C   UNL     1      98.641 127.734  82.657  0.00  0.00    +0.000 A 
ATOM     16  C   UNL     1      99.648 126.798  82.412  0.00  0.00    +0.000 A 
ENDBRANCH  10  11
ENDBRANCH   5   9
TORSDOF 2
ENDMDL
