MODEL 1
REMARK VINA RESULT:      -4.6      0.000      0.000
REMARK  Name = *****
REMARK  4 active torsions:
REMARK  status: ('A' for Active; 'I' for Inactive)
REMARK    1  A    between atoms: C_2  and  C_3
REMARK    2  A    between atoms: C_6  and  C_9
REMARK    3  A    between atoms: C_9  and  C_10
REMARK    4  A    between atoms: C_10  and  C_11
REMARK                            x       y       z     vdW  Elec       q    Type
REMARK                         _______ _______ _______ _____ _____    ______ ____
ROOT
ATOM      1  C   UNL     1      89.607  67.105  86.459  0.00  0.00    +0.000 A 
ATOM      2  C   UNL     1      89.801  68.486  86.515  0.00  0.00    +0.000 A 
ATOM      3  C   UNL     1      88.867  69.300  87.161  0.00  0.00    +0.000 A 
ATOM      4  C   UNL     1      87.730  68.739  87.758  0.00  0.00    +0.000 A 
ATOM      5  C   UNL     1      87.540  67.352  87.693  0.00  0.00    +0.000 A 
ATOM      6  C   UNL     1      88.476  66.539  87.049  0.00  0.00    +0.000 A 
ENDROOT
BRANCH   1   8
ATOM      7  C   UNL     1      91.368  65.573  85.244  0.00  0.00    +0.000 C 
ATOM      8  C   UNL     1      90.565  66.272  85.798  0.00  0.00    +0.000 C 
ENDBRANCH   1   8
BRANCH   4   9
ATOM      9  C   UNL     1      86.710  69.620  88.438  0.00  0.00    +0.000 C 
BRANCH   9  10
ATOM     10  C   UNL     1      86.946  71.101  88.127  0.00  0.00    +0.000 C 
BRANCH  10  11
ATOM     11  C   UNL     1      85.939  71.627  87.133  0.00  0.00    +0.000 A 
ATOM     12  C   UNL     1      86.210  71.589  85.759  0.00  0.00    +0.000 A 
ATOM     13  C   UNL     1      85.287  72.094  84.842  0.00  0.00    +0.000 A 
ATOM     14  C   UNL     1      84.087  72.642  85.290  0.00  0.00    +0.000 A 
ATOM     15  C   UNL     1      83.809  72.688  86.655  0.00  0.00    +0.000 A 
ATOM     16  C   UNL     1      84.732  72.185  87.574  0.00  0.00    +0.000 A 
ENDBRANCH  10  11
ENDBRANCH   9  10
ENDBRANCH   4   9
TORSDOF 4
ENDMDL
