MODEL 1
REMARK VINA RESULT:      -4.6      0.000      0.000
REMARK  Name = *****
REMARK  2 active torsions:
REMARK  status: ('A' for Active; 'I' for Inactive)
REMARK    1  A    between atoms: C_1  and  C_2
REMARK    2  A    between atoms: C_7  and  N_8
REMARK                            x       y       z     vdW  Elec       q    Type
REMARK                         _______ _______ _______ _____ _____    ______ ____
ROOT
ATOM      1  N   UNL     1     102.349 127.100  83.007  0.00  0.00    +0.000 N 
ATOM      2  C   UNL     1     102.478 126.788  81.575  0.00  0.00    +0.000 C 
ATOM      3  C   UNL     1     103.302 125.540  81.501  0.00  0.00    +0.000 A 
ATOM      4  C   UNL     1     103.908 125.001  80.373  0.00  0.00    +0.000 A 
ATOM      5  C   UNL     1     104.644 123.822  80.505  0.00  0.00    +0.000 A 
ATOM      6  C   UNL     1     104.766 123.194  81.754  0.00  0.00    +0.000 A 
ATOM      7  C   UNL     1     104.147 123.737  82.881  0.00  0.00    +0.000 A 
ATOM      8  C   UNL     1     103.414 124.905  82.735  0.00  0.00    +0.000 A 
ATOM      9  S   UNL     1     102.517 125.750  84.029  0.00  0.00    +0.000 S 
ATOM     10  O   UNL     1     103.526 126.023  85.103  0.00  0.00    +0.000 OA
ENDROOT
BRANCH   1  17
ATOM     11  C   UNL     1     103.088 129.561  84.316  0.00  0.00    +0.000 C 
ATOM     12  C   UNL     1     101.662 129.238  83.958  0.00  0.00    +0.000 A 
ATOM     13  C   UNL     1     100.645 130.148  84.290  0.00  0.00    +0.000 A 
ATOM     14  C   UNL     1      99.312 129.864  83.996  0.00  0.00    +0.000 A 
ATOM     15  C   UNL     1      98.978 128.665  83.377  0.00  0.00    +0.000 A 
ATOM     16  C   UNL     1      99.979 127.748  83.050  0.00  0.00    +0.000 A 
ATOM     17  C   UNL     1     101.330 128.019  83.331  0.00  0.00    +0.000 A 
ENDBRANCH   1  17
TORSDOF 1
ENDMDL
