REMARK  Name = *****
REMARK  5 active torsions:
REMARK  status: ('A' for Active; 'I' for Inactive)
REMARK    1  A    between atoms: C_1  and  C_2
REMARK    2  A    between atoms: C_4  and  C_11
REMARK    3  A    between atoms: C_9  and  C_10
REMARK    4  A    between atoms: C_11  and  S_12
REMARK    5  A    between atoms: S_12  and  C_13
REMARK                            x       y       z     vdW  Elec       q    Type
REMARK                         _______ _______ _______ _____ _____    ______ ____
ROOT
ATOM      1  C   UNL     1       2.404  -0.172   1.564  0.00  0.00    +0.000 C 
ATOM      2  C   UNL     1       2.407  -0.071   0.034  0.00  0.00    +0.000 C 
ATOM      3  C   UNL     1       3.040   1.231  -0.478  0.00  0.00    +0.000 C 
ATOM      4  C   UNL     1       4.562   1.431  -0.408  0.00  0.00    +0.000 C 
ATOM      5  C   UNL     1       5.312   0.594  -1.421  0.00  0.00    +0.000 C 
ATOM      6  O   UNL     1       5.978   1.131  -2.306  0.00  0.00    +0.000 OA
ATOM      7  O   UNL     1       5.241  -0.749  -1.372  0.00  0.00    +0.000 OA
ATOM      8  C   UNL     1       4.457  -1.538  -0.465  0.00  0.00    +0.000 C 
ATOM      9  C   UNL     1       2.947  -1.358  -0.624  0.00  0.00    +0.000 C 
ATOM     10  C   UNL     1       2.529  -1.459  -2.096  0.00  0.00    +0.000 C 
ENDROOT
BRANCH   4  11
ATOM     11  C   UNL     1       5.183   1.413   0.989  0.00  0.00    +0.000 C 
BRANCH  11  12
ATOM     12  S   UNL     1       6.758   2.348   1.054  0.00  0.00    +0.000 S 
BRANCH  12  13
ATOM     13  C   UNL     1       7.289   1.948   2.709  0.00  0.00    +0.000 A 
ATOM     14  C   UNL     1       8.538   1.348   2.894  0.00  0.00    +0.000 A 
ATOM     15  C   UNL     1       8.985   1.031   4.179  0.00  0.00    +0.000 A 
ATOM     16  C   UNL     1       8.190   1.320   5.286  0.00  0.00    +0.000 A 
ATOM     17  C   UNL     1       6.950   1.932   5.110  0.00  0.00    +0.000 A 
ATOM     18  C   UNL     1       6.502   2.249   3.825  0.00  0.00    +0.000 A 
ENDBRANCH  12  13
ENDBRANCH  11  12
ENDBRANCH   4  11
TORSDOF 3
