MODEL 1
REMARK VINA RESULT:      -4.5      0.000      0.000
REMARK  Name = *****
REMARK  5 active torsions:
REMARK  status: ('A' for Active; 'I' for Inactive)
REMARK    1  A    between atoms: C_1  and  C_2
REMARK    2  A    between atoms: C_5  and  S_8
REMARK    3  A    between atoms: S_8  and  N_10
REMARK    4  A    between atoms: N_10  and  C_11
REMARK    5  A    between atoms: N_10  and  C_12
REMARK                            x       y       z     vdW  Elec       q    Type
REMARK                         _______ _______ _______ _____ _____    ______ ____
ROOT
ATOM      1  S   UNL     1      87.264  62.988  87.720  0.00  0.00    +0.000 S 
ATOM      2  O   UNL     1      85.887  62.390  87.713  0.00  0.00    +0.000 OA
ENDROOT
BRANCH   1   7
ATOM      3  C   UNL     1      88.232  64.718  93.533  0.00  0.00    +0.000 C 
ATOM      4  C   UNL     1      87.982  64.309  92.111  0.00  0.00    +0.000 A 
ATOM      5  C   UNL     1      86.679  64.125  91.633  0.00  0.00    +0.000 A 
ATOM      6  C   UNL     1      86.458  63.722  90.312  0.00  0.00    +0.000 A 
ATOM      7  C   UNL     1      87.538  63.483  89.454  0.00  0.00    +0.000 A 
ATOM      8  C   UNL     1      88.840  63.667  89.934  0.00  0.00    +0.000 A 
ATOM      9  C   UNL     1      89.061  64.070  91.254  0.00  0.00    +0.000 A 
ENDBRANCH   1   7
BRANCH   1  10
ATOM     10  N   UNL     1      87.198  64.593  87.135  0.00  0.00    +0.000 N 
ATOM     11  C   UNL     1      86.004  64.898  86.338  0.00  0.00    +0.000 C 
BRANCH  10  12
ATOM     12  C   UNL     1      88.428  65.110  86.644  0.00  0.00    +0.000 A 
ATOM     13  C   UNL     1      88.797  66.460  86.748  0.00  0.00    +0.000 A 
ATOM     14  C   UNL     1      90.015  66.910  86.242  0.00  0.00    +0.000 A 
ATOM     15  C   UNL     1      90.907  66.043  85.629  0.00  0.00    +0.000 A 
ATOM     16  C   UNL     1      90.576  64.698  85.522  0.00  0.00    +0.000 A 
ATOM     17  C   UNL     1      89.351  64.240  86.025  0.00  0.00    +0.000 A 
ATOM     18  F   UNL     1      90.329  68.209  86.346  0.00  0.00    +0.000 F 
ENDBRANCH  10  12
ENDBRANCH   1  10
TORSDOF 3
ENDMDL
