REMARK  Name = *****
REMARK  2 active torsions:
REMARK  status: ('A' for Active; 'I' for Inactive)
REMARK    1  A    between atoms: C_2  and  C_9
REMARK    2  A    between atoms: C_3  and  C_4
REMARK                            x       y       z     vdW  Elec       q    Type
REMARK                         _______ _______ _______ _____ _____    ______ ____
ROOT
ATOM      1  C   UNL     1       0.129   0.871  -0.133  0.00  0.00    +0.000 C 
ATOM      2  C   UNL     1       0.818  -0.458  -0.070  0.00  0.00    +0.000 C 
ATOM      3  C   UNL     1      -0.706  -0.386  -0.084  0.00  0.00    +0.000 C 
ENDROOT
BRANCH   2   4
ATOM      4  C   UNL     1       1.538  -0.880   1.189  0.00  0.00    +0.000 A 
ATOM      5  C   UNL     1       1.229  -2.086   1.841  0.00  0.00    +0.000 A 
ATOM      6  C   UNL     1       1.906  -2.483   2.998  0.00  0.00    +0.000 A 
ATOM      7  C   UNL     1       2.916  -1.684   3.522  0.00  0.00    +0.000 A 
ATOM      8  C   UNL     1       3.252  -0.490   2.889  0.00  0.00    +0.000 A 
ATOM      9  C   UNL     1       2.570  -0.098   1.734  0.00  0.00    +0.000 A 
ENDBRANCH   2   4
BRANCH   3  10
ATOM     10  C   UNL     1      -1.417  -0.821  -1.352  0.00  0.00    +0.000 A 
ATOM     11  C   UNL     1      -2.645  -1.445  -1.403  0.00  0.00    +0.000 A 
ATOM     12  C   UNL     1      -2.923  -1.667  -2.774  0.00  0.00    +0.000 A 
ATOM     13  C   UNL     1      -1.849  -1.164  -3.468  0.00  0.00    +0.000 A 
ATOM     14  O   UNL     1      -0.930  -0.649  -2.613  0.00  0.00    +0.000 OA
ENDBRANCH   3  10
TORSDOF 2
