MODEL 1
REMARK VINA RESULT:      -4.6      0.000      0.000
REMARK  Name = *****
REMARK  3 active torsions:
REMARK  status: ('A' for Active; 'I' for Inactive)
REMARK    1  A    between atoms: C_4  and  C_7
REMARK    2  A    between atoms: C_7  and  C_8
REMARK    3  A    between atoms: C_8  and  C_12
REMARK                            x       y       z     vdW  Elec       q    Type
REMARK                         _______ _______ _______ _____ _____    ______ ____
ROOT
ATOM      1  C   UNL     1      99.931 127.648  83.429  0.00  0.00    +0.000 C 
ATOM      2  C   UNL     1      99.066 127.167  82.522  0.00  0.00    +0.000 C 
ATOM      3  F   UNL     1      97.887 127.784  82.288  0.00  0.00    +0.000 F 
ATOM      4  F   UNL     1      99.369 126.049  81.827  0.00  0.00    +0.000 F 
ENDROOT
BRANCH   1   5
ATOM      5  C   UNL     1      99.614 128.878  84.178  0.00  0.00    +0.000 A 
ATOM      6  C   UNL     1      99.750 130.135  83.570  0.00  0.00    +0.000 A 
ATOM      7  C   UNL     1      99.433 131.299  84.273  0.00  0.00    +0.000 A 
ATOM      8  C   UNL     1      98.980 131.221  85.587  0.00  0.00    +0.000 A 
ATOM      9  C   UNL     1      98.841 129.978  86.202  0.00  0.00    +0.000 A 
ATOM     10  C   UNL     1      99.157 128.811  85.501  0.00  0.00    +0.000 A 
ENDBRANCH   1   5
BRANCH   1  11
ATOM     11  C   UNL     1     101.267 126.996  83.683  0.00  0.00    +0.000 C 
BRANCH  11  15
ATOM     12  C   UNL     1     104.420 128.461  81.121  0.00  0.00    +0.000 A 
ATOM     13  C   UNL     1     103.589 127.429  80.686  0.00  0.00    +0.000 A 
ATOM     14  C   UNL     1     102.567 126.959  81.512  0.00  0.00    +0.000 A 
ATOM     15  C   UNL     1     102.361 127.524  82.779  0.00  0.00    +0.000 A 
ATOM     16  C   UNL     1     103.207 128.556  83.209  0.00  0.00    +0.000 A 
ATOM     17  C   UNL     1     104.229 129.023  82.382  0.00  0.00    +0.000 A 
ENDBRANCH  11  15
ENDBRANCH   1  11
TORSDOF 3
ENDMDL
