MODEL 1
REMARK VINA RESULT:      -4.7      0.000      0.000
REMARK  Name = *****
REMARK  3 active torsions:
REMARK  status: ('A' for Active; 'I' for Inactive)
REMARK    1  A    between atoms: C_4  and  C_7
REMARK    2  A    between atoms: C_7  and  C_8
REMARK    3  A    between atoms: C_8  and  C_10
REMARK                            x       y       z     vdW  Elec       q    Type
REMARK                         _______ _______ _______ _____ _____    ______ ____
ROOT
ATOM      1  C   UNL     1      88.827  70.148  86.617  0.00  0.00    +0.000 C 
ATOM      2  O   UNL     1      89.684  70.809  87.206  0.00  0.00    +0.000 OA
ENDROOT
BRANCH   1   3
ATOM      3  C   UNL     1      88.843  68.659  86.753  0.00  0.00    +0.000 A 
ATOM      4  C   UNL     1      87.808  67.942  87.364  0.00  0.00    +0.000 A 
ATOM      5  C   UNL     1      87.876  66.546  87.453  0.00  0.00    +0.000 A 
ATOM      6  C   UNL     1      88.977  65.866  86.934  0.00  0.00    +0.000 A 
ATOM      7  C   UNL     1      90.016  66.569  86.330  0.00  0.00    +0.000 A 
ATOM      8  C   UNL     1      89.949  67.962  86.242  0.00  0.00    +0.000 A 
ATOM      9 CL   UNL     1      89.052  64.152  87.041  0.00  0.00    +0.000 Cl
ENDBRANCH   1   3
BRANCH   1  10
ATOM     10  C   UNL     1      87.776  70.820  85.753  0.00  0.00    +0.000 C 
BRANCH  10  14
ATOM     11  C   UNL     1      84.349  72.360  87.881  0.00  0.00    +0.000 A 
ATOM     12  C   UNL     1      85.417  71.813  88.590  0.00  0.00    +0.000 A 
ATOM     13  C   UNL     1      86.524  71.306  87.908  0.00  0.00    +0.000 A 
ATOM     14  C   UNL     1      86.570  71.324  86.507  0.00  0.00    +0.000 A 
ATOM     15  C   UNL     1      85.497  71.896  85.806  0.00  0.00    +0.000 A 
ATOM     16  C   UNL     1      84.391  72.405  86.489  0.00  0.00    +0.000 A 
ENDBRANCH  10  14
ENDBRANCH   1  10
TORSDOF 3
ENDMDL
