MODEL 1
REMARK VINA RESULT:      -4.9      0.000      0.000
REMARK  Name = *****
REMARK  4 active torsions:
REMARK  status: ('A' for Active; 'I' for Inactive)
REMARK    1  A    between atoms: C_4  and  C_7
REMARK    2  A    between atoms: C_7  and  C_8
REMARK    3  A    between atoms: C_8  and  C_9
REMARK    4  A    between atoms: C_12  and  C_15
REMARK                            x       y       z     vdW  Elec       q    Type
REMARK                         _______ _______ _______ _____ _____    ______ ____
ROOT
ATOM      1  C   UNL     1      88.778  70.435  86.580  0.00  0.00    +0.000 C 
ATOM      2  F   UNL     1      90.012  70.976  86.838  0.00  0.00    +0.000 F 
ATOM      3  F   UNL     1      87.951  70.997  87.521  0.00  0.00    +0.000 F 
ENDROOT
BRANCH   1   4
ATOM      4  C   UNL     1      88.813  68.919  86.734  0.00  0.00    +0.000 A 
ATOM      5  C   UNL     1      89.924  68.183  86.291  0.00  0.00    +0.000 A 
ATOM      6  C   UNL     1      89.952  66.794  86.424  0.00  0.00    +0.000 A 
ATOM      7  C   UNL     1      88.869  66.128  87.003  0.00  0.00    +0.000 A 
ATOM      8  C   UNL     1      87.757  66.845  87.449  0.00  0.00    +0.000 A 
ATOM      9  C   UNL     1      87.730  68.236  87.315  0.00  0.00    +0.000 A 
BRANCH   7  10
ATOM     10  C   UNL     1      88.891  64.659  87.148  0.00  0.00    +0.000 C 
ATOM     11  O   UNL     1      88.544  64.101  88.182  0.00  0.00    +0.000 OA
ENDBRANCH   7  10
ENDBRANCH   1   4
BRANCH   1  12
ATOM     12  C   UNL     1      88.309  70.865  85.156  0.00  0.00    +0.000 C 
ATOM     13  F   UNL     1      87.291  71.780  85.277  0.00  0.00    +0.000 F 
ATOM     14  F   UNL     1      87.733  69.791  84.528  0.00  0.00    +0.000 F 
BRANCH  12  18
ATOM     15  C   UNL     1      91.547  72.474  82.780  0.00  0.00    +0.000 A 
ATOM     16  C   UNL     1      90.552  73.321  83.266  0.00  0.00    +0.000 A 
ATOM     17  C   UNL     1      89.509  72.803  84.036  0.00  0.00    +0.000 A 
ATOM     18  C   UNL     1      89.451  71.431  84.327  0.00  0.00    +0.000 A 
ATOM     19  C   UNL     1      90.461  70.590  83.833  0.00  0.00    +0.000 A 
ATOM     20  C   UNL     1      91.502  71.110  83.064  0.00  0.00    +0.000 A 
ENDBRANCH  12  18
ENDBRANCH   1  12
TORSDOF 4
ENDMDL
