REMARK  Name = *****
REMARK  3 active torsions:
REMARK  status: ('A' for Active; 'I' for Inactive)
REMARK    1  A    between atoms: C_3  and  O_9
REMARK    2  A    between atoms: O_9  and  C_10
REMARK    3  A    between atoms: C_10  and  C_12
REMARK                            x       y       z     vdW  Elec       q    Type
REMARK                         _______ _______ _______ _____ _____    ______ ____
ROOT
ATOM      1  C   UNL     1      -2.501   0.745   0.460  0.00  0.00    +0.000 A 
ATOM      2  C   UNL     1      -2.601  -0.625   0.686  0.00  0.00    +0.000 A 
ATOM      3  C   UNL     1      -1.534  -1.457   0.336  0.00  0.00    +0.000 A 
ATOM      4  C   UNL     1      -0.349  -0.940  -0.204  0.00  0.00    +0.000 A 
ATOM      5  C   UNL     1      -0.259   0.439  -0.426  0.00  0.00    +0.000 A 
ATOM      6  C   UNL     1      -1.334   1.275  -0.097  0.00  0.00    +0.000 A 
ATOM      7 CL   UNL     1       1.153   1.182  -1.091  0.00  0.00    +0.000 Cl
ATOM      8 CL   UNL     1       0.964  -2.011  -0.562  0.00  0.00    +0.000 Cl
ENDROOT
BRANCH   3   9
ATOM      9  O   UNL     1      -1.659  -2.825   0.604  0.00  0.00    +0.000 OA
BRANCH   9  10
ATOM     10  C   UNL     1      -2.174  -3.545  -0.475  0.00  0.00    +0.000 C 
ATOM     11  O   UNL     1      -2.563  -3.043  -1.525  0.00  0.00    +0.000 OA
BRANCH  10  12
ATOM     12  C   UNL     1      -2.187  -4.959  -0.140  0.00  0.00    +0.000 A 
ATOM     13  C   UNL     1      -1.730  -5.603   0.998  0.00  0.00    +0.000 A 
ATOM     14  C   UNL     1      -1.925  -7.014   0.945  0.00  0.00    +0.000 A 
ATOM     15  C   UNL     1      -2.524  -7.406  -0.230  0.00  0.00    +0.000 A 
ATOM     16  S   UNL     1      -2.846  -6.080  -1.259  0.00  0.00    +0.000 S 
ENDBRANCH  10  12
ENDBRANCH   9  10
ENDBRANCH   3   9
TORSDOF 3
