MODEL 1
REMARK VINA RESULT:      -4.4      0.000      0.000
REMARK  Name = *****
REMARK  6 active torsions:
REMARK  status: ('A' for Active; 'I' for Inactive)
REMARK    1  A    between atoms: C_1  and  O_2
REMARK    2  A    between atoms: O_2  and  C_3
REMARK    3  A    between atoms: C_8  and  C_9
REMARK    4  A    between atoms: C_9  and  S_11
REMARK    5  A    between atoms: S_11  and  C_12
REMARK    6  A    between atoms: C_12  and  C_13
REMARK                            x       y       z     vdW  Elec       q    Type
REMARK                         _______ _______ _______ _____ _____    ______ ____
ROOT
ATOM      1  C   UNL     1      89.935  66.866  85.960  0.00  0.00    +0.000 C 
ATOM      2  O   UNL     1      91.030  66.326  86.055  0.00  0.00    +0.000 OA
ENDROOT
BRANCH   1   8
ATOM      3  C   UNL     1      89.932  68.913  84.468  0.00  0.00    +0.000 A 
ATOM      4  C   UNL     1      89.815  70.304  84.356  0.00  0.00    +0.000 A 
ATOM      5  C   UNL     1      89.602  71.094  85.491  0.00  0.00    +0.000 A 
ATOM      6  C   UNL     1      89.489  70.505  86.747  0.00  0.00    +0.000 A 
ATOM      7  C   UNL     1      89.595  69.121  86.872  0.00  0.00    +0.000 A 
ATOM      8  C   UNL     1      89.831  68.326  85.740  0.00  0.00    +0.000 A 
BRANCH   3  10
ATOM      9  C   UNL     1      88.947  68.012  82.504  0.00  0.00    +0.000 C 
ATOM     10  O   UNL     1      90.060  68.079  83.389  0.00  0.00    +0.000 OA
ENDBRANCH   3  10
ENDBRANCH   1   8
BRANCH   1  11
ATOM     11  S   UNL     1      88.441  65.942  85.909  0.00  0.00    +0.000 S 
BRANCH  11  12
ATOM     12  C   UNL     1      88.956  64.560  86.965  0.00  0.00    +0.000 C 
BRANCH  12  13
ATOM     13  C   UNL     1      88.264  64.602  88.305  0.00  0.00    +0.000 A 
ATOM     14  C   UNL     1      88.669  63.755  89.346  0.00  0.00    +0.000 A 
ATOM     15  C   UNL     1      88.019  63.791  90.581  0.00  0.00    +0.000 A 
ATOM     16  C   UNL     1      86.956  64.669  90.786  0.00  0.00    +0.000 A 
ATOM     17  C   UNL     1      86.538  65.510  89.757  0.00  0.00    +0.000 A 
ATOM     18  C   UNL     1      87.186  65.475  88.520  0.00  0.00    +0.000 A 
ENDBRANCH  12  13
ENDBRANCH  11  12
ENDBRANCH   1  11
TORSDOF 5
ENDMDL
