MODEL 1
REMARK VINA RESULT:      -3.9      0.000      0.000
REMARK  Name = *****
REMARK  3 active torsions:
REMARK  status: ('A' for Active; 'I' for Inactive)
REMARK    1  A    between atoms: C_4  and  C_7
REMARK    2  A    between atoms: C_7  and  C_8
REMARK    3  A    between atoms: C_8  and  C_9
REMARK                            x       y       z     vdW  Elec       q    Type
REMARK                         _______ _______ _______ _____ _____    ______ ____
ROOT
ATOM      1  C   UNL     1     102.237 126.894  81.915  0.00  0.00    +0.000 C 
ENDROOT
BRANCH   1   2
ATOM      2  C   UNL     1     103.117 125.686  81.692  0.00  0.00    +0.000 A 
ATOM      3  C   UNL     1     103.444 124.838  82.758  0.00  0.00    +0.000 A 
ATOM      4  C   UNL     1     104.274 123.734  82.555  0.00  0.00    +0.000 A 
ATOM      5  C   UNL     1     104.782 123.476  81.285  0.00  0.00    +0.000 A 
ATOM      6  C   UNL     1     104.471 124.314  80.215  0.00  0.00    +0.000 A 
ATOM      7  C   UNL     1     103.642 125.417  80.420  0.00  0.00    +0.000 A 
ATOM      8 BR   UNL     1     105.907 121.981  81.010  0.00  0.00    +0.000 Br
ENDBRANCH   1   2
BRANCH   1   9
ATOM      9  C   UNL     1     100.882 126.493  82.514  0.00  0.00    +0.000 C 
BRANCH   9  13
ATOM     10  C   UNL     1      97.860 126.200  84.920  0.00  0.00    +0.000 C 
ATOM     11  C   UNL     1      97.717 126.403  83.418  0.00  0.00    +0.000 C 
ATOM     12  S   UNL     1      98.507 127.926  82.828  0.00  0.00    +0.000 S 
ATOM     13  C   UNL     1     100.234 127.621  83.331  0.00  0.00    +0.000 C 
ATOM     14  S   UNL     1     100.357 127.423  85.140  0.00  0.00    +0.000 S 
ATOM     15  C   UNL     1      99.292 125.973  85.384  0.00  0.00    +0.000 C 
ENDBRANCH   9  13
ENDBRANCH   1   9
TORSDOF 3
ENDMDL
