REMARK  Name = *****
REMARK  4 active torsions:
REMARK  status: ('A' for Active; 'I' for Inactive)
REMARK    1  A    between atoms: C_1  and  C_2
REMARK    2  A    between atoms: C_4  and  N_8
REMARK    3  A    between atoms: C_9  and  C_10
REMARK    4  A    between atoms: C_13  and  C_16
REMARK                            x       y       z     vdW  Elec       q    Type
REMARK                         _______ _______ _______ _____ _____    ______ ____
ROOT
ATOM      1  C   UNL     1      -2.024   4.839   0.263  0.00  0.00    +0.000 A 
ATOM      2  C   UNL     1      -3.232   4.945  -0.430  0.00  0.00    +0.000 A 
ATOM      3  C   UNL     1      -3.886   6.177  -0.505  0.00  0.00    +0.000 A 
ATOM      4  C   UNL     1      -3.342   7.313   0.117  0.00  0.00    +0.000 A 
ATOM      5  C   UNL     1      -2.121   7.193   0.802  0.00  0.00    +0.000 A 
ATOM      6  C   UNL     1      -1.465   5.961   0.880  0.00  0.00    +0.000 A 
ENDROOT
BRANCH   4   7
ATOM      7  C   UNL     1      -4.039   8.649   0.013  0.00  0.00    +0.000 C 
ATOM      8  F   UNL     1      -5.396   8.542  -0.029  0.00  0.00    +0.000 F 
ATOM      9  F   UNL     1      -3.764   9.477   1.060  0.00  0.00    +0.000 F 
ATOM     10  F   UNL     1      -3.681   9.333  -1.108  0.00  0.00    +0.000 F 
ENDBRANCH   4   7
BRANCH   1  12
ATOM     11  N   UNL     1      -1.773   2.474  -0.207  0.00  0.00    +0.000 NA
ATOM     12  C   UNL     1      -1.315   3.548   0.356  0.00  0.00    +0.000 C 
BRANCH  11  16
ATOM     13  C   UNL     1       1.963  -0.408  -1.698  0.00  0.00    +0.000 C 
ATOM     14  C   UNL     1       0.846  -0.108  -0.743  0.00  0.00    +0.000 A 
ATOM     15  C   UNL     1       0.067   1.045  -0.905  0.00  0.00    +0.000 A 
ATOM     16  C   UNL     1      -0.996   1.320  -0.038  0.00  0.00    +0.000 A 
ATOM     17  C   UNL     1      -1.304   0.412   0.976  0.00  0.00    +0.000 A 
ATOM     18  C   UNL     1      -0.545  -0.748   1.138  0.00  0.00    +0.000 A 
ATOM     19  C   UNL     1       0.525  -1.008   0.280  0.00  0.00    +0.000 A 
ENDBRANCH  11  16
ENDBRANCH   1  12
TORSDOF 3
