MODEL 1
REMARK VINA RESULT:      -4.9      0.000      0.000
REMARK  Name = *****
REMARK  5 active torsions:
REMARK  status: ('A' for Active; 'I' for Inactive)
REMARK    1  A    between atoms: C_1  and  C_2
REMARK    2  A    between atoms: C_7  and  C_8
REMARK    3  A    between atoms: C_9  and  C_10
REMARK    4  A    between atoms: C_9  and  C_12
REMARK    5  A    between atoms: C_17  and  C_18
REMARK                            x       y       z     vdW  Elec       q    Type
REMARK                         _______ _______ _______ _____ _____    ______ ____
ROOT
ATOM      1  C   UNL     1     102.905 126.749  81.160  0.00  0.00    +0.000 C 
ATOM      2  C   UNL     1     102.326 126.472  82.344  0.00  0.00    +0.000 C 
ENDROOT
BRANCH   1   9
ATOM      3  C   UNL     1     105.389 128.300  80.700  0.00  0.00    +0.000 C 
ATOM      4  C   UNL     1     105.301 126.824  80.418  0.00  0.00    +0.000 A 
ATOM      5  C   UNL     1     106.429 126.154  79.917  0.00  0.00    +0.000 A 
ATOM      6  C   UNL     1     106.383 124.789  79.634  0.00  0.00    +0.000 A 
ATOM      7  C   UNL     1     105.209 124.075  79.848  0.00  0.00    +0.000 A 
ATOM      8  C   UNL     1     104.079 124.725  80.346  0.00  0.00    +0.000 A 
ATOM      9  C   UNL     1     104.112 126.099  80.627  0.00  0.00    +0.000 A 
ENDBRANCH   1   9
BRANCH   2  10
ATOM     10  C   UNL     1     101.107 127.220  82.711  0.00  0.00    +0.000 A 
ATOM     11  C   UNL     1      99.860 126.693  82.332  0.00  0.00    +0.000 A 
ATOM     12  C   UNL     1      98.678 127.359  82.652  0.00  0.00    +0.000 A 
ATOM     13  C   UNL     1      98.726 128.559  83.353  0.00  0.00    +0.000 A 
ATOM     14  C   UNL     1      99.956 129.094  83.738  0.00  0.00    +0.000 A 
ATOM     15  C   UNL     1     101.157 128.433  83.432  0.00  0.00    +0.000 A 
ATOM     16  C   UNL     1     102.459 129.056  83.859  0.00  0.00    +0.000 C 
ENDBRANCH   2  10
BRANCH   2  17
ATOM     17  C   UNL     1     102.827 125.484  83.249  0.00  0.00    +0.000 C 
ATOM     18  N   UNL     1     103.217 124.677  83.986  0.00  0.00    +0.000 NA
ENDBRANCH   2  17
TORSDOF 3
ENDMDL
