REMARK  Name = *****
REMARK  3 active torsions:
REMARK  status: ('A' for Active; 'I' for Inactive)
REMARK    1  A    between atoms: C_6  and  C_8
REMARK    2  A    between atoms: C_8  and  C_9
REMARK    3  A    between atoms: C_9  and  C_10
REMARK                            x       y       z     vdW  Elec       q    Type
REMARK                         _______ _______ _______ _____ _____    ______ ____
ROOT
ATOM      1  C   UNL     1       2.012   2.345  -0.099  0.00  0.00    +0.000 C 
ENDROOT
BRANCH   1   7
ATOM      2  C   UNL     1      -2.327   0.139   0.360  0.00  0.00    +0.000 C 
ATOM      3  C   UNL     1      -1.083   0.031  -0.133  0.00  0.00    +0.000 C 
ATOM      4  C   UNL     1      -0.432  -1.299  -0.407  0.00  0.00    +0.000 C 
ATOM      5  C   UNL     1       0.909  -1.395   0.317  0.00  0.00    +0.000 C 
ATOM      6  C   UNL     1       1.821  -0.206  -0.000  0.00  0.00    +0.000 C 
ATOM      7  C   UNL     1       1.134   1.142   0.296  0.00  0.00    +0.000 C 
ATOM      8  C   UNL     1      -0.221   1.230  -0.435  0.00  0.00    +0.000 C 
ENDBRANCH   1   7
BRANCH   1   9
ATOM      9  C   UNL     1       3.308   2.446   0.713  0.00  0.00    +0.000 C 
BRANCH   9  10
ATOM     10  C   UNL     1       4.074   3.702   0.377  0.00  0.00    +0.000 A 
ATOM     11  C   UNL     1       3.855   4.883   1.099  0.00  0.00    +0.000 A 
ATOM     12  C   UNL     1       4.551   6.049   0.776  0.00  0.00    +0.000 A 
ATOM     13  C   UNL     1       5.469   6.046  -0.273  0.00  0.00    +0.000 A 
ATOM     14  C   UNL     1       5.689   4.879  -1.002  0.00  0.00    +0.000 A 
ATOM     15  C   UNL     1       4.994   3.712  -0.680  0.00  0.00    +0.000 A 
ENDBRANCH   9  10
ENDBRANCH   1   9
TORSDOF 3
