REMARK  Name = *****
REMARK  4 active torsions:
REMARK  status: ('A' for Active; 'I' for Inactive)
REMARK    1  A    between atoms: C_5  and  C_7
REMARK    2  A    between atoms: C_7  and  O_9
REMARK    3  A    between atoms: O_9  and  C_10
REMARK    4  A    between atoms: C_10  and  C_11
REMARK                            x       y       z     vdW  Elec       q    Type
REMARK                         _______ _______ _______ _____ _____    ______ ____
ROOT
ATOM      1  C   UNL     1       0.976  -2.599  -0.210  0.00  0.00    +0.000 C 
ATOM      2  O   UNL     1       0.404  -3.604  -0.607  0.00  0.00    +0.000 OA
ENDROOT
BRANCH   1   7
ATOM      3  C   UNL     1      -1.775  -0.030  -0.092  0.00  0.00    +0.000 A 
ATOM      4  C   UNL     1      -1.062   1.165  -0.003  0.00  0.00    +0.000 A 
ATOM      5  C   UNL     1       0.332   1.141   0.014  0.00  0.00    +0.000 A 
ATOM      6  C   UNL     1       1.012  -0.075  -0.053  0.00  0.00    +0.000 A 
ATOM      7  C   UNL     1       0.310  -1.279  -0.131  0.00  0.00    +0.000 A 
ATOM      8  C   UNL     1      -1.094  -1.248  -0.160  0.00  0.00    +0.000 A 
ATOM      9  F   UNL     1       2.352  -0.038  -0.059  0.00  0.00    +0.000 F 
ENDBRANCH   1   7
BRANCH   1  10
ATOM     10  O   UNL     1       2.241  -2.536   0.260  0.00  0.00    +0.000 OA
BRANCH  10  11
ATOM     11  C   UNL     1       2.990  -3.755   0.204  0.00  0.00    +0.000 C 
BRANCH  11  12
ATOM     12  C   UNL     1       3.805  -3.787  -1.064  0.00  0.00    +0.000 A 
ATOM     13  C   UNL     1       4.991  -3.044  -1.164  0.00  0.00    +0.000 A 
ATOM     14  C   UNL     1       5.734  -3.057  -2.345  0.00  0.00    +0.000 A 
ATOM     15  C   UNL     1       5.287  -3.805  -3.428  0.00  0.00    +0.000 A 
ATOM     16  C   UNL     1       4.108  -4.536  -3.354  0.00  0.00    +0.000 A 
ATOM     17  C   UNL     1       3.363  -4.525  -2.173  0.00  0.00    +0.000 A 
ATOM     18  F   UNL     1       6.000  -3.815  -4.562  0.00  0.00    +0.000 F 
ENDBRANCH  11  12
ENDBRANCH  10  11
ENDBRANCH   1  10
TORSDOF 4
