MODEL 1
REMARK VINA RESULT:      -5.0      0.000      0.000
REMARK  Name = *****
REMARK  5 active torsions:
REMARK  status: ('A' for Active; 'I' for Inactive)
REMARK    1  A    between atoms: C_1  and  C_2
REMARK    2  A    between atoms: C_4  and  C_18
REMARK    3  A    between atoms: C_6  and  C_9
REMARK    4  A    between atoms: C_6  and  C_10
REMARK    5  A    between atoms: C_11  and  C_12
REMARK                            x       y       z     vdW  Elec       q    Type
REMARK                         _______ _______ _______ _____ _____    ______ ____
ROOT
ATOM      1  C   UNL     1      85.424  71.519  85.084  0.00  0.00    +0.000 C 
ATOM      2  C   UNL     1      86.881  71.289  85.333  0.00  0.00    +0.000 C 
ATOM      3  C   UNL     1      87.856  71.811  84.576  0.00  0.00    +0.000 C 
ATOM      4  C   UNL     1      89.264  71.595  84.812  0.00  0.00    +0.000 C 
ATOM      5  C   UNL     1      89.671  70.816  85.827  0.00  0.00    +0.000 C 
ATOM      6  C   UNL     1      88.734  70.116  86.789  0.00  0.00    +0.000 C 
ATOM      7  C   UNL     1      87.238  70.421  86.501  0.00  0.00    +0.000 C 
ATOM      8  O   UNL     1      86.329  69.971  87.204  0.00  0.00    +0.000 OA
ATOM      9  C   UNL     1      89.030  70.645  88.205  0.00  0.00    +0.000 C 
ATOM     10  C   UNL     1      90.225  72.272  83.876  0.00  0.00    +0.000 C 
ENDROOT
BRANCH   6  11
ATOM     11  C   UNL     1      88.911  68.611  86.621  0.00  0.00    +0.000 C 
ATOM     12  C   UNL     1      90.022  67.958  86.235  0.00  0.00    +0.000 C 
BRANCH  12  13
ATOM     13  C   UNL     1      90.104  66.496  86.110  0.00  0.00    +0.000 A 
ATOM     14  C   UNL     1      89.119  65.646  86.628  0.00  0.00    +0.000 A 
ATOM     15  C   UNL     1      89.216  64.262  86.459  0.00  0.00    +0.000 A 
ATOM     16  C   UNL     1      90.292  63.716  85.762  0.00  0.00    +0.000 A 
ATOM     17  C   UNL     1      91.270  64.553  85.230  0.00  0.00    +0.000 A 
ATOM     18  C   UNL     1      91.174  65.936  85.397  0.00  0.00    +0.000 A 
ENDBRANCH  12  13
ENDBRANCH   6  11
TORSDOF 2
ENDMDL
