REMARK  Name = *****
REMARK  4 active torsions:
REMARK  status: ('A' for Active; 'I' for Inactive)
REMARK    1  A    between atoms: C_1  and  N_2
REMARK    2  A    between atoms: N_2  and  C_3
REMARK    3  A    between atoms: C_10  and  C_12
REMARK    4  A    between atoms: C_17  and  S_18
REMARK                            x       y       z     vdW  Elec       q    Type
REMARK                         _______ _______ _______ _____ _____    ______ ____
ROOT
ATOM      1  C   UNL     1       1.192   0.155  -0.797  0.00  0.00    +0.000 C 
ATOM      2  N   UNL     1       2.584   0.062  -0.365  0.00  0.00    +0.000 N 
ATOM      3  C   UNL     1       3.332  -1.017  -0.868  0.00  0.00    +0.000 C 
ATOM      4  O   UNL     1       2.825  -1.986  -1.434  0.00  0.00    +0.000 OA
ENDROOT
BRANCH   2   5
ATOM      5  C   UNL     1       3.046   1.029   0.584  0.00  0.00    +0.000 A 
ATOM      6  C   UNL     1       2.528   2.334   0.580  0.00  0.00    +0.000 A 
ATOM      7  C   UNL     1       2.968   3.289   1.504  0.00  0.00    +0.000 A 
ATOM      8  C   UNL     1       3.920   2.943   2.457  0.00  0.00    +0.000 A 
ATOM      9  C   UNL     1       4.426   1.649   2.499  0.00  0.00    +0.000 A 
ATOM     10  C   UNL     1       3.985   0.697   1.572  0.00  0.00    +0.000 A 
ATOM     11 CL   UNL     1       4.462   4.115   3.592  0.00  0.00    +0.000 Cl
ENDBRANCH   2   5
BRANCH   3  12
ATOM     12  C   UNL     1       4.817  -0.958  -0.862  0.00  0.00    +0.000 A 
ATOM     13  C   UNL     1       5.440   0.169  -1.425  0.00  0.00    +0.000 A 
ATOM     14  C   UNL     1       6.831   0.257  -1.462  0.00  0.00    +0.000 A 
ATOM     15  C   UNL     1       7.605  -0.783  -0.954  0.00  0.00    +0.000 A 
ATOM     16  C   UNL     1       6.990  -1.917  -0.416  0.00  0.00    +0.000 A 
ATOM     17  C   UNL     1       5.592  -2.025  -0.374  0.00  0.00    +0.000 A 
BRANCH  17  18
ATOM     18  S   UNL     1       4.908  -3.504   0.363  0.00  0.00    +0.000 S 
ATOM     19  H   UNL     1       3.550  -3.445   0.321  0.00  0.00    +0.000 HD
ENDBRANCH  17  18
ENDBRANCH   3  12
TORSDOF 3
