MODEL 1
REMARK VINA RESULT:      -4.4      0.000      0.000
REMARK  Name = *****
REMARK  4 active torsions:
REMARK  status: ('A' for Active; 'I' for Inactive)
REMARK    1  A    between atoms: C_4  and  S_7
REMARK    2  A    between atoms: S_7  and  C_8
REMARK    3  A    between atoms: C_8  and  C_9
REMARK    4  A    between atoms: C_14  and  C_15
REMARK                            x       y       z     vdW  Elec       q    Type
REMARK                         _______ _______ _______ _____ _____    ______ ____
ROOT
ATOM      1  C   UNL     1      86.672  71.194  87.305  0.00  0.00    +0.000 A 
ATOM      2  C   UNL     1      85.791  71.698  86.328  0.00  0.00    +0.000 A 
ATOM      3  C   UNL     1      84.588  72.316  86.681  0.00  0.00    +0.000 A 
ATOM      4  C   UNL     1      84.246  72.467  88.019  0.00  0.00    +0.000 A 
ATOM      5  C   UNL     1      85.116  72.016  89.009  0.00  0.00    +0.000 A 
ATOM      6  C   UNL     1      86.328  71.393  88.662  0.00  0.00    +0.000 A 
ENDROOT
BRANCH   6   7
ATOM      7  C   UNL     1      87.250  71.007  89.772  0.00  0.00    +0.000 C 
ATOM      8  O   UNL     1      87.025  69.944  90.347  0.00  0.00    +0.000 OA
ATOM      9 CL   UNL     1      88.576  72.074  90.172  0.00  0.00    +0.000 Cl
ENDBRANCH   6   7
BRANCH   1  10
ATOM     10  C   UNL     1      87.978  70.528  86.905  0.00  0.00    +0.000 C 
BRANCH  10  11
ATOM     11  S   UNL     1      87.999  69.855  85.203  0.00  0.00    +0.000 S 
BRANCH  11  15
ATOM     12  C   UNL     1      90.790  72.936  83.286  0.00  0.00    +0.000 A 
ATOM     13  C   UNL     1      91.269  71.669  83.616  0.00  0.00    +0.000 A 
ATOM     14  C   UNL     1      90.415  70.730  84.197  0.00  0.00    +0.000 A 
ATOM     15  C   UNL     1      89.081  71.056  84.455  0.00  0.00    +0.000 A 
ATOM     16  C   UNL     1      88.602  72.324  84.112  0.00  0.00    +0.000 A 
ATOM     17  C   UNL     1      89.457  73.263  83.530  0.00  0.00    +0.000 A 
ENDBRANCH  11  15
ENDBRANCH  10  11
ENDBRANCH   1  10
TORSDOF 4
ENDMDL
