MODEL 1
REMARK VINA RESULT:      -4.3      0.000      0.000
REMARK  Name = *****
REMARK  6 active torsions:
REMARK  status: ('A' for Active; 'I' for Inactive)
REMARK    1  A    between atoms: C_1  and  C_2
REMARK    2  A    between atoms: C_7  and  C_8
REMARK    3  A    between atoms: C_8  and  S_10
REMARK    4  A    between atoms: S_10  and  C_11
REMARK    5  A    between atoms: C_16  and  C_17
REMARK    6  A    between atoms: C_17  and  C_19
REMARK                            x       y       z     vdW  Elec       q    Type
REMARK                         _______ _______ _______ _____ _____    ______ ____
ROOT
ATOM      1  S   UNL     1      88.661  68.427  84.646  0.00  0.00    +0.000 S 
ENDROOT
BRANCH   1   2
ATOM      2  C   UNL     1      89.119  70.111  84.257  0.00  0.00    +0.000 A 
ATOM      3  C   UNL     1      90.463  70.362  83.946  0.00  0.00    +0.000 A 
ATOM      4  C   UNL     1      90.907  71.661  83.682  0.00  0.00    +0.000 A 
ATOM      5  C   UNL     1      90.014  72.728  83.732  0.00  0.00    +0.000 A 
ATOM      6  C   UNL     1      88.673  72.496  84.032  0.00  0.00    +0.000 A 
ATOM      7  C   UNL     1      88.221  71.190  84.274  0.00  0.00    +0.000 A 
BRANCH   7   8
ATOM      8  C   UNL     1      86.774  71.037  84.547  0.00  0.00    +0.000 C 
ATOM      9  O   UNL     1      86.052  70.520  83.699  0.00  0.00    +0.000 OA
ATOM     10  C   UNL     1      86.253  71.455  85.895  0.00  0.00    +0.000 C 
ENDBRANCH   7   8
ENDBRANCH   1   2
BRANCH   1  11
ATOM     11  C   UNL     1      89.391  68.265  86.245  0.00  0.00    +0.000 C 
ATOM     12  O   UNL     1      90.398  67.601  86.439  0.00  0.00    +0.000 OA
BRANCH  11  19
ATOM     13  C   UNL     1      86.951  67.158  87.515  0.00  0.00    +0.000 C 
ATOM     14  C   UNL     1      87.552  68.468  87.946  0.00  0.00    +0.000 A 
ATOM     15  C   UNL     1      86.921  69.207  88.960  0.00  0.00    +0.000 A 
ATOM     16  C   UNL     1      87.437  70.435  89.378  0.00  0.00    +0.000 A 
ATOM     17  C   UNL     1      88.585  70.950  88.782  0.00  0.00    +0.000 A 
ATOM     18  C   UNL     1      89.222  70.236  87.767  0.00  0.00    +0.000 A 
ATOM     19  C   UNL     1      88.713  68.996  87.348  0.00  0.00    +0.000 A 
ENDBRANCH  11  19
ENDBRANCH   1  11
TORSDOF 4
ENDMDL
