MODEL 1
REMARK VINA RESULT:      -4.6      0.000      0.000
REMARK  Name = *****
REMARK  6 active torsions:
REMARK  status: ('A' for Active; 'I' for Inactive)
REMARK    1  A    between atoms: C_1  and  C_2
REMARK    2  A    between atoms: C_4  and  C_9
REMARK    3  A    between atoms: C_5  and  C_8
REMARK    4  A    between atoms: C_9  and  C_10
REMARK    5  A    between atoms: C_10  and  C_11
REMARK    6  A    between atoms: C_11  and  C_13
REMARK                            x       y       z     vdW  Elec       q    Type
REMARK                         _______ _______ _______ _____ _____    ______ ____
ROOT
ATOM      1  C   UNL     1      89.691  68.588  86.332  0.00  0.00    +0.000 C 
ENDROOT
BRANCH   1   2
ATOM      2  C   UNL     1      88.485  67.693  86.112  0.00  0.00    +0.000 C 
ATOM      3  O   UNL     1      87.844  67.709  85.061  0.00  0.00    +0.000 OA
BRANCH   2   4
ATOM      4  C   UNL     1      88.050  66.762  87.195  0.00  0.00    +0.000 A 
ATOM      5  C   UNL     1      86.972  67.024  88.045  0.00  0.00    +0.000 A 
ATOM      6  C   UNL     1      86.606  66.121  89.042  0.00  0.00    +0.000 A 
ATOM      7  C   UNL     1      87.327  64.945  89.192  0.00  0.00    +0.000 A 
ATOM      8  C   UNL     1      88.404  64.656  88.363  0.00  0.00    +0.000 A 
ATOM      9  C   UNL     1      88.767  65.564  87.365  0.00  0.00    +0.000 A 
ATOM     10  F   UNL     1      86.979  64.076  90.149  0.00  0.00    +0.000 F 
ATOM     11  F   UNL     1      86.249  68.146  87.936  0.00  0.00    +0.000 F 
ENDBRANCH   2   4
ENDBRANCH   1   2
BRANCH   1  12
ATOM     12  C   UNL     1      89.324  70.072  86.234  0.00  0.00    +0.000 C 
BRANCH  12  16
ATOM     13  C   UNL     1      87.627  71.069  90.916  0.00  0.00    +0.000 C 
ATOM     14  C   UNL     1      87.408  71.050  89.432  0.00  0.00    +0.000 A 
ATOM     15  C   UNL     1      88.412  70.583  88.571  0.00  0.00    +0.000 A 
ATOM     16  C   UNL     1      88.245  70.584  87.174  0.00  0.00    +0.000 A 
ATOM     17  C   UNL     1      87.034  71.084  86.641  0.00  0.00    +0.000 A 
ATOM     18  C   UNL     1      86.040  71.563  87.507  0.00  0.00    +0.000 A 
ATOM     19  C   UNL     1      86.226  71.552  88.889  0.00  0.00    +0.000 A 
ATOM     20  C   UNL     1      86.779  71.120  85.156  0.00  0.00    +0.000 C 
ENDBRANCH  12  16
ENDBRANCH   1  12
TORSDOF 4
ENDMDL
