MODEL 1
REMARK VINA RESULT:      -4.9      0.000      0.000
REMARK  Name = *****
REMARK  2 active torsions:
REMARK  status: ('A' for Active; 'I' for Inactive)
REMARK    1  A    between atoms: C_1  and  C_2
REMARK    2  A    between atoms: C_5  and  C_8
REMARK                            x       y       z     vdW  Elec       q    Type
REMARK                         _______ _______ _______ _____ _____    ______ ____
ROOT
ATOM      1  C   UNL     1     102.744 126.211  81.800  0.00  0.00    +0.000 A 
ATOM      2  N   UNL     1     103.425 126.458  80.693  0.00  0.00    +0.000 NA
ATOM      3  C   UNL     1     104.229 125.358  80.547  0.00  0.00    +0.000 A 
ATOM      4  C   UNL     1     105.173 125.036  79.566  0.00  0.00    +0.000 A 
ATOM      5  C   UNL     1     105.846 123.816  79.695  0.00  0.00    +0.000 A 
ATOM      6  C   UNL     1     105.593 122.942  80.761  0.00  0.00    +0.000 A 
ATOM      7  C   UNL     1     104.652 123.253  81.749  0.00  0.00    +0.000 A 
ATOM      8  C   UNL     1     104.005 124.471  81.588  0.00  0.00    +0.000 A 
ATOM      9  O   UNL     1     103.051 125.012  82.397  0.00  0.00    +0.000 OA
ATOM     10 CL   UNL     1     106.449 121.450  80.877  0.00  0.00    +0.000 Cl
ATOM     11  F   UNL     1     106.754 123.494  78.761  0.00  0.00    +0.000 F 
ENDROOT
BRANCH   1  16
ATOM     12  C   UNL     1      98.799 129.508  84.457  0.00  0.00    +0.000 C 
ATOM     13  C   UNL     1      99.813 128.666  83.742  0.00  0.00    +0.000 A 
ATOM     14  C   UNL     1     101.172 128.990  83.797  0.00  0.00    +0.000 A 
ATOM     15  C   UNL     1     102.119 128.184  83.157  0.00  0.00    +0.000 A 
ATOM     16  C   UNL     1     101.730 127.032  82.458  0.00  0.00    +0.000 A 
ATOM     17  C   UNL     1     100.367 126.704  82.420  0.00  0.00    +0.000 A 
ATOM     18  C   UNL     1      99.420 127.510  83.059  0.00  0.00    +0.000 A 
ENDBRANCH   1  16
TORSDOF 1
ENDMDL
