REMARK  Name = *****
REMARK  4 active torsions:
REMARK  status: ('A' for Active; 'I' for Inactive)
REMARK    1  A    between atoms: C_4  and  C_7
REMARK    2  A    between atoms: C_7  and  S_8
REMARK    3  A    between atoms: S_8  and  C_9
REMARK    4  A    between atoms: C_13  and  C_15
REMARK                            x       y       z     vdW  Elec       q    Type
REMARK                         _______ _______ _______ _____ _____    ______ ____
ROOT
ATOM      1  S   UNL     1      -3.726  -1.176  -0.585  0.00  0.00    +0.000 S 
ENDROOT
BRANCH   1   2
ATOM      2  C   UNL     1      -5.451  -0.718  -0.704  0.00  0.00    +0.000 A 
ATOM      3  C   UNL     1      -6.354  -1.755  -0.982  0.00  0.00    +0.000 A 
ATOM      4  C   UNL     1      -7.724  -1.511  -1.096  0.00  0.00    +0.000 A 
ATOM      5  C   UNL     1      -8.214  -0.218  -0.933  0.00  0.00    +0.000 A 
ATOM      6  C   UNL     1      -7.330   0.828  -0.656  0.00  0.00    +0.000 A 
ATOM      7  C   UNL     1      -5.954   0.577  -0.543  0.00  0.00    +0.000 A 
BRANCH   6   8
ATOM      8  C   UNL     1      -7.829   2.162  -0.487  0.00  0.00    +0.000 C 
ATOM      9  N   UNL     1      -8.226   3.243  -0.349  0.00  0.00    +0.000 NA
ENDBRANCH   6   8
ENDBRANCH   1   2
BRANCH   1  10
ATOM     10  C   UNL     1      -2.880   0.392  -0.199  0.00  0.00    +0.000 C 
BRANCH  10  14
ATOM     11  C   UNL     1       1.369  -0.210   0.244  0.00  0.00    +0.000 A 
ATOM     12  C   UNL     1       0.835   0.089  -1.007  0.00  0.00    +0.000 A 
ATOM     13  C   UNL     1      -0.540   0.285  -1.152  0.00  0.00    +0.000 A 
ATOM     14  C   UNL     1      -1.393   0.189  -0.043  0.00  0.00    +0.000 A 
ATOM     15  C   UNL     1      -0.844  -0.123   1.210  0.00  0.00    +0.000 A 
ATOM     16  C   UNL     1       0.531  -0.318   1.352  0.00  0.00    +0.000 A 
ENDBRANCH  10  14
ENDBRANCH   1  10
TORSDOF 4
