MODEL 1
REMARK VINA RESULT:      -4.6      0.000      0.000
REMARK  Name = *****
REMARK  4 active torsions:
REMARK  status: ('A' for Active; 'I' for Inactive)
REMARK    1  A    between atoms: C_4  and  C_7
REMARK    2  A    between atoms: C_7  and  C_8
REMARK    3  A    between atoms: C_8  and  C_9
REMARK    4  A    between atoms: C_8  and  C_15
REMARK                            x       y       z     vdW  Elec       q    Type
REMARK                         _______ _______ _______ _____ _____    ______ ____
ROOT
ATOM      1  C   UNL     1      89.261  69.764  86.363  0.00  0.00    +0.000 C 
ENDROOT
BRANCH   1   2
ATOM      2  C   UNL     1      88.316  70.403  87.373  0.00  0.00    +0.000 A 
ATOM      3  C   UNL     1      87.057  70.890  86.990  0.00  0.00    +0.000 A 
ATOM      4  C   UNL     1      86.209  71.479  87.930  0.00  0.00    +0.000 A 
ATOM      5  C   UNL     1      86.609  71.592  89.258  0.00  0.00    +0.000 A 
ATOM      6  C   UNL     1      87.859  71.118  89.650  0.00  0.00    +0.000 A 
ATOM      7  C   UNL     1      88.709  70.527  88.714  0.00  0.00    +0.000 A 
ENDBRANCH   1   2
BRANCH   1   8
ATOM      8  C   UNL     1      89.393  68.260  86.606  0.00  0.00    +0.000 C 
ATOM      9  O   UNL     1      90.469  67.671  86.536  0.00  0.00    +0.000 OA
ATOM     10 CL   UNL     1      87.861  67.504  86.968  0.00  0.00    +0.000 Cl
ENDBRANCH   1   8
BRANCH   1  11
ATOM     11  C   UNL     1      88.831  70.016  84.902  0.00  0.00    +0.000 C 
BRANCH  11  15
ATOM     12  C   UNL     1      90.797  73.401  83.084  0.00  0.00    +0.000 A 
ATOM     13  C   UNL     1      89.456  73.489  83.455  0.00  0.00    +0.000 A 
ATOM     14  C   UNL     1      88.821  72.398  84.049  0.00  0.00    +0.000 A 
ATOM     15  C   UNL     1      89.526  71.208  84.281  0.00  0.00    +0.000 A 
ATOM     16  C   UNL     1      90.872  71.130  83.903  0.00  0.00    +0.000 A 
ATOM     17  C   UNL     1      91.504  72.222  83.307  0.00  0.00    +0.000 A 
ENDBRANCH  11  15
ENDBRANCH   1  11
TORSDOF 4
ENDMDL
