MODEL 1
REMARK VINA RESULT:      -4.5      0.000      0.000
REMARK  Name = *****
REMARK  4 active torsions:
REMARK  status: ('A' for Active; 'I' for Inactive)
REMARK    1  A    between atoms: C_1  and  C_2
REMARK    2  A    between atoms: C_7  and  O_8
REMARK    3  A    between atoms: O_8  and  C_9
REMARK    4  A    between atoms: C_9  and  C_11
REMARK                            x       y       z     vdW  Elec       q    Type
REMARK                         _______ _______ _______ _____ _____    ______ ____
ROOT
ATOM      1  O   UNL     1     102.410 125.857  81.469  0.00  0.00    +0.000 OA
ENDROOT
BRANCH   1   8
ATOM      2  C   UNL     1     104.094 128.210  80.997  0.00  0.00    +0.000 C 
ATOM      3  C   UNL     1     104.316 126.837  80.357  0.00  0.00    +0.000 C 
ATOM      4  C   UNL     1     105.795 126.653  79.992  0.00  0.00    +0.000 C 
ATOM      5  C   UNL     1     106.062 125.280  79.382  0.00  0.00    +0.000 C 
ATOM      6  C   UNL     1     105.577 124.157  80.292  0.00  0.00    +0.000 C 
ATOM      7  C   UNL     1     104.106 124.331  80.655  0.00  0.00    +0.000 C 
ATOM      8  C   UNL     1     103.831 125.703  81.282  0.00  0.00    +0.000 C 
ENDBRANCH   1   8
BRANCH   1   9
ATOM      9  C   UNL     1     101.977 125.905  82.754  0.00  0.00    +0.000 C 
ATOM     10  O   UNL     1     102.366 125.200  83.670  0.00  0.00    +0.000 OA
BRANCH   9  11
ATOM     11  C   UNL     1     100.934 126.956  82.911  0.00  0.00    +0.000 A 
ATOM     12  C   UNL     1     101.301 128.165  83.517  0.00  0.00    +0.000 A 
ATOM     13  C   UNL     1     100.360 129.183  83.686  0.00  0.00    +0.000 A 
ATOM     14  C   UNL     1      99.048 128.998  83.250  0.00  0.00    +0.000 A 
ATOM     15  C   UNL     1      98.676 127.799  82.645  0.00  0.00    +0.000 A 
ATOM     16  C   UNL     1      99.614 126.778  82.474  0.00  0.00    +0.000 A 
ENDBRANCH   9  11
ENDBRANCH   1   9
TORSDOF 3
ENDMDL
