MODEL 1
REMARK VINA RESULT:      -5.1      0.000      0.000
REMARK  Name = *****
REMARK  4 active torsions:
REMARK  status: ('A' for Active; 'I' for Inactive)
REMARK    1  A    between atoms: C_1  and  C_2
REMARK    2  A    between atoms: N_8  and  C_18
REMARK    3  A    between atoms: C_10  and  C_11
REMARK    4  A    between atoms: C_11  and  C_12
REMARK                            x       y       z     vdW  Elec       q    Type
REMARK                         _______ _______ _______ _____ _____    ______ ____
ROOT
ATOM      1  C   UNL     1      89.743  70.510  86.573  0.00  0.00    +0.000 C 
ATOM      2  C   UNL     1      89.236  69.111  86.802  0.00  0.00    +0.000 A 
ATOM      3  C   UNL     1      88.085  68.798  87.583  0.00  0.00    +0.000 A 
ATOM      4  C   UNL     1      87.706  67.451  87.699  0.00  0.00    +0.000 A 
ATOM      5  C   UNL     1      88.416  66.406  87.089  0.00  0.00    +0.000 A 
ATOM      6  C   UNL     1      89.540  66.727  86.334  0.00  0.00    +0.000 A 
ATOM      7  C   UNL     1      89.939  68.050  86.192  0.00  0.00    +0.000 A 
ATOM      8  N   UNL     1      86.574  67.409  88.483  0.00  0.00    +0.000 N 
ATOM      9  C   UNL     1      86.208  68.667  88.858  0.00  0.00    +0.000 A 
ATOM     10  C   UNL     1      87.129  69.567  88.350  0.00  0.00    +0.000 A 
ATOM     11  C   UNL     1      85.866  66.204  88.853  0.00  0.00    +0.000 C 
ENDROOT
BRANCH  10  12
ATOM     12  C   UNL     1      87.075  71.048  88.558  0.00  0.00    +0.000 C 
BRANCH  12  13
ATOM     13  C   UNL     1      86.012  71.591  87.630  0.00  0.00    +0.000 A 
ATOM     14  C   UNL     1      86.169  71.544  86.236  0.00  0.00    +0.000 A 
ATOM     15  C   UNL     1      85.172  72.031  85.389  0.00  0.00    +0.000 A 
ATOM     16  C   UNL     1      84.001  72.564  85.924  0.00  0.00    +0.000 A 
ATOM     17  C   UNL     1      83.828  72.614  87.305  0.00  0.00    +0.000 A 
ATOM     18  C   UNL     1      84.826  72.130  88.153  0.00  0.00    +0.000 A 
ENDBRANCH  12  13
ENDBRANCH  10  12
TORSDOF 2
ENDMDL
