MODEL 1
REMARK VINA RESULT:      -3.9      0.000      0.000
REMARK  Name = *****
REMARK  2 active torsions:
REMARK  status: ('A' for Active; 'I' for Inactive)
REMARK    1  A    between atoms: C_4  and  C_7
REMARK    2  A    between atoms: C_8  and  C_9
REMARK                            x       y       z     vdW  Elec       q    Type
REMARK                         _______ _______ _______ _____ _____    ______ ____
ROOT
ATOM      1  C   UNL     1     102.884 125.408  82.043  0.00  0.00    +0.000 C 
ATOM      2  C   UNL     1     102.008 126.180  82.327  0.00  0.00    +0.000 C 
ENDROOT
BRANCH   1   6
ATOM      3  C   UNL     1     106.483 126.368  81.474  0.00  0.00    +0.000 C 
ATOM      4  C   UNL     1     105.921 126.051  82.853  0.00  0.00    +0.000 C 
ATOM      5  S   UNL     1     105.245 124.371  82.975  0.00  0.00    +0.000 S 
ATOM      6  C   UNL     1     103.953 124.463  81.698  0.00  0.00    +0.000 C 
ATOM      7  S   UNL     1     104.672 124.786  80.060  0.00  0.00    +0.000 S 
ATOM      8  C   UNL     1     105.435 126.404  80.370  0.00  0.00    +0.000 C 
ENDBRANCH   1   6
BRANCH   2   9
ATOM      9  C   UNL     1     100.965 127.093  82.675  0.00  0.00    +0.000 A 
ATOM     10  C   UNL     1     101.271 128.286  83.335  0.00  0.00    +0.000 A 
ATOM     11  C   UNL     1     100.252 129.179  83.673  0.00  0.00    +0.000 A 
ATOM     12  C   UNL     1      98.928 128.879  83.351  0.00  0.00    +0.000 A 
ATOM     13  C   UNL     1      98.620 127.689  82.693  0.00  0.00    +0.000 A 
ATOM     14  C   UNL     1      99.638 126.795  82.354  0.00  0.00    +0.000 A 
ENDBRANCH   2   9
TORSDOF 2
ENDMDL
