MODEL 1
REMARK VINA RESULT:      -4.7      0.000      0.000
REMARK  Name = *****
REMARK  2 active torsions:
REMARK  status: ('A' for Active; 'I' for Inactive)
REMARK    1  A    between atoms: C_4  and  C_7
REMARK    2  A    between atoms: N_8  and  C_9
REMARK                            x       y       z     vdW  Elec       q    Type
REMARK                         _______ _______ _______ _____ _____    ______ ____
ROOT
ATOM      1  C   UNL     1     101.898 125.992  82.227  0.00  0.00    +0.000 C 
ATOM      2  N   UNL     1     102.937 126.281  81.508  0.00  0.00    +0.000 NA
ENDROOT
BRANCH   2   3
ATOM      3  C   UNL     1     103.782 125.212  81.185  0.00  0.00    +0.000 A 
ATOM      4  C   UNL     1     103.901 124.118  82.045  0.00  0.00    +0.000 A 
ATOM      5  C   UNL     1     104.727 123.053  81.698  0.00  0.00    +0.000 A 
ATOM      6  C   UNL     1     105.433 123.051  80.503  0.00  0.00    +0.000 A 
ATOM      7  C   UNL     1     105.295 124.135  79.647  0.00  0.00    +0.000 A 
ATOM      8  C   UNL     1     104.475 125.210  79.973  0.00  0.00    +0.000 A 
ATOM      9  F   UNL     1     105.963 124.143  78.486  0.00  0.00    +0.000 F 
ATOM     10  F   UNL     1     104.844 122.012  82.532  0.00  0.00    +0.000 F 
ENDBRANCH   2   3
BRANCH   1  14
ATOM     11  C   UNL     1      99.044 128.931  83.406  0.00  0.00    +0.000 A 
ATOM     12  C   UNL     1     100.395 129.131  83.687  0.00  0.00    +0.000 A 
ATOM     13  C   UNL     1     101.337 128.176  83.305  0.00  0.00    +0.000 A 
ATOM     14  C   UNL     1     100.922 127.018  82.641  0.00  0.00    +0.000 A 
ATOM     15  C   UNL     1      99.569 126.814  82.359  0.00  0.00    +0.000 A 
ATOM     16  C   UNL     1      98.629 127.774  82.743  0.00  0.00    +0.000 A 
ENDBRANCH   1  14
TORSDOF 2
ENDMDL
