REMARK  Name = *****
REMARK  4 active torsions:
REMARK  status: ('A' for Active; 'I' for Inactive)
REMARK    1  A    between atoms: C_1  and  C_2
REMARK    2  A    between atoms: C_5  and  C_8
REMARK    3  A    between atoms: C_8  and  O_9
REMARK    4  A    between atoms: O_9  and  C_10
REMARK                            x       y       z     vdW  Elec       q    Type
REMARK                         _______ _______ _______ _____ _____    ______ ____
ROOT
ATOM      1  O   UNL     1      -3.818   1.308  -0.459  0.00  0.00    +0.000 OA
ENDROOT
BRANCH   1   2
ATOM      2  C   UNL     1      -5.178   1.394  -0.310  0.00  0.00    +0.000 A 
ATOM      3  C   UNL     1      -5.745   2.038   0.796  0.00  0.00    +0.000 A 
ATOM      4  C   UNL     1      -7.133   2.148   0.898  0.00  0.00    +0.000 A 
ATOM      5  C   UNL     1      -7.950   1.629  -0.111  0.00  0.00    +0.000 A 
ATOM      6  C   UNL     1      -7.375   1.009  -1.221  0.00  0.00    +0.000 A 
ATOM      7  C   UNL     1      -5.990   0.895  -1.331  0.00  0.00    +0.000 A 
ATOM      8 CL   UNL     1      -8.384   0.383  -2.465  0.00  0.00    +0.000 Cl
ATOM      9 CL   UNL     1      -4.767   2.699   2.053  0.00  0.00    +0.000 Cl
ENDBRANCH   1   2
BRANCH   1  10
ATOM     10  C   UNL     1      -3.340   0.052   0.035  0.00  0.00    +0.000 C 
BRANCH  10  15
ATOM     11  C   UNL     1       2.479   0.169  -0.212  0.00  0.00    +0.000 C 
ATOM     12  C   UNL     1       0.982   0.107  -0.143  0.00  0.00    +0.000 A 
ATOM     13  C   UNL     1       0.319   0.356   1.064  0.00  0.00    +0.000 A 
ATOM     14  C   UNL     1      -1.077   0.336   1.124  0.00  0.00    +0.000 A 
ATOM     15  C   UNL     1      -1.834   0.065  -0.023  0.00  0.00    +0.000 A 
ATOM     16  C   UNL     1      -1.169  -0.157  -1.236  0.00  0.00    +0.000 A 
ATOM     17  C   UNL     1       0.227  -0.134  -1.296  0.00  0.00    +0.000 A 
ENDBRANCH  10  15
ENDBRANCH   1  10
TORSDOF 3
