MODEL 1
REMARK VINA RESULT:      -4.7      0.000      0.000
REMARK  Name = *****
REMARK  4 active torsions:
REMARK  status: ('A' for Active; 'I' for Inactive)
REMARK    1  A    between atoms: C_3  and  C_8
REMARK    2  A    between atoms: C_5  and  S_7
REMARK    3  A    between atoms: C_9  and  C_10
REMARK    4  A    between atoms: C_12  and  S_16
REMARK                            x       y       z     vdW  Elec       q    Type
REMARK                         _______ _______ _______ _____ _____    ______ ____
ROOT
ATOM      1  C   UNL     1     102.890 126.140  81.230  0.00  0.00    +0.000 C 
ATOM      2  C   UNL     1     102.039 125.956  82.253  0.00  0.00    +0.000 C 
ENDROOT
BRANCH   1   5
ATOM      3  C   UNL     1     104.974 123.009  81.192  0.00  0.00    +0.000 A 
ATOM      4  C   UNL     1     104.020 123.965  81.545  0.00  0.00    +0.000 A 
ATOM      5  C   UNL     1     103.883 125.144  80.802  0.00  0.00    +0.000 A 
ATOM      6  C   UNL     1     104.738 125.361  79.712  0.00  0.00    +0.000 A 
ATOM      7  C   UNL     1     105.691 124.402  79.349  0.00  0.00    +0.000 A 
ATOM      8  C   UNL     1     105.807 123.228  80.095  0.00  0.00    +0.000 A 
BRANCH   7   9
ATOM      9  S   UNL     1     106.777 124.678  77.966  0.00  0.00    +0.000 S 
ATOM     10  H   UNL     1     106.488 123.789  76.978  0.00  0.00    +0.000 HD
ENDBRANCH   7   9
ENDBRANCH   1   5
BRANCH   2  11
ATOM     11  C   UNL     1     101.061 126.961  82.694  0.00  0.00    +0.000 A 
ATOM     12  C   UNL     1     101.442 128.120  83.386  0.00  0.00    +0.000 A 
ATOM     13  C   UNL     1     100.488 129.071  83.766  0.00  0.00    +0.000 A 
ATOM     14  C   UNL     1      99.146 128.874  83.432  0.00  0.00    +0.000 A 
ATOM     15  C   UNL     1      98.759 127.733  82.731  0.00  0.00    +0.000 A 
ATOM     16  C   UNL     1      99.714 126.784  82.359  0.00  0.00    +0.000 A 
BRANCH  13  17
ATOM     17  S   UNL     1     100.969 130.543  84.643  0.00  0.00    +0.000 S 
ATOM     18  H   UNL     1     101.146 130.248  85.959  0.00  0.00    +0.000 HD
ENDBRANCH  13  17
ENDBRANCH   2  11
TORSDOF 4
ENDMDL
