MODEL 1
REMARK VINA RESULT:      -4.3      0.000      0.000
REMARK  Name = *****
REMARK  6 active torsions:
REMARK  status: ('A' for Active; 'I' for Inactive)
REMARK    1  A    between atoms: C_1  and  C_2
REMARK    2  A    between atoms: C_5  and  C_8
REMARK    3  A    between atoms: C_8  and  C_9
REMARK    4  A    between atoms: C_8  and  C_17
REMARK    5  A    between atoms: C_9  and  C_10
REMARK    6  A    between atoms: C_10  and  C_11
REMARK                            x       y       z     vdW  Elec       q    Type
REMARK                         _______ _______ _______ _____ _____    ______ ____
ROOT
ATOM      1  C   UNL     1      88.986  71.119  84.216  0.00  0.00    +0.000 C 
ENDROOT
BRANCH   1   6
ATOM      2  C   UNL     1      87.349  70.445  89.786  0.00  0.00    +0.000 C 
ATOM      3  C   UNL     1      87.773  70.628  88.360  0.00  0.00    +0.000 A 
ATOM      4  C   UNL     1      89.109  70.467  87.982  0.00  0.00    +0.000 A 
ATOM      5  C   UNL     1      89.493  70.622  86.647  0.00  0.00    +0.000 A 
ATOM      6  C   UNL     1      88.546  70.936  85.661  0.00  0.00    +0.000 A 
ATOM      7  C   UNL     1      87.203  71.081  86.044  0.00  0.00    +0.000 A 
ATOM      8  C   UNL     1      86.822  70.927  87.379  0.00  0.00    +0.000 A 
ENDBRANCH   1   6
BRANCH   1   9
ATOM      9  C   UNL     1      89.486  72.491  83.970  0.00  0.00    +0.000 C 
ATOM     10  N   UNL     1      89.859  73.575  83.787  0.00  0.00    +0.000 NA
ENDBRANCH   1   9
BRANCH   1  11
ATOM     11  C   UNL     1      90.048  70.089  83.782  0.00  0.00    +0.000 C 
BRANCH  11  12
ATOM     12  C   UNL     1      89.434  68.745  83.372  0.00  0.00    +0.000 C 
BRANCH  12  13
ATOM     13  C   UNL     1      89.174  67.868  84.570  0.00  0.00    +0.000 A 
ATOM     14  C   UNL     1      87.861  67.587  84.970  0.00  0.00    +0.000 A 
ATOM     15  C   UNL     1      87.617  66.791  86.090  0.00  0.00    +0.000 A 
ATOM     16  C   UNL     1      88.682  66.272  86.822  0.00  0.00    +0.000 A 
ATOM     17  C   UNL     1      89.992  66.550  86.437  0.00  0.00    +0.000 A 
ATOM     18  C   UNL     1      90.239  67.346  85.318  0.00  0.00    +0.000 A 
ENDBRANCH  12  13
ENDBRANCH  11  12
ENDBRANCH   1  11
TORSDOF 5
ENDMDL
