MODEL 1
REMARK VINA RESULT:      -4.5      0.000      0.000
REMARK  Name = *****
REMARK  3 active torsions:
REMARK  status: ('A' for Active; 'I' for Inactive)
REMARK    1  A    between atoms: C_4  and  C_7
REMARK    2  A    between atoms: C_7  and  O_9
REMARK    3  A    between atoms: O_9  and  C_10
REMARK                            x       y       z     vdW  Elec       q    Type
REMARK                         _______ _______ _______ _____ _____    ______ ____
ROOT
ATOM      1  C   UNL     1     103.571 126.561  80.640  0.00  0.00    +0.000 C 
ATOM      2  O   UNL     1     103.422 127.565  79.957  0.00  0.00    +0.000 OA
ENDROOT
BRANCH   1   6
ATOM      3  C   UNL     1     106.130 123.057  80.211  0.00  0.00    +0.000 C 
ATOM      4  C   UNL     1     104.741 122.869  80.811  0.00  0.00    +0.000 C 
ATOM      5  C   UNL     1     104.137 124.194  81.267  0.00  0.00    +0.000 C 
ATOM      6  C   UNL     1     104.117 125.232  80.138  0.00  0.00    +0.000 C 
ATOM      7  C   UNL     1     105.521 125.411  79.540  0.00  0.00    +0.000 C 
ATOM      8  C   UNL     1     106.117 124.083  79.083  0.00  0.00    +0.000 C 
ENDBRANCH   1   6
BRANCH   1   9
ATOM      9  O   UNL     1     103.234 126.426  81.989  0.00  0.00    +0.000 OA
BRANCH   9  10
ATOM     10  C   UNL     1     102.073 127.072  82.440  0.00  0.00    +0.000 A 
ATOM     11  C   UNL     1     102.126 128.253  83.183  0.00  0.00    +0.000 A 
ATOM     12  C   UNL     1     100.940 128.817  83.654  0.00  0.00    +0.000 A 
ATOM     13  C   UNL     1      99.728 128.183  83.394  0.00  0.00    +0.000 A 
ATOM     14  C   UNL     1      99.676 126.993  82.674  0.00  0.00    +0.000 A 
ATOM     15  C   UNL     1     100.859 126.426  82.198  0.00  0.00    +0.000 A 
ATOM     16  F   UNL     1      98.591 128.723  83.852  0.00  0.00    +0.000 F 
ENDBRANCH   9  10
ENDBRANCH   1   9
TORSDOF 3
ENDMDL
