MODEL 1
REMARK VINA RESULT:      -4.7      0.000      0.000
REMARK  Name = *****
REMARK  5 active torsions:
REMARK  status: ('A' for Active; 'I' for Inactive)
REMARK    1  A    between atoms: C_1  and  C_2
REMARK    2  A    between atoms: C_4  and  O_17
REMARK    3  A    between atoms: C_5  and  C_9
REMARK    4  A    between atoms: C_10  and  C_11
REMARK    5  A    between atoms: O_17  and  C_18
REMARK                            x       y       z     vdW  Elec       q    Type
REMARK                         _______ _______ _______ _____ _____    ______ ____
ROOT
ATOM      1  C   UNL     1     105.799 121.282  81.120  0.00  0.00    +0.000 C 
ATOM      2  C   UNL     1     105.058 122.474  81.631  0.00  0.00    +0.000 A 
ATOM      3  C   UNL     1     104.729 122.670  82.911  0.00  0.00    +0.000 A 
ATOM      4  C   UNL     1     104.007 123.857  83.289  0.00  0.00    +0.000 A 
ATOM      5  C   UNL     1     103.595 124.752  82.370  0.00  0.00    +0.000 A 
ATOM      6  C   UNL     1     103.945 124.510  80.933  0.00  0.00    +0.000 A 
ATOM      7  O   UNL     1     103.583 125.278  80.045  0.00  0.00    +0.000 OA
ATOM      8  O   UNL     1     104.693 123.403  80.636  0.00  0.00    +0.000 OA
ENDROOT
BRANCH   5   9
ATOM      9  C   UNL     1     102.762 125.914  82.667  0.00  0.00    +0.000 C 
ATOM     10  C   UNL     1     101.442 126.013  82.437  0.00  0.00    +0.000 C 
BRANCH  10  11
ATOM     11  C   UNL     1     100.636 127.194  82.782  0.00  0.00    +0.000 A 
ATOM     12  C   UNL     1      99.252 127.242  82.570  0.00  0.00    +0.000 A 
ATOM     13  C   UNL     1      98.515 128.369  82.941  0.00  0.00    +0.000 A 
ATOM     14  C   UNL     1      99.152 129.454  83.539  0.00  0.00    +0.000 A 
ATOM     15  C   UNL     1     100.526 129.412  83.770  0.00  0.00    +0.000 A 
ATOM     16  C   UNL     1     101.263 128.285  83.399  0.00  0.00    +0.000 A 
ENDBRANCH  10  11
ENDBRANCH   5   9
BRANCH   4  17
ATOM     17  O   UNL     1     103.651 123.940  84.623  0.00  0.00    +0.000 OA
ATOM     18  C   UNL     1     104.754 124.266  85.470  0.00  0.00    +0.000 C 
ENDBRANCH   4  17
TORSDOF 3
ENDMDL
