MODEL 1
REMARK VINA RESULT:      -4.2      0.000      0.000
REMARK  Name = *****
REMARK  6 active torsions:
REMARK  status: ('A' for Active; 'I' for Inactive)
REMARK    1  A    between atoms: C_1  and  O_2
REMARK    2  A    between atoms: O_2  and  C_3
REMARK    3  A    between atoms: C_7  and  C_9
REMARK    4  A    between atoms: C_9  and  S_11
REMARK    5  A    between atoms: S_11  and  C_12
REMARK    6  A    between atoms: C_12  and  C_13
REMARK                            x       y       z     vdW  Elec       q    Type
REMARK                         _______ _______ _______ _____ _____    ______ ____
ROOT
ATOM      1  C   UNL     1      89.470  67.191  86.321  0.00  0.00    +0.000 C 
ATOM      2  O   UNL     1      90.666  67.026  86.530  0.00  0.00    +0.000 OA
ENDROOT
BRANCH   1   7
ATOM      3  C   UNL     1      87.643  64.435  88.159  0.00  0.00    +0.000 A 
ATOM      4  C   UNL     1      86.597  65.125  88.768  0.00  0.00    +0.000 A 
ATOM      5  C   UNL     1      86.470  66.503  88.590  0.00  0.00    +0.000 A 
ATOM      6  C   UNL     1      87.387  67.203  87.801  0.00  0.00    +0.000 A 
ATOM      7  C   UNL     1      88.445  66.525  87.181  0.00  0.00    +0.000 A 
ATOM      8  C   UNL     1      88.561  65.138  87.373  0.00  0.00    +0.000 A 
BRANCH   3  10
ATOM      9  C   UNL     1      86.760  62.251  88.491  0.00  0.00    +0.000 C 
ATOM     10  O   UNL     1      87.882  63.092  88.251  0.00  0.00    +0.000 OA
ENDBRANCH   3  10
ENDBRANCH   1   7
BRANCH   1  11
ATOM     11  S   UNL     1      88.918  68.205  84.993  0.00  0.00    +0.000 S 
BRANCH  11  12
ATOM     12  C   UNL     1      89.518  69.811  85.590  0.00  0.00    +0.000 C 
BRANCH  12  13
ATOM     13  C   UNL     1      88.656  70.334  86.714  0.00  0.00    +0.000 A 
ATOM     14  C   UNL     1      89.150  70.390  88.025  0.00  0.00    +0.000 A 
ATOM     15  C   UNL     1      88.348  70.863  89.065  0.00  0.00    +0.000 A 
ATOM     16  C   UNL     1      87.044  71.280  88.807  0.00  0.00    +0.000 A 
ATOM     17  C   UNL     1      86.538  71.221  87.509  0.00  0.00    +0.000 A 
ATOM     18  C   UNL     1      87.339  70.749  86.468  0.00  0.00    +0.000 A 
ENDBRANCH  12  13
ENDBRANCH  11  12
ENDBRANCH   1  11
TORSDOF 5
ENDMDL
