REMARK  Name = *****
REMARK  5 active torsions:
REMARK  status: ('A' for Active; 'I' for Inactive)
REMARK    1  A    between atoms: C_1  and  O_2
REMARK    2  A    between atoms: O_2  and  P_3
REMARK    3  A    between atoms: P_3  and  C_5
REMARK    4  A    between atoms: P_3  and  C_11
REMARK    5  A    between atoms: C_11  and  C_12
REMARK                            x       y       z     vdW  Elec       q    Type
REMARK                         _______ _______ _______ _____ _____    ______ ____
ROOT
ATOM      1  P   UNL     1       3.533  -1.287   1.384  0.00  0.00    +0.000 P 
ATOM      2  O   UNL     1       4.531  -1.232   0.245  0.00  0.00    +0.000 OA
ENDROOT
BRANCH   1   3
ATOM      3  C   UNL     1       3.566   0.122   2.473  0.00  0.00    +0.000 A 
ATOM      4  C   UNL     1       2.466   0.451   3.277  0.00  0.00    +0.000 A 
ATOM      5  C   UNL     1       2.511   1.559   4.124  0.00  0.00    +0.000 A 
ATOM      6  C   UNL     1       3.657   2.351   4.175  0.00  0.00    +0.000 A 
ATOM      7  C   UNL     1       4.756   2.038   3.379  0.00  0.00    +0.000 A 
ATOM      8  C   UNL     1       4.711   0.930   2.531  0.00  0.00    +0.000 A 
ENDBRANCH   1   3
BRANCH   1   9
ATOM      9  C   UNL     1       3.626  -2.828   2.333  0.00  0.00    +0.000 C 
ATOM     10  F   UNL     1       4.822  -2.682   2.973  0.00  0.00    +0.000 F 
ATOM     11  F   UNL     1       2.664  -2.636   3.282  0.00  0.00    +0.000 F 
BRANCH   9  12
ATOM     12  C   UNL     1       3.499  -4.135   1.595  0.00  0.00    +0.000 A 
ATOM     13  C   UNL     1       4.542  -4.583   0.766  0.00  0.00    +0.000 A 
ATOM     14  C   UNL     1       4.423  -5.786   0.068  0.00  0.00    +0.000 A 
ATOM     15  C   UNL     1       3.265  -6.542   0.197  0.00  0.00    +0.000 A 
ATOM     16  C   UNL     1       2.221  -6.118   1.010  0.00  0.00    +0.000 A 
ATOM     17  C   UNL     1       2.336  -4.915   1.708  0.00  0.00    +0.000 A 
ATOM     18  F   UNL     1       3.151  -7.696  -0.474  0.00  0.00    +0.000 F 
ENDBRANCH   9  12
ENDBRANCH   1   9
BRANCH   1  20
ATOM     19  C   UNL     1       1.750  -0.489  -0.336  0.00  0.00    +0.000 C 
ATOM     20  O   UNL     1       2.010  -1.311   0.787  0.00  0.00    +0.000 OA
ENDBRANCH   1  20
TORSDOF 4
