REMARK  Name = *****
REMARK  4 active torsions:
REMARK  status: ('A' for Active; 'I' for Inactive)
REMARK    1  A    between atoms: C_1  and  S_2
REMARK    2  A    between atoms: S_2  and  C_3
REMARK    3  A    between atoms: C_8  and  C_9
REMARK    4  A    between atoms: C_10  and  C_11
REMARK                            x       y       z     vdW  Elec       q    Type
REMARK                         _______ _______ _______ _____ _____    ______ ____
ROOT
ATOM      1  C   UNL     1       3.314  -3.527  -1.333  0.00  0.00    +0.000 A 
ATOM      2  C   UNL     1       4.569  -3.414  -1.952  0.00  0.00    +0.000 A 
ATOM      3  C   UNL     1       5.199  -2.175  -2.065  0.00  0.00    +0.000 A 
ATOM      4  C   UNL     1       4.578  -1.034  -1.569  0.00  0.00    +0.000 A 
ATOM      5  C   UNL     1       3.325  -1.131  -0.961  0.00  0.00    +0.000 A 
ATOM      6  C   UNL     1       2.679  -2.373  -0.825  0.00  0.00    +0.000 A 
ENDROOT
BRANCH   1   8
ATOM      7  C   UNL     1       2.934  -5.528   0.501  0.00  0.00    +0.000 C 
ATOM      8  S   UNL     1       2.604  -5.174  -1.245  0.00  0.00    +0.000 S 
ENDBRANCH   1   8
BRANCH   6   9
ATOM      9  C   UNL     1       1.336  -2.419  -0.218  0.00  0.00    +0.000 C 
ATOM     10  C   UNL     1       1.035  -1.823   0.948  0.00  0.00    +0.000 C 
BRANCH  10  11
ATOM     11  C   UNL     1      -0.288  -1.875   1.587  0.00  0.00    +0.000 A 
ATOM     12  C   UNL     1      -0.364  -1.830   2.986  0.00  0.00    +0.000 A 
ATOM     13  C   UNL     1      -1.601  -1.848   3.636  0.00  0.00    +0.000 A 
ATOM     14  C   UNL     1      -2.778  -1.900   2.893  0.00  0.00    +0.000 A 
ATOM     15  C   UNL     1      -2.718  -1.929   1.502  0.00  0.00    +0.000 A 
ATOM     16  C   UNL     1      -1.481  -1.911   0.852  0.00  0.00    +0.000 A 
ENDBRANCH  10  11
ENDBRANCH   6   9
TORSDOF 3
