MODEL 1
REMARK VINA RESULT:      -4.9      0.000      0.000
REMARK  Name = *****
REMARK  3 active torsions:
REMARK  status: ('A' for Active; 'I' for Inactive)
REMARK    1  A    between atoms: C_3  and  O_9
REMARK    2  A    between atoms: O_9  and  C_10
REMARK    3  A    between atoms: C_10  and  C_12
REMARK                            x       y       z     vdW  Elec       q    Type
REMARK                         _______ _______ _______ _____ _____    ______ ____
ROOT
ATOM      1  C   UNL     1     103.146 126.620  81.950  0.00  0.00    +0.000 C 
ATOM      2  O   UNL     1     103.164 127.392  81.001  0.00  0.00    +0.000 OA
ENDROOT
BRANCH   1   3
ATOM      3  C   UNL     1     103.711 125.253  81.871  0.00  0.00    +0.000 A 
ATOM      4  C   UNL     1     104.155 124.679  80.677  0.00  0.00    +0.000 A 
ATOM      5  C   UNL     1     104.670 123.382  80.655  0.00  0.00    +0.000 A 
ATOM      6  C   UNL     1     104.739 122.644  81.836  0.00  0.00    +0.000 A 
ATOM      7  C   UNL     1     104.289 123.211  83.023  0.00  0.00    +0.000 A 
ATOM      8  C   UNL     1     103.773 124.502  83.054  0.00  0.00    +0.000 A 
ATOM      9  F   UNL     1     104.353 122.500  84.157  0.00  0.00    +0.000 F 
ATOM     10  F   UNL     1     104.088 125.340  79.513  0.00  0.00    +0.000 F 
ENDBRANCH   1   3
BRANCH   1  11
ATOM     11  O   UNL     1     102.568 126.838  83.182  0.00  0.00    +0.000 OA
BRANCH  11  14
ATOM     12  C   UNL     1      98.977 127.098  82.474  0.00  0.00    +0.000 A 
ATOM     13  C   UNL     1     100.269 126.589  82.564  0.00  0.00    +0.000 A 
ATOM     14  C   UNL     1     101.289 127.395  83.078  0.00  0.00    +0.000 A 
ATOM     15  C   UNL     1     101.034 128.694  83.539  0.00  0.00    +0.000 A 
ATOM     16  C   UNL     1      99.729 129.195  83.443  0.00  0.00    +0.000 A 
ATOM     17  C   UNL     1      98.707 128.398  82.909  0.00  0.00    +0.000 A 
ATOM     18 CL   UNL     1      99.303 130.784  83.974  0.00  0.00    +0.000 Cl
ATOM     19 CL   UNL     1     102.321 129.631  84.221  0.00  0.00    +0.000 Cl
ENDBRANCH  11  14
ENDBRANCH   1  11
TORSDOF 3
ENDMDL
