MODEL 1
REMARK VINA RESULT:      -4.8      0.000      0.000
REMARK  Name = *****
REMARK  4 active torsions:
REMARK  status: ('A' for Active; 'I' for Inactive)
REMARK    1  A    between atoms: C_1  and  C_2
REMARK    2  A    between atoms: C_5  and  C_8
REMARK    3  A    between atoms: C_9  and  C_10
REMARK    4  A    between atoms: C_10  and  C_11
REMARK                            x       y       z     vdW  Elec       q    Type
REMARK                         _______ _______ _______ _____ _____    ______ ____
ROOT
ATOM      1  C   UNL     1      89.820  66.817  86.603  0.00  0.00    +0.000 C 
ATOM      2  C   UNL     1      88.816  65.935  86.472  0.00  0.00    +0.000 C 
ENDROOT
BRANCH   1   7
ATOM      3  C   UNL     1      89.680  72.117  84.280  0.00  0.00    +0.000 C 
ATOM      4  C   UNL     1      89.753  70.743  84.876  0.00  0.00    +0.000 A 
ATOM      5  C   UNL     1      89.922  69.622  84.056  0.00  0.00    +0.000 A 
ATOM      6  C   UNL     1      89.958  68.338  84.610  0.00  0.00    +0.000 A 
ATOM      7  C   UNL     1      89.825  68.152  85.991  0.00  0.00    +0.000 A 
ATOM      8  C   UNL     1      89.623  69.273  86.804  0.00  0.00    +0.000 A 
ATOM      9  C   UNL     1      89.589  70.558  86.252  0.00  0.00    +0.000 A 
ENDBRANCH   1   7
BRANCH   2  10
ATOM     10  C   UNL     1      88.815  64.568  87.098  0.00  0.00    +0.000 C 
BRANCH  10  11
ATOM     11  C   UNL     1      88.222  64.579  88.487  0.00  0.00    +0.000 A 
ATOM     12  C   UNL     1      88.818  63.844  89.524  0.00  0.00    +0.000 A 
ATOM     13  C   UNL     1      88.258  63.846  90.802  0.00  0.00    +0.000 A 
ATOM     14  C   UNL     1      87.101  64.576  91.043  0.00  0.00    +0.000 A 
ATOM     15  C   UNL     1      86.489  65.303  90.029  0.00  0.00    +0.000 A 
ATOM     16  C   UNL     1      87.048  65.304  88.751  0.00  0.00    +0.000 A 
ATOM     17  F   UNL     1      86.563  64.575  92.270  0.00  0.00    +0.000 F 
ENDBRANCH  10  11
ENDBRANCH   2  10
TORSDOF 3
ENDMDL
