REMARK  Name = *****
REMARK  3 active torsions:
REMARK  status: ('A' for Active; 'I' for Inactive)
REMARK    1  A    between atoms: C_2  and  C_3
REMARK    2  A    between atoms: C_2  and  S_9
REMARK    3  A    between atoms: S_9  and  C_12
REMARK                            x       y       z     vdW  Elec       q    Type
REMARK                         _______ _______ _______ _____ _____    ______ ____
ROOT
ATOM      1  C   UNL     1       1.077   0.017  -0.204  0.00  0.00    +0.000 C 
ATOM      2  C   UNL     1       2.420   0.059  -0.118  0.00  0.00    +0.000 C 
ENDROOT
BRANCH   2   3
ATOM      3  C   UNL     1       3.148  -0.710   0.889  0.00  0.00    +0.000 C 
ATOM      4  C   UNL     1       3.059  -2.054   0.935  0.00  0.00    +0.000 C 
ATOM      5  C   UNL     1       3.745  -2.904   1.965  0.00  0.00    +0.000 C 
ATOM      6  C   UNL     1       4.283  -2.101   3.147  0.00  0.00    +0.000 C 
ATOM      7  C   UNL     1       4.959  -0.820   2.675  0.00  0.00    +0.000 C 
ATOM      8  C   UNL     1       3.987   0.062   1.885  0.00  0.00    +0.000 C 
ENDBRANCH   2   3
BRANCH   2   9
ATOM      9  S   UNL     1       3.267   1.120  -1.245  0.00  0.00    +0.000 S 
ATOM     10  O   UNL     1       2.533   1.249  -2.492  0.00  0.00    +0.000 OA
ATOM     11  O   UNL     1       3.738   2.301  -0.543  0.00  0.00    +0.000 OA
BRANCH   9  12
ATOM     12  C   UNL     1       4.764   0.247  -1.686  0.00  0.00    +0.000 A 
ATOM     13  C   UNL     1       6.097   0.530  -1.454  0.00  0.00    +0.000 A 
ATOM     14  C   UNL     1       6.964  -0.467  -1.988  0.00  0.00    +0.000 A 
ATOM     15  C   UNL     1       6.264  -1.474  -2.615  0.00  0.00    +0.000 A 
ATOM     16  S   UNL     1       4.573  -1.213  -2.560  0.00  0.00    +0.000 S 
ENDBRANCH   9  12
ENDBRANCH   2   9
TORSDOF 3
