REMARK  Name = *****
REMARK  4 active torsions:
REMARK  status: ('A' for Active; 'I' for Inactive)
REMARK    1  A    between atoms: C_4  and  C_7
REMARK    2  A    between atoms: C_7  and  C_9
REMARK    3  A    between atoms: C_9  and  C_10
REMARK    4  A    between atoms: C_10  and  C_11
REMARK                            x       y       z     vdW  Elec       q    Type
REMARK                         _______ _______ _______ _____ _____    ______ ____
ROOT
ATOM      1  C   UNL     1       3.432  -1.929   0.011  0.00  0.00    +0.000 C 
ENDROOT
BRANCH   1   2
ATOM      2  C   UNL     1       2.798  -0.589  -0.321  0.00  0.00    +0.000 C 
ATOM      3  O   UNL     1       3.432   0.255  -0.958  0.00  0.00    +0.000 OA
BRANCH   2   7
ATOM      4  C   UNL     1      -0.577   1.608   1.338  0.00  0.00    +0.000 C 
ATOM      5  C   UNL     1      -0.715   1.040  -0.071  0.00  0.00    +0.000 C 
ATOM      6  C   UNL     1       0.644   0.677  -0.663  0.00  0.00    +0.000 C 
ATOM      7  C   UNL     1       1.414  -0.287   0.249  0.00  0.00    +0.000 C 
ATOM      8  C   UNL     1       1.552   0.284   1.663  0.00  0.00    +0.000 C 
ATOM      9  C   UNL     1       0.195   0.662   2.253  0.00  0.00    +0.000 C 
ENDBRANCH   2   7
ENDBRANCH   1   2
BRANCH   1  10
ATOM     10  C   UNL     1       2.667  -3.132  -0.536  0.00  0.00    +0.000 C 
BRANCH  10  11
ATOM     11  C   UNL     1       2.451  -3.098  -2.030  0.00  0.00    +0.000 A 
ATOM     12  C   UNL     1       3.542  -3.168  -2.910  0.00  0.00    +0.000 A 
ATOM     13  C   UNL     1       3.339  -3.132  -4.291  0.00  0.00    +0.000 A 
ATOM     14  C   UNL     1       2.048  -3.028  -4.791  0.00  0.00    +0.000 A 
ATOM     15  C   UNL     1       0.954  -2.962  -3.938  0.00  0.00    +0.000 A 
ATOM     16  C   UNL     1       1.154  -2.998  -2.557  0.00  0.00    +0.000 A 
ATOM     17  F   UNL     1       1.853  -2.995  -6.116  0.00  0.00    +0.000 F 
ENDBRANCH  10  11
ENDBRANCH   1  10
TORSDOF 4
