REMARK  Name = *****
REMARK  2 active torsions:
REMARK  status: ('A' for Active; 'I' for Inactive)
REMARK    1  A    between atoms: C_2  and  C_10
REMARK    2  A    between atoms: C_10  and  C_11
REMARK                            x       y       z     vdW  Elec       q    Type
REMARK                         _______ _______ _______ _____ _____    ______ ____
ROOT
ATOM      1  C   UNL     1       1.575   1.202  -0.005  0.00  0.00    +0.000 C 
ATOM      2  C   UNL     1       2.420  -0.051  -0.329  0.00  0.00    +0.000 C 
ATOM      3  C   UNL     1       1.616  -1.257   0.211  0.00  0.00    +0.000 C 
ATOM      4  C   UNL     1       0.211  -0.751   0.103  0.00  0.00    +0.000 A 
ATOM      5  C   UNL     1      -0.963  -1.482   0.156  0.00  0.00    +0.000 A 
ATOM      6  C   UNL     1      -2.176  -0.795   0.073  0.00  0.00    +0.000 A 
ATOM      7  C   UNL     1      -2.199   0.603  -0.049  0.00  0.00    +0.000 A 
ATOM      8  C   UNL     1      -1.009   1.333  -0.089  0.00  0.00    +0.000 A 
ATOM      9  C   UNL     1       0.188   0.642  -0.019  0.00  0.00    +0.000 A 
ENDROOT
BRANCH   2  10
ATOM     10  C   UNL     1       3.834   0.051   0.249  0.00  0.00    +0.000 C 
BRANCH  10  11
ATOM     11  C   UNL     1       4.717  -1.110  -0.141  0.00  0.00    +0.000 A 
ATOM     12  C   UNL     1       5.218  -1.215  -1.446  0.00  0.00    +0.000 A 
ATOM     13  C   UNL     1       6.024  -2.294  -1.810  0.00  0.00    +0.000 A 
ATOM     14  C   UNL     1       6.337  -3.279  -0.875  0.00  0.00    +0.000 A 
ATOM     15  C   UNL     1       5.844  -3.185   0.424  0.00  0.00    +0.000 A 
ATOM     16  C   UNL     1       5.037  -2.106   0.791  0.00  0.00    +0.000 A 
ENDBRANCH  10  11
ENDBRANCH   2  10
TORSDOF 2
