MODEL 1
REMARK VINA RESULT:      -4.8      0.000      0.000
REMARK  Name = *****
REMARK  2 active torsions:
REMARK  status: ('A' for Active; 'I' for Inactive)
REMARK    1  A    between atoms: C_4  and  C_8
REMARK    2  A    between atoms: C_9  and  C_10
REMARK                            x       y       z     vdW  Elec       q    Type
REMARK                         _______ _______ _______ _____ _____    ______ ____
ROOT
ATOM      1  C   UNL     1     103.035 125.593  82.515  0.00  0.00    +0.000 C 
ATOM      2  C   UNL     1     101.790 125.944  82.155  0.00  0.00    +0.000 C 
ENDROOT
BRANCH   1   6
ATOM      3  C   UNL     1     104.976 122.025  80.927  0.00  0.00    +0.000 C 
ATOM      4  C   UNL     1     105.031 123.319  80.129  0.00  0.00    +0.000 C 
ATOM      5  C   UNL     1     104.241 124.419  80.772  0.00  0.00    +0.000 C 
ATOM      6  C   UNL     1     103.813 124.445  82.051  0.00  0.00    +0.000 C 
ATOM      7  C   UNL     1     104.229 123.297  82.945  0.00  0.00    +0.000 C 
ATOM      8  O   UNL     1     103.843 123.193  84.109  0.00  0.00    +0.000 OA
ATOM      9  C   UNL     1     105.228 122.296  82.397  0.00  0.00    +0.000 C 
ENDBRANCH   1   6
BRANCH   2  10
ATOM     10  C   UNL     1     101.086 127.120  82.690  0.00  0.00    +0.000 A 
ATOM     11  C   UNL     1      99.692 127.254  82.623  0.00  0.00    +0.000 A 
ATOM     12  C   UNL     1      99.059 128.375  83.169  0.00  0.00    +0.000 A 
ATOM     13  C   UNL     1      99.816 129.359  83.799  0.00  0.00    +0.000 A 
ATOM     14  C   UNL     1     101.200 129.232  83.891  0.00  0.00    +0.000 A 
ATOM     15  C   UNL     1     101.831 128.112  83.344  0.00  0.00    +0.000 A 
ATOM     16 CL   UNL     1      99.036 130.737  84.474  0.00  0.00    +0.000 Cl
ENDBRANCH   2  10
TORSDOF 2
ENDMDL
