REMARK  Name = *****
REMARK  4 active torsions:
REMARK  status: ('A' for Active; 'I' for Inactive)
REMARK    1  A    between atoms: C_4  and  C_7
REMARK    2  A    between atoms: C_7  and  C_8
REMARK    3  A    between atoms: C_8  and  C_9
REMARK    4  A    between atoms: C_10  and  N_18
REMARK                            x       y       z     vdW  Elec       q    Type
REMARK                         _______ _______ _______ _____ _____    ______ ____
ROOT
ATOM      1  C   UNL     1      -4.876  -0.902  -0.808  0.00  0.00    +0.000 A 
ATOM      2  C   UNL     1      -5.519  -0.252  -1.890  0.00  0.00    +0.000 A 
ATOM      3  C   UNL     1      -6.926  -0.141  -1.940  0.00  0.00    +0.000 A 
ATOM      4  C   UNL     1      -7.748  -0.642  -0.920  0.00  0.00    +0.000 A 
ATOM      5  C   UNL     1      -7.128  -1.266   0.165  0.00  0.00    +0.000 A 
ATOM      6  C   UNL     1      -5.746  -1.371   0.183  0.00  0.00    +0.000 A 
ATOM      7  O   UNL     1      -5.401  -2.011   1.343  0.00  0.00    +0.000 OA
ATOM      8  C   UNL     1      -6.597  -2.254   1.948  0.00  0.00    +0.000 A 
ATOM      9  N   UNL     1      -7.658  -1.835   1.294  0.00  0.00    +0.000 NA
ENDROOT
BRANCH   2  10
ATOM     10  N   UNL     1      -4.771   0.253  -2.937  0.00  0.00    +0.000 NA
ATOM     11  O   UNL     1      -4.887   1.480  -3.046  0.00  0.00    +0.000 OA
ENDBRANCH   2  10
BRANCH   1  12
ATOM     12  C   UNL     1      -3.381  -1.044  -0.692  0.00  0.00    +0.000 C 
BRANCH  12  13
ATOM     13  C   UNL     1      -2.749   0.174  -0.013  0.00  0.00    +0.000 C 
BRANCH  13  17
ATOM     14  C   UNL     1       1.531  -0.268   0.257  0.00  0.00    +0.000 A 
ATOM     15  C   UNL     1       0.716  -0.739   1.285  0.00  0.00    +0.000 A 
ATOM     16  C   UNL     1      -0.670  -0.591   1.202  0.00  0.00    +0.000 A 
ATOM     17  C   UNL     1      -1.251   0.034   0.090  0.00  0.00    +0.000 A 
ATOM     18  C   UNL     1      -0.423   0.497  -0.941  0.00  0.00    +0.000 A 
ATOM     19  C   UNL     1       0.962   0.349  -0.856  0.00  0.00    +0.000 A 
ENDBRANCH  13  17
ENDBRANCH  12  13
ENDBRANCH   1  12
TORSDOF 4
