MODEL 1
REMARK VINA RESULT:      -5.0      0.000      0.000
REMARK  Name = *****
REMARK  2 active torsions:
REMARK  status: ('A' for Active; 'I' for Inactive)
REMARK    1  A    between atoms: C_4  and  C_7
REMARK    2  A    between atoms: C_8  and  C_9
REMARK                            x       y       z     vdW  Elec       q    Type
REMARK                         _______ _______ _______ _____ _____    ______ ____
ROOT
ATOM      1  C   UNL     1     102.045 125.964  82.222  0.00  0.00    +0.000 C 
ATOM      2  C   UNL     1     102.924 126.132  81.219  0.00  0.00    +0.000 C 
ATOM      3  F   UNL     1     102.962 127.315  80.561  0.00  0.00    +0.000 F 
ENDROOT
BRANCH   1   7
ATOM      4  C   UNL     1      99.123 128.870  83.377  0.00  0.00    +0.000 A 
ATOM      5  C   UNL     1     100.464 129.089  83.679  0.00  0.00    +0.000 A 
ATOM      6  C   UNL     1     101.429 128.145  83.316  0.00  0.00    +0.000 A 
ATOM      7  C   UNL     1     101.061 126.964  82.659  0.00  0.00    +0.000 A 
ATOM      8  C   UNL     1      99.708 126.763  82.347  0.00  0.00    +0.000 A 
ATOM      9  C   UNL     1      98.744 127.707  82.709  0.00  0.00    +0.000 A 
ENDBRANCH   1   7
BRANCH   2  10
ATOM     10  C   UNL     1     103.923 125.129  80.805  0.00  0.00    +0.000 A 
ATOM     11  C   UNL     1     104.783 125.314  79.712  0.00  0.00    +0.000 A 
ATOM     12  C   UNL     1     105.725 124.338  79.369  0.00  0.00    +0.000 A 
ATOM     13  C   UNL     1     105.823 123.168  80.119  0.00  0.00    +0.000 A 
ATOM     14  C   UNL     1     104.987 122.976  81.214  0.00  0.00    +0.000 A 
ATOM     15  C   UNL     1     104.047 123.951  81.557  0.00  0.00    +0.000 A 
ENDBRANCH   2  10
TORSDOF 2
ENDMDL
