MODEL 1
REMARK VINA RESULT:      -4.2      0.000      0.000
REMARK  Name = *****
REMARK  2 active torsions:
REMARK  status: ('A' for Active; 'I' for Inactive)
REMARK    1  A    between atoms: C_4  and  C_6
REMARK    2  A    between atoms: C_7  and  C_8
REMARK                            x       y       z     vdW  Elec       q    Type
REMARK                         _______ _______ _______ _____ _____    ______ ____
ROOT
ATOM      1  C   UNL     1     101.781 126.019  82.728  0.00  0.00    +0.000 C 
ATOM      2  C   UNL     1     102.482 125.873  81.592  0.00  0.00    +0.000 C 
ENDROOT
BRANCH   2   3
ATOM      3  C   UNL     1     103.614 124.945  81.453  0.00  0.00    +0.000 A 
ATOM      4  C   UNL     1     104.058 124.146  82.516  0.00  0.00    +0.000 A 
ATOM      5  C   UNL     1     105.117 123.251  82.339  0.00  0.00    +0.000 A 
ATOM      6  C   UNL     1     105.732 123.145  81.093  0.00  0.00    +0.000 A 
ATOM      7  C   UNL     1     105.293 123.920  80.023  0.00  0.00    +0.000 A 
ATOM      8  C   UNL     1     104.232 124.813  80.203  0.00  0.00    +0.000 A 
ATOM      9 BR   UNL     1     107.164 121.935  80.853  0.00  0.00    +0.000 Br
ENDBRANCH   2   3
BRANCH   1  13
ATOM     10  C   UNL     1      98.593 127.993  82.762  0.00  0.00    +0.000 A 
ATOM     11  C   UNL     1      99.347 128.953  83.395  0.00  0.00    +0.000 A 
ATOM     12  S   UNL     1     100.967 128.458  83.606  0.00  0.00    +0.000 S 
ATOM     13  C   UNL     1     100.688 126.931  82.844  0.00  0.00    +0.000 A 
ATOM     14  C   UNL     1      99.363 126.834  82.447  0.00  0.00    +0.000 A 
ENDBRANCH   1  13
TORSDOF 2
ENDMDL
