MODEL 1
REMARK VINA RESULT:      -5.0      0.000      0.000
REMARK  Name = *****
REMARK  2 active torsions:
REMARK  status: ('A' for Active; 'I' for Inactive)
REMARK    1  A    between atoms: C_3  and  C_8
REMARK    2  A    between atoms: N_10  and  C_11
REMARK                            x       y       z     vdW  Elec       q    Type
REMARK                         _______ _______ _______ _____ _____    ______ ____
ROOT
ATOM      1  C   UNL     1     103.091 125.215  82.193  0.00  0.00    +0.000 C 
ATOM      2  O   UNL     1     102.984 124.688  83.293  0.00  0.00    +0.000 OA
ATOM      3  N   UNL     1     102.341 126.270  81.711  0.00  0.00    +0.000 N 
ATOM      4  H   UNL     1     102.515 126.534  80.778  0.00  0.00    +0.000 HD
ENDROOT
BRANCH   3   5
ATOM      5  C   UNL     1     101.353 127.019  82.397  0.00  0.00    +0.000 A 
ATOM      6  C   UNL     1     101.755 128.189  83.072  0.00  0.00    +0.000 A 
ATOM      7  C   UNL     1     100.832 128.971  83.773  0.00  0.00    +0.000 A 
ATOM      8  C   UNL     1      99.492 128.590  83.812  0.00  0.00    +0.000 A 
ATOM      9  C   UNL     1      99.087 127.431  83.152  0.00  0.00    +0.000 A 
ATOM     10  C   UNL     1     100.006 126.646  82.449  0.00  0.00    +0.000 A 
ATOM     11 CL   UNL     1      97.431 126.962  83.211  0.00  0.00    +0.000 Cl
ATOM     12 CL   UNL     1     103.409 128.702  83.057  0.00  0.00    +0.000 Cl
ENDBRANCH   3   5
BRANCH   1  15
ATOM     13  C   UNL     1     105.478 125.003  79.272  0.00  0.00    +0.000 A 
ATOM     14  C   UNL     1     104.545 125.483  80.194  0.00  0.00    +0.000 A 
ATOM     15  C   UNL     1     104.091 124.661  81.237  0.00  0.00    +0.000 A 
ATOM     16  C   UNL     1     104.556 123.345  81.336  0.00  0.00    +0.000 A 
ATOM     17  C   UNL     1     105.483 122.882  80.410  0.00  0.00    +0.000 A 
ATOM     18  C   UNL     1     105.953 123.697  79.384  0.00  0.00    +0.000 A 
ATOM     19  F   UNL     1     105.929 121.623  80.504  0.00  0.00    +0.000 F 
ENDBRANCH   1  15
TORSDOF 2
ENDMDL
