REMARK  Name = *****
REMARK  6 active torsions:
REMARK  status: ('A' for Active; 'I' for Inactive)
REMARK    1  A    between atoms: C_1  and  C_2
REMARK    2  A    between atoms: C_3  and  C_9
REMARK    3  A    between atoms: C_4  and  C_8
REMARK    4  A    between atoms: C_10  and  C_11
REMARK    5  A    between atoms: C_14  and  O_17
REMARK    6  A    between atoms: O_17  and  C_18
REMARK                            x       y       z     vdW  Elec       q    Type
REMARK                         _______ _______ _______ _____ _____    ______ ____
ROOT
ATOM      1  C   UNL     1       2.444  -2.451   0.308  0.00  0.00    +0.000 C 
ATOM      2  C   UNL     1       1.855  -3.495   0.389  0.00  0.00    +0.000 C 
ENDROOT
BRANCH   1   5
ATOM      3  C   UNL     1       0.938   0.053   0.241  0.00  0.00    +0.000 C 
ATOM      4  C   UNL     1       2.442   0.013   0.210  0.00  0.00    +0.000 A 
ATOM      5  C   UNL     1       3.155  -1.205   0.226  0.00  0.00    +0.000 A 
ATOM      6  C   UNL     1       4.565  -1.204   0.168  0.00  0.00    +0.000 A 
ATOM      7  C   UNL     1       5.246   0.021   0.100  0.00  0.00    +0.000 A 
ATOM      8  C   UNL     1       4.544   1.224   0.074  0.00  0.00    +0.000 A 
ATOM      9  C   UNL     1       3.152   1.220   0.123  0.00  0.00    +0.000 A 
ATOM     10  C   UNL     1       5.359  -2.482   0.204  0.00  0.00    +0.000 C 
ENDBRANCH   1   5
BRANCH   2  11
ATOM     11  C   UNL     1       1.157  -4.738   0.502  0.00  0.00    +0.000 A 
ATOM     12  C   UNL     1       1.858  -5.942   0.443  0.00  0.00    +0.000 A 
ATOM     13  C   UNL     1       1.172  -7.153   0.567  0.00  0.00    +0.000 A 
ATOM     14  C   UNL     1      -0.213  -7.173   0.754  0.00  0.00    +0.000 A 
ATOM     15  C   UNL     1      -0.912  -5.966   0.806  0.00  0.00    +0.000 A 
ATOM     16  C   UNL     1      -0.227  -4.751   0.681  0.00  0.00    +0.000 A 
BRANCH  14  17
ATOM     17  O   UNL     1      -0.756  -8.422   0.867  0.00  0.00    +0.000 OA
ATOM     18  C   UNL     1      -2.152  -8.495   1.133  0.00  0.00    +0.000 C 
ENDBRANCH  14  17
ENDBRANCH   2  11
TORSDOF 3
