MODEL 1
REMARK VINA RESULT:      -4.7      0.000      0.000
REMARK  Name = *****
REMARK  4 active torsions:
REMARK  status: ('A' for Active; 'I' for Inactive)
REMARK    1  A    between atoms: C_1  and  C_2
REMARK    2  A    between atoms: C_5  and  S_8
REMARK    3  A    between atoms: S_8  and  N_10
REMARK    4  A    between atoms: N_10  and  C_11
REMARK                            x       y       z     vdW  Elec       q    Type
REMARK                         _______ _______ _______ _____ _____    ______ ____
ROOT
ATOM      1  S   UNL     1      88.894  64.140  86.367  0.00  0.00    +0.000 S 
ATOM      2  O   UNL     1      90.107  63.781  85.564  0.00  0.00    +0.000 OA
ENDROOT
BRANCH   1   7
ATOM      3  C   UNL     1      89.035  70.211  87.110  0.00  0.00    +0.000 C 
ATOM      4  C   UNL     1      89.012  68.718  86.955  0.00  0.00    +0.000 A 
ATOM      5  C   UNL     1      87.918  67.977  87.418  0.00  0.00    +0.000 A 
ATOM      6  C   UNL     1      87.881  66.591  87.249  0.00  0.00    +0.000 A 
ATOM      7  C   UNL     1      88.929  65.930  86.603  0.00  0.00    +0.000 A 
ATOM      8  C   UNL     1      90.019  66.670  86.129  0.00  0.00    +0.000 A 
ATOM      9  C   UNL     1      90.056  68.056  86.298  0.00  0.00    +0.000 A 
ENDBRANCH   1   7
BRANCH   1  10
ATOM     10  N   UNL     1      89.149  63.815  87.982  0.00  0.00    +0.000 N 
ATOM     11  H   UNL     1      90.073  63.866  88.316  0.00  0.00    +0.000 HD
BRANCH  10  12
ATOM     12  C   UNL     1      88.140  63.475  88.904  0.00  0.00    +0.000 A 
ATOM     13  C   UNL     1      87.986  64.086  90.156  0.00  0.00    +0.000 A 
ATOM     14  C   UNL     1      86.938  63.728  91.015  0.00  0.00    +0.000 A 
ATOM     15  C   UNL     1      86.019  62.763  90.621  0.00  0.00    +0.000 A 
ATOM     16  C   UNL     1      86.132  62.159  89.374  0.00  0.00    +0.000 A 
ATOM     17  C   UNL     1      87.180  62.522  88.521  0.00  0.00    +0.000 A 
ATOM     18 CL   UNL     1      84.733  62.322  91.673  0.00  0.00    +0.000 Cl
ENDBRANCH  10  12
ENDBRANCH   1  10
TORSDOF 3
ENDMDL
