REMARK  Name = *****
REMARK  0 active torsions:
REMARK  status: ('A' for Active; 'I' for Inactive)
REMARK                            x       y       z     vdW  Elec       q    Type
REMARK                         _______ _______ _______ _____ _____    ______ ____
ROOT
ATOM      1  C   UNL     1       4.007  -0.785  -1.039  0.00  0.00    +0.000 A 
ATOM      2  C   UNL     1       4.282   0.248  -0.147  0.00  0.00    +0.000 A 
ATOM      3  C   UNL     1       3.237   1.001   0.396  0.00  0.00    +0.000 A 
ATOM      4  C   UNL     1       1.899   0.735   0.059  0.00  0.00    +0.000 A 
ATOM      5  C   UNL     1       1.638  -0.329  -0.820  0.00  0.00    +0.000 A 
ATOM      6  C   UNL     1       2.686  -1.069  -1.379  0.00  0.00    +0.000 A 
ATOM      7  O   UNL     1       0.378  -0.689  -1.237  0.00  0.00    +0.000 OA
ATOM      8  O   UNL     1      -0.393  -0.976  -0.034  0.00  0.00    +0.000 OA
ATOM      9  C   UNL     1      -1.649  -0.457  -0.240  0.00  0.00    +0.000 A 
ATOM     10  C   UNL     1      -2.703  -1.365  -0.083  0.00  0.00    +0.000 A 
ATOM     11  C   UNL     1      -4.021  -0.948  -0.255  0.00  0.00    +0.000 A 
ATOM     12  C   UNL     1      -4.288   0.380  -0.574  0.00  0.00    +0.000 A 
ATOM     13  C   UNL     1      -3.237   1.291  -0.712  0.00  0.00    +0.000 A 
ATOM     14  C   UNL     1      -1.902   0.892  -0.534  0.00  0.00    +0.000 A 
ATOM     15  S   UNL     1      -0.661   2.172  -0.713  0.00  0.00    +0.000 S 
ATOM     16  S   UNL     1       0.667   1.798   0.808  0.00  0.00    +0.000 S 
ENDROOT
TORSDOF 0
