MODEL 1
REMARK VINA RESULT:      -4.7      0.000      0.000
REMARK  Name = *****
REMARK  3 active torsions:
REMARK  status: ('A' for Active; 'I' for Inactive)
REMARK    1  A    between atoms: C_1  and  C_2
REMARK    2  A    between atoms: C_4  and  N_8
REMARK    3  A    between atoms: C_9  and  C_10
REMARK                            x       y       z     vdW  Elec       q    Type
REMARK                         _______ _______ _______ _____ _____    ______ ____
ROOT
ATOM      1  N   UNL     1     102.942 126.392  81.425  0.00  0.00    +0.000 NA
ATOM      2  C   UNL     1     101.897 126.037  82.105  0.00  0.00    +0.000 C 
ENDROOT
BRANCH   1   6
ATOM      3  C   UNL     1     106.290 124.584  78.260  0.00  0.00    +0.000 C 
ATOM      4  C   UNL     1     105.434 124.433  79.482  0.00  0.00    +0.000 A 
ATOM      5  C   UNL     1     104.577 125.469  79.880  0.00  0.00    +0.000 A 
ATOM      6  C   UNL     1     103.795 125.350  81.033  0.00  0.00    +0.000 A 
ATOM      7  C   UNL     1     103.900 124.199  81.815  0.00  0.00    +0.000 A 
ATOM      8  C   UNL     1     104.760 123.167  81.439  0.00  0.00    +0.000 A 
ATOM      9  C   UNL     1     105.526 123.285  80.278  0.00  0.00    +0.000 A 
ENDBRANCH   1   6
BRANCH   2  10
ATOM     10  C   UNL     1     100.907 127.018  82.586  0.00  0.00    +0.000 A 
ATOM     11  C   UNL     1      99.540 126.823  82.369  0.00  0.00    +0.000 A 
ATOM     12  C   UNL     1      98.623 127.765  82.833  0.00  0.00    +0.000 A 
ATOM     13  C   UNL     1      99.069 128.900  83.512  0.00  0.00    +0.000 A 
ATOM     14  C   UNL     1     100.434 129.094  83.728  0.00  0.00    +0.000 A 
ATOM     15  C   UNL     1     101.357 128.154  83.265  0.00  0.00    +0.000 A 
ENDBRANCH   2  10
TORSDOF 2
ENDMDL
