REMARK  Name = *****
REMARK  3 active torsions:
REMARK  status: ('A' for Active; 'I' for Inactive)
REMARK    1  A    between atoms: C_4  and  O_7
REMARK    2  A    between atoms: O_7  and  C_8
REMARK    3  A    between atoms: C_8  and  C_10
REMARK                            x       y       z     vdW  Elec       q    Type
REMARK                         _______ _______ _______ _____ _____    ______ ____
ROOT
ATOM      1  C   UNL     1      -3.596  -0.694  -0.307  0.00  0.00    +0.000 C 
ATOM      2  O   UNL     1      -3.273  -1.856  -0.113  0.00  0.00    +0.000 OA
ENDROOT
BRANCH   1   3
ATOM      3  C   UNL     1      -4.996  -0.282  -0.615  0.00  0.00    +0.000 A 
ATOM      4  C   UNL     1      -5.362   1.055  -0.841  0.00  0.00    +0.000 A 
ATOM      5  C   UNL     1      -6.691   1.379  -1.126  0.00  0.00    +0.000 A 
ATOM      6  C   UNL     1      -7.649   0.372  -1.185  0.00  0.00    +0.000 A 
ATOM      7  C   UNL     1      -7.304  -0.956  -0.964  0.00  0.00    +0.000 A 
ATOM      8  C   UNL     1      -5.977  -1.285  -0.679  0.00  0.00    +0.000 A 
ATOM      9  F   UNL     1      -8.921   0.688  -1.458  0.00  0.00    +0.000 F 
ENDBRANCH   1   3
BRANCH   1  10
ATOM     10  O   UNL     1      -2.779   0.421  -0.278  0.00  0.00    +0.000 OA
BRANCH  10  14
ATOM     11  C   UNL     1       1.283  -0.139   0.501  0.00  0.00    +0.000 A 
ATOM     12  C   UNL     1       0.715  -0.740  -0.625  0.00  0.00    +0.000 A 
ATOM     13  C   UNL     1      -0.644  -0.575  -0.893  0.00  0.00    +0.000 A 
ATOM     14  C   UNL     1      -1.425   0.178  -0.017  0.00  0.00    +0.000 A 
ATOM     15  C   UNL     1      -0.863   0.799   1.097  0.00  0.00    +0.000 A 
ATOM     16  C   UNL     1       0.496   0.632   1.359  0.00  0.00    +0.000 A 
ENDBRANCH  10  14
ENDBRANCH   1  10
TORSDOF 3
