REMARK  Name = *****
REMARK  3 active torsions:
REMARK  status: ('A' for Active; 'I' for Inactive)
REMARK    1  A    between atoms: C_4  and  C_7
REMARK    2  A    between atoms: C_7  and  C_9
REMARK    3  A    between atoms: C_9  and  C_12
REMARK                            x       y       z     vdW  Elec       q    Type
REMARK                         _______ _______ _______ _____ _____    ______ ____
ROOT
ATOM      1  C   UNL     1      -3.756  -0.597   0.325  0.00  0.00    +0.000 C 
ATOM      2  N   UNL     1      -3.387  -1.980   0.404  0.00  0.00    +0.000 NA
ATOM      3  N   UNL     1      -3.717  -1.455   1.477  0.00  0.00    +0.000 NA
ENDROOT
BRANCH   1   4
ATOM      4  C   UNL     1      -5.144  -0.250  -0.177  0.00  0.00    +0.000 A 
ATOM      5  C   UNL     1      -5.715  -0.882  -1.298  0.00  0.00    +0.000 A 
ATOM      6  C   UNL     1      -6.990  -0.543  -1.759  0.00  0.00    +0.000 A 
ATOM      7  C   UNL     1      -7.727   0.440  -1.106  0.00  0.00    +0.000 A 
ATOM      8  C   UNL     1      -7.192   1.081   0.007  0.00  0.00    +0.000 A 
ATOM      9  C   UNL     1      -5.918   0.737   0.464  0.00  0.00    +0.000 A 
ENDBRANCH   1   4
BRANCH   1  10
ATOM     10  C   UNL     1      -2.683   0.439   0.228  0.00  0.00    +0.000 C 
ATOM     11  O   UNL     1      -2.587   1.313   1.088  0.00  0.00    +0.000 OA
BRANCH  10  15
ATOM     12  C   UNL     1       0.043   0.549  -3.090  0.00  0.00    +0.000 A 
ATOM     13  C   UNL     1       0.167   1.449  -2.035  0.00  0.00    +0.000 A 
ATOM     14  C   UNL     1      -0.728   1.396  -0.965  0.00  0.00    +0.000 A 
ATOM     15  C   UNL     1      -1.755   0.440  -0.940  0.00  0.00    +0.000 A 
ATOM     16  C   UNL     1      -1.873  -0.460  -2.007  0.00  0.00    +0.000 A 
ATOM     17  C   UNL     1      -0.974  -0.404  -3.077  0.00  0.00    +0.000 A 
ENDBRANCH  10  15
ENDBRANCH   1  10
TORSDOF 3
