MODEL 1
REMARK VINA RESULT:      -4.7      0.000      0.000
REMARK  Name = *****
REMARK  1 active torsions:
REMARK  status: ('A' for Active; 'I' for Inactive)
REMARK    1  A    between atoms: C_7  and  C_10
REMARK                            x       y       z     vdW  Elec       q    Type
REMARK                         _______ _______ _______ _____ _____    ______ ____
ROOT
ATOM      1  C   UNL     1      99.279 129.110  85.652  0.00  0.00    +0.000 C 
ATOM      2  C   UNL     1      99.046 129.433  84.163  0.00  0.00    +0.000 C 
ATOM      3  C   UNL     1     100.049 128.296  83.797  0.00  0.00    +0.000 C 
ATOM      4  C   UNL     1      99.754 127.710  85.220  0.00  0.00    +0.000 C 
ATOM      5  C   UNL     1      99.570 127.416  82.629  0.00  0.00    +0.000 C 
ATOM      6  C   UNL     1     100.632 126.415  82.262  0.00  0.00    +0.000 C 
ATOM      7  C   UNL     1     101.943 126.652  82.469  0.00  0.00    +0.000 C 
ATOM      8  C   UNL     1     102.344 127.935  83.028  0.00  0.00    +0.000 C 
ATOM      9  C   UNL     1     101.472 128.754  83.636  0.00  0.00    +0.000 C 
ENDROOT
BRANCH   7  10
ATOM     10  C   UNL     1     102.924 125.626  82.067  0.00  0.00    +0.000 A 
ATOM     11  C   UNL     1     103.456 124.734  83.007  0.00  0.00    +0.000 A 
ATOM     12  C   UNL     1     104.374 123.758  82.611  0.00  0.00    +0.000 A 
ATOM     13  C   UNL     1     104.764 123.667  81.276  0.00  0.00    +0.000 A 
ATOM     14  C   UNL     1     104.236 124.549  80.333  0.00  0.00    +0.000 A 
ATOM     15  C   UNL     1     103.316 125.524  80.727  0.00  0.00    +0.000 A 
ENDBRANCH   7  10
TORSDOF 1
ENDMDL
