MODEL 1
REMARK VINA RESULT:      -5.0      0.000      0.000
REMARK  Name = *****
REMARK  4 active torsions:
REMARK  status: ('A' for Active; 'I' for Inactive)
REMARK    1  A    between atoms: C_1  and  C_2
REMARK    2  A    between atoms: C_5  and  C_8
REMARK    3  A    between atoms: C_8  and  C_16
REMARK    4  A    between atoms: C_9  and  C_10
REMARK                            x       y       z     vdW  Elec       q    Type
REMARK                         _______ _______ _______ _____ _____    ______ ____
ROOT
ATOM      1  C   UNL     1     103.032 125.721  81.624  0.00  0.00    +0.000 C 
ATOM      2  C   UNL     1     102.054 125.746  82.554  0.00  0.00    +0.000 C 
ENDROOT
BRANCH   1   7
ATOM      3  C   UNL     1     106.485 121.066  81.336  0.00  0.00    +0.000 C 
ATOM      4  C   UNL     1     105.567 122.251  81.402  0.00  0.00    +0.000 A 
ATOM      5  C   UNL     1     105.345 123.039  80.268  0.00  0.00    +0.000 A 
ATOM      6  C   UNL     1     104.518 124.163  80.337  0.00  0.00    +0.000 A 
ATOM      7  C   UNL     1     103.903 124.527  81.544  0.00  0.00    +0.000 A 
ATOM      8  C   UNL     1     104.145 123.746  82.683  0.00  0.00    +0.000 A 
ATOM      9  C   UNL     1     104.972 122.621  82.613  0.00  0.00    +0.000 A 
ENDBRANCH   1   7
BRANCH   2  10
ATOM     10  C   UNL     1     101.109 126.846  82.791  0.00  0.00    +0.000 A 
ATOM     11  C   UNL     1      99.770 126.764  82.393  0.00  0.00    +0.000 A 
ATOM     12  C   UNL     1      98.891 127.817  82.656  0.00  0.00    +0.000 A 
ATOM     13  C   UNL     1      99.341 128.953  83.326  0.00  0.00    +0.000 A 
ATOM     14  C   UNL     1     100.670 129.036  83.739  0.00  0.00    +0.000 A 
ATOM     15  C   UNL     1     101.551 127.985  83.476  0.00  0.00    +0.000 A 
ENDBRANCH   2  10
BRANCH   1  16
ATOM     16  C   UNL     1     103.291 126.820  80.746  0.00  0.00    +0.000 C 
ATOM     17  N   UNL     1     103.517 127.715  80.040  0.00  0.00    +0.000 NA
ENDBRANCH   1  16
TORSDOF 3
ENDMDL
