MODEL 1
REMARK VINA RESULT:      -4.5      0.000      0.000
REMARK  Name = *****
REMARK  3 active torsions:
REMARK  status: ('A' for Active; 'I' for Inactive)
REMARK    1  A    between atoms: C_3  and  C_8
REMARK    2  A    between atoms: C_8  and  O_9
REMARK    3  A    between atoms: O_9  and  C_10
REMARK                            x       y       z     vdW  Elec       q    Type
REMARK                         _______ _______ _______ _____ _____    ______ ____
ROOT
ATOM      1  C   UNL     1     102.898 126.442  81.640  0.00  0.00    +0.000 C 
ENDROOT
BRANCH   1   4
ATOM      2  C   UNL     1     104.721 123.095  81.439  0.00  0.00    +0.000 A 
ATOM      3  C   UNL     1     103.900 124.132  81.883  0.00  0.00    +0.000 A 
ATOM      4  C   UNL     1     103.794 125.326  81.152  0.00  0.00    +0.000 A 
ATOM      5  C   UNL     1     104.524 125.459  79.962  0.00  0.00    +0.000 A 
ATOM      6  C   UNL     1     105.342 124.418  79.521  0.00  0.00    +0.000 A 
ATOM      7  C   UNL     1     105.445 123.238  80.255  0.00  0.00    +0.000 A 
ATOM      8 CL   UNL     1     106.233 124.593  78.059  0.00  0.00    +0.000 Cl
ENDBRANCH   1   4
BRANCH   1   9
ATOM      9  O   UNL     1     101.668 125.862  82.076  0.00  0.00    +0.000 OA
BRANCH   9  10
ATOM     10  C   UNL     1     100.733 126.798  82.461  0.00  0.00    +0.000 A 
ATOM     11  N   UNL     1      99.431 126.619  82.148  0.00  0.00    +0.000 NA
ATOM     12  C   UNL     1      98.567 127.572  82.559  0.00  0.00    +0.000 A 
ATOM     13  C   UNL     1      98.945 128.695  83.272  0.00  0.00    +0.000 A 
ATOM     14  C   UNL     1     100.293 128.842  83.570  0.00  0.00    +0.000 A 
ATOM     15  C   UNL     1     101.213 127.886  83.163  0.00  0.00    +0.000 A 
ATOM     16 CL   UNL     1     100.824 130.217  84.456  0.00  0.00    +0.000 Cl
ENDBRANCH   9  10
ENDBRANCH   1   9
TORSDOF 3
ENDMDL
