MODEL 1
REMARK VINA RESULT:      -3.0      0.000      0.000
REMARK  Name = *****
REMARK  3 active torsions:
REMARK  status: ('A' for Active; 'I' for Inactive)
REMARK    1  A    between atoms: C_5  and  S_6
REMARK    2  A    between atoms: S_6  and  S_7
REMARK    3  A    between atoms: S_7  and  C_8
REMARK                            x       y       z     vdW  Elec       q    Type
REMARK                         _______ _______ _______ _____ _____    ______ ____
ROOT
ATOM      1  S   UNL     1     103.619 127.239  80.493  0.00  0.00    +0.000 S 
ENDROOT
BRANCH   1   6
ATOM      2  C   UNL     1     103.874 124.557  81.292  0.00  0.00    +0.000 A 
ATOM      3  C   UNL     1     104.597 123.404  81.070  0.00  0.00    +0.000 A 
ATOM      4  S   UNL     1     105.800 123.619  79.869  0.00  0.00    +0.000 S 
ATOM      5  C   UNL     1     105.354 125.257  79.640  0.00  0.00    +0.000 A 
ATOM      6  C   UNL     1     104.321 125.629  80.468  0.00  0.00    +0.000 A 
ENDBRANCH   1   6
BRANCH   1   7
ATOM      7  S   UNL     1     103.536 127.677  82.501  0.00  0.00    +0.000 S 
BRANCH   7   8
ATOM      8  C   UNL     1     101.812 127.685  82.847  0.00  0.00    +0.000 A 
ATOM      9  C   UNL     1     101.156 128.635  83.596  0.00  0.00    +0.000 A 
ATOM     10  S   UNL     1      99.479 128.307  83.715  0.00  0.00    +0.000 S 
ATOM     11  C   UNL     1      99.629 126.903  82.747  0.00  0.00    +0.000 A 
ATOM     12  C   UNL     1     100.930 126.688  82.345  0.00  0.00    +0.000 A 
ENDBRANCH   7   8
ENDBRANCH   1   7
TORSDOF 3
ENDMDL
