MODEL 1
REMARK VINA RESULT:      -4.8      0.000      0.000
REMARK  Name = *****
REMARK  2 active torsions:
REMARK  status: ('A' for Active; 'I' for Inactive)
REMARK    1  A    between atoms: C_5  and  C_7
REMARK    2  A    between atoms: N_8  and  C_9
REMARK                            x       y       z     vdW  Elec       q    Type
REMARK                         _______ _______ _______ _____ _____    ______ ____
ROOT
ATOM      1  C   UNL     1     101.857 126.180  82.238  0.00  0.00    +0.000 C 
ATOM      2  N   UNL     1     102.901 126.480  81.530  0.00  0.00    +0.000 NA
ENDROOT
BRANCH   1   7
ATOM      3  C   UNL     1     100.467 129.301  83.846  0.00  0.00    +0.000 A 
ATOM      4  C   UNL     1      99.103 129.140  83.593  0.00  0.00    +0.000 A 
ATOM      5  C   UNL     1      98.648 128.017  82.901  0.00  0.00    +0.000 A 
ATOM      6  C   UNL     1      99.561 127.059  82.465  0.00  0.00    +0.000 A 
ATOM      7  C   UNL     1     100.923 127.214  82.714  0.00  0.00    +0.000 A 
ATOM      8  C   UNL     1     101.381 128.339  83.407  0.00  0.00    +0.000 A 
ATOM      9  F   UNL     1      99.104 125.987  81.803  0.00  0.00    +0.000 F 
ENDBRANCH   1   7
BRANCH   2  10
ATOM     10  C   UNL     1     103.707 125.402  81.138  0.00  0.00    +0.000 A 
ATOM     11  C   UNL     1     104.415 125.441  79.936  0.00  0.00    +0.000 A 
ATOM     12  C   UNL     1     105.222 124.367  79.580  0.00  0.00    +0.000 A 
ATOM     13  C   UNL     1     105.347 123.254  80.404  0.00  0.00    +0.000 A 
ATOM     14  C   UNL     1     104.655 123.216  81.613  0.00  0.00    +0.000 A 
ATOM     15  C   UNL     1     103.842 124.291  81.979  0.00  0.00    +0.000 A 
ATOM     16  F   UNL     1     105.894 124.405  78.421  0.00  0.00    +0.000 F 
ENDBRANCH   2  10
TORSDOF 2
ENDMDL
