MODEL 1
REMARK VINA RESULT:      -4.6      0.000      0.000
REMARK  Name = *****
REMARK  2 active torsions:
REMARK  status: ('A' for Active; 'I' for Inactive)
REMARK    1  A    between atoms: C_4  and  C_7
REMARK    2  A    between atoms: N_8  and  C_9
REMARK                            x       y       z     vdW  Elec       q    Type
REMARK                         _______ _______ _______ _____ _____    ______ ____
ROOT
ATOM      1  C   UNL     1     102.011 126.053  82.169  0.00  0.00    +0.000 C 
ATOM      2  N   UNL     1     102.903 126.345  81.273  0.00  0.00    +0.000 NA
ENDROOT
BRANCH   2   3
ATOM      3  C   UNL     1     103.792 125.317  80.934  0.00  0.00    +0.000 A 
ATOM      4  C   UNL     1     104.589 125.415  79.791  0.00  0.00    +0.000 A 
ATOM      5  C   UNL     1     105.480 124.391  79.476  0.00  0.00    +0.000 A 
ATOM      6  C   UNL     1     105.593 123.270  80.299  0.00  0.00    +0.000 A 
ATOM      7  C   UNL     1     104.812 123.176  81.450  0.00  0.00    +0.000 A 
ATOM      8  C   UNL     1     103.917 124.200  81.766  0.00  0.00    +0.000 A 
ATOM      9 CL   UNL     1     106.451 124.510  78.060  0.00  0.00    +0.000 Cl
ENDBRANCH   2   3
BRANCH   1  13
ATOM     10  C   UNL     1      99.080 128.866  83.464  0.00  0.00    +0.000 A 
ATOM     11  C   UNL     1     100.430 129.107  83.727  0.00  0.00    +0.000 A 
ATOM     12  C   UNL     1     101.397 128.193  83.307  0.00  0.00    +0.000 A 
ATOM     13  C   UNL     1     101.009 127.037  82.623  0.00  0.00    +0.000 A 
ATOM     14  C   UNL     1      99.658 126.793  82.359  0.00  0.00    +0.000 A 
ATOM     15  C   UNL     1      98.695 127.712  82.781  0.00  0.00    +0.000 A 
ENDBRANCH   1  13
TORSDOF 2
ENDMDL
