MODEL 1
REMARK VINA RESULT:      -5.1      0.000      0.000
REMARK  Name = *****
REMARK  1 active torsions:
REMARK  status: ('A' for Active; 'I' for Inactive)
REMARK    1  A    between atoms: C_6  and  C_7
REMARK                            x       y       z     vdW  Elec       q    Type
REMARK                         _______ _______ _______ _____ _____    ______ ____
ROOT
ATOM      1  C   UNL     1     103.033 128.866  83.594  0.00  0.00    +0.000 C 
ATOM      2  C   UNL     1     103.817 128.140  84.685  0.00  0.00    +0.000 C 
ATOM      3  S   UNL     1     104.880 126.798  84.060  0.00  0.00    +0.000 S 
ATOM      4  C   UNL     1     103.613 125.635  83.473  0.00  0.00    +0.000 C 
ATOM      5  C   UNL     1     102.852 126.177  82.294  0.00  0.00    +0.000 C 
ATOM      6  C   UNL     1     103.127 125.950  80.993  0.00  0.00    +0.000 C 
ATOM      7  C   UNL     1     101.639 126.956  82.621  0.00  0.00    +0.000 A 
ATOM      8  C   UNL     1     100.382 126.410  82.310  0.00  0.00    +0.000 A 
ATOM      9  C   UNL     1      99.207 127.097  82.618  0.00  0.00    +0.000 A 
ATOM     10  C   UNL     1      99.277 128.338  83.241  0.00  0.00    +0.000 A 
ATOM     11  C   UNL     1     100.518 128.891  83.555  0.00  0.00    +0.000 A 
ATOM     12  C   UNL     1     101.712 128.211  83.253  0.00  0.00    +0.000 A 
ENDROOT
BRANCH   6  13
ATOM     13  C   UNL     1     104.253 125.151  80.504  0.00  0.00    +0.000 A 
ATOM     14  C   UNL     1     105.307 125.779  79.830  0.00  0.00    +0.000 A 
ATOM     15  C   UNL     1     106.385 125.028  79.359  0.00  0.00    +0.000 A 
ATOM     16  C   UNL     1     106.417 123.649  79.559  0.00  0.00    +0.000 A 
ATOM     17  C   UNL     1     105.372 123.019  80.233  0.00  0.00    +0.000 A 
ATOM     18  C   UNL     1     104.293 123.768  80.706  0.00  0.00    +0.000 A 
ENDBRANCH   6  13
TORSDOF 1
ENDMDL
