REMARK  Name = *****
REMARK  5 active torsions:
REMARK  status: ('A' for Active; 'I' for Inactive)
REMARK    1  A    between atoms: C_1  and  C_2
REMARK    2  A    between atoms: C_4  and  C_16
REMARK    3  A    between atoms: C_5  and  C_8
REMARK    4  A    between atoms: C_9  and  C_10
REMARK    5  A    between atoms: C_16  and  C_18
REMARK                            x       y       z     vdW  Elec       q    Type
REMARK                         _______ _______ _______ _____ _____    ______ ____
ROOT
ATOM      1  C   UNL     1      -2.563   0.084  -0.090  0.00  0.00    +0.000 C 
ATOM      2  C   UNL     1      -1.113  -0.076   0.355  0.00  0.00    +0.000 C 
ATOM      3  C   UNL     1      -0.472  -1.314  -0.285  0.00  0.00    +0.000 C 
ATOM      4  C   UNL     1       1.020  -1.413   0.089  0.00  0.00    +0.000 C 
ATOM      5  C   UNL     1       1.726  -0.067  -0.227  0.00  0.00    +0.000 C 
ATOM      6  O   UNL     1       1.058   1.010   0.447  0.00  0.00    +0.000 OA
ATOM      7  C   UNL     1      -0.293   1.168   0.017  0.00  0.00    +0.000 C 
ENDROOT
BRANCH   4   8
ATOM      8  C   UNL     1       1.668  -2.641  -0.548  0.00  0.00    +0.000 C 
ATOM      9  C   UNL     1       2.126  -3.652   0.210  0.00  0.00    +0.000 C 
ATOM     10  C   UNL     1       1.791  -2.692  -2.047  0.00  0.00    +0.000 C 
ENDBRANCH   4   8
BRANCH   5  11
ATOM     11  C   UNL     1       3.148  -0.032   0.266  0.00  0.00    +0.000 C 
ATOM     12  C   UNL     1       4.220   0.106  -0.530  0.00  0.00    +0.000 C 
BRANCH  12  13
ATOM     13  C   UNL     1       5.607   0.132  -0.048  0.00  0.00    +0.000 A 
ATOM     14  C   UNL     1       6.610  -0.452  -0.833  0.00  0.00    +0.000 A 
ATOM     15  C   UNL     1       7.945  -0.422  -0.422  0.00  0.00    +0.000 A 
ATOM     16  C   UNL     1       8.293   0.202   0.773  0.00  0.00    +0.000 A 
ATOM     17  C   UNL     1       7.308   0.801   1.556  0.00  0.00    +0.000 A 
ATOM     18  C   UNL     1       5.973   0.771   1.145  0.00  0.00    +0.000 A 
ENDBRANCH  12  13
ENDBRANCH   5  11
TORSDOF 3
