MODEL 1
REMARK VINA RESULT:      -4.1      0.000      0.000
REMARK  Name = *****
REMARK  2 active torsions:
REMARK  status: ('A' for Active; 'I' for Inactive)
REMARK    1  A    between atoms: C_4  and  C_7
REMARK    2  A    between atoms: N_8  and  C_9
REMARK                            x       y       z     vdW  Elec       q    Type
REMARK                         _______ _______ _______ _____ _____    ______ ____
ROOT
ATOM      1  C   UNL     1      87.403  68.833  87.789  0.00  0.00    +0.000 C 
ATOM      2  N   UNL     1      87.761  68.769  86.541  0.00  0.00    +0.000 NA
ATOM      3 CL   UNL     1      86.893  67.311  88.458  0.00  0.00    +0.000 Cl
ENDROOT
BRANCH   2   4
ATOM      4  C   UNL     1      88.133  69.912  85.826  0.00  0.00    +0.000 A 
ATOM      5  C   UNL     1      89.491  70.189  85.640  0.00  0.00    +0.000 A 
ATOM      6  C   UNL     1      89.894  71.310  84.911  0.00  0.00    +0.000 A 
ATOM      7  C   UNL     1      88.933  72.147  84.348  0.00  0.00    +0.000 A 
ATOM      8  C   UNL     1      87.577  71.867  84.500  0.00  0.00    +0.000 A 
ATOM      9  C   UNL     1      87.180  70.744  85.229  0.00  0.00    +0.000 A 
ATOM     10 CL   UNL     1      89.426  73.531  83.451  0.00  0.00    +0.000 Cl
ENDBRANCH   2   4
BRANCH   1  14
ATOM     11  C   UNL     1      87.321  72.284  90.306  0.00  0.00    +0.000 A 
ATOM     12  C   UNL     1      86.146  71.824  89.711  0.00  0.00    +0.000 A 
ATOM     13  C   UNL     1      86.176  70.698  88.887  0.00  0.00    +0.000 A 
ATOM     14  C   UNL     1      87.388  70.038  88.656  0.00  0.00    +0.000 A 
ATOM     15  C   UNL     1      88.564  70.491  89.264  0.00  0.00    +0.000 A 
ATOM     16  C   UNL     1      88.528  71.619  90.085  0.00  0.00    +0.000 A 
ENDBRANCH   1  14
TORSDOF 2
ENDMDL
