MODEL 1
REMARK VINA RESULT:      -4.2      0.000      0.000
REMARK  Name = *****
REMARK  3 active torsions:
REMARK  status: ('A' for Active; 'I' for Inactive)
REMARK    1  A    between atoms: C_4  and  S_7
REMARK    2  A    between atoms: S_7  and  C_8
REMARK    3  A    between atoms: C_8  and  C_10
REMARK                            x       y       z     vdW  Elec       q    Type
REMARK                         _______ _______ _______ _____ _____    ______ ____
ROOT
ATOM      1  S   UNL     1     101.658 126.176  83.471  0.00  0.00    +0.000 S 
ENDROOT
BRANCH   1   5
ATOM      2  C   UNL     1     104.814 126.052  80.083  0.00  0.00    +0.000 C 
ATOM      3  C   UNL     1     104.238 124.721  80.554  0.00  0.00    +0.000 C 
ATOM      4  C   UNL     1     103.516 124.861  81.895  0.00  0.00    +0.000 C 
ATOM      5  C   UNL     1     102.430 125.943  81.832  0.00  0.00    +0.000 C 
ATOM      6  C   UNL     1     103.025 127.283  81.374  0.00  0.00    +0.000 C 
ATOM      7  C   UNL     1     103.747 127.140  80.034  0.00  0.00    +0.000 C 
ENDBRANCH   1   5
BRANCH   1   8
ATOM      8  C   UNL     1     100.273 127.161  83.031  0.00  0.00    +0.000 C 
ATOM      9  O   UNL     1      99.360 126.737  82.334  0.00  0.00    +0.000 OA
BRANCH   8  10
ATOM     10  C   UNL     1     100.266 128.555  83.543  0.00  0.00    +0.000 C 
ATOM     11  C   UNL     1     101.233 129.248  84.164  0.00  0.00    +0.000 C 
ATOM     12  C   UNL     1     100.781 130.622  84.533  0.00  0.00    +0.000 C 
ATOM     13  C   UNL     1      99.497 130.786  83.725  0.00  0.00    +0.000 C 
ATOM     14  C   UNL     1      99.017 129.371  83.403  0.00  0.00    +0.000 C 
ENDBRANCH   8  10
ENDBRANCH   1   8
TORSDOF 3
ENDMDL
