REMARK  Name = *****
REMARK  5 active torsions:
REMARK  status: ('A' for Active; 'I' for Inactive)
REMARK    1  A    between atoms: C_1  and  S_2
REMARK    2  A    between atoms: S_2  and  C_3
REMARK    3  A    between atoms: C_6  and  C_9
REMARK    4  A    between atoms: C_9  and  C_10
REMARK    5  A    between atoms: C_10  and  C_12
REMARK                            x       y       z     vdW  Elec       q    Type
REMARK                         _______ _______ _______ _____ _____    ______ ____
ROOT
ATOM      1  C   UNL     1       4.350  -3.946   5.314  0.00  0.00    +0.000 C 
ATOM      2  O   UNL     1       5.545  -3.899   5.609  0.00  0.00    +0.000 OA
ENDROOT
BRANCH   1   3
ATOM      3  C   UNL     1       3.335  -3.588   6.353  0.00  0.00    +0.000 A 
ATOM      4  C   UNL     1       1.982  -3.396   6.054  0.00  0.00    +0.000 A 
ATOM      5  C   UNL     1       1.092  -3.073   7.076  0.00  0.00    +0.000 A 
ATOM      6  C   UNL     1       1.530  -2.936   8.388  0.00  0.00    +0.000 A 
ATOM      7  C   UNL     1       2.871  -3.116   8.699  0.00  0.00    +0.000 A 
ATOM      8  C   UNL     1       3.774  -3.440   7.682  0.00  0.00    +0.000 A 
ATOM      9  F   UNL     1       0.663  -2.630   9.362  0.00  0.00    +0.000 F 
ATOM     10  F   UNL     1      -0.203  -2.897   6.779  0.00  0.00    +0.000 F 
ENDBRANCH   1   3
BRANCH   1  11
ATOM     11  C   UNL     1       3.902  -4.372   3.928  0.00  0.00    +0.000 C 
BRANCH  11  15
ATOM     12  C   UNL     1       3.194  -1.136   1.145  0.00  0.00    +0.000 A 
ATOM     13  C   UNL     1       4.341  -1.140   1.940  0.00  0.00    +0.000 A 
ATOM     14  C   UNL     1       4.572  -2.181   2.843  0.00  0.00    +0.000 A 
ATOM     15  C   UNL     1       3.647  -3.225   2.981  0.00  0.00    +0.000 A 
ATOM     16  C   UNL     1       2.498  -3.217   2.176  0.00  0.00    +0.000 A 
ATOM     17  C   UNL     1       2.270  -2.176   1.272  0.00  0.00    +0.000 A 
BRANCH  12  19
ATOM     18  C   UNL     1       3.189  -0.700  -1.554  0.00  0.00    +0.000 C 
ATOM     19  S   UNL     1       2.919   0.198  -0.003  0.00  0.00    +0.000 S 
ENDBRANCH  12  19
ENDBRANCH  11  15
ENDBRANCH   1  11
TORSDOF 4
