MODEL 1
REMARK VINA RESULT:      -4.5      0.000      0.000
REMARK  Name = *****
REMARK  2 active torsions:
REMARK  status: ('A' for Active; 'I' for Inactive)
REMARK    1  A    between atoms: C_4  and  N_7
REMARK    2  A    between atoms: C_8  and  C_9
REMARK                            x       y       z     vdW  Elec       q    Type
REMARK                         _______ _______ _______ _____ _____    ______ ____
ROOT
ATOM      1  N   UNL     1     102.829 126.083  81.372  0.00  0.00    +0.000 NA
ATOM      2  C   UNL     1     102.020 125.946  82.378  0.00  0.00    +0.000 C 
ENDROOT
BRANCH   2   3
ATOM      3  C   UNL     1     101.005 126.973  82.704  0.00  0.00    +0.000 A 
ATOM      4  C   UNL     1      99.663 126.723  82.379  0.00  0.00    +0.000 A 
ATOM      5  C   UNL     1      98.676 127.667  82.669  0.00  0.00    +0.000 A 
ATOM      6  C   UNL     1      99.022 128.868  83.283  0.00  0.00    +0.000 A 
ATOM      7  C   UNL     1     100.355 129.125  83.609  0.00  0.00    +0.000 A 
ATOM      8  C   UNL     1     101.349 128.182  83.321  0.00  0.00    +0.000 A 
ATOM      9 CL   UNL     1     102.971 128.587  83.763  0.00  0.00    +0.000 Cl
ENDBRANCH   2   3
BRANCH   1  13
ATOM     10  C   UNL     1     105.538 122.931  80.759  0.00  0.00    +0.000 A 
ATOM     11  C   UNL     1     104.773 122.976  81.924  0.00  0.00    +0.000 A 
ATOM     12  C   UNL     1     103.873 124.023  82.128  0.00  0.00    +0.000 A 
ATOM     13  C   UNL     1     103.740 125.037  81.175  0.00  0.00    +0.000 A 
ATOM     14  C   UNL     1     104.498 124.977  80.003  0.00  0.00    +0.000 A 
ATOM     15  C   UNL     1     105.398 123.929  79.796  0.00  0.00    +0.000 A 
ENDBRANCH   1  13
TORSDOF 2
ENDMDL
