REMARK  Name = *****
REMARK  1 active torsions:
REMARK  status: ('A' for Active; 'I' for Inactive)
REMARK    1  A    between atoms: C_5  and  C_8
REMARK                            x       y       z     vdW  Elec       q    Type
REMARK                         _______ _______ _______ _____ _____    ______ ____
ROOT
ATOM      1  C   UNL     1      -1.776  -1.102  -1.632  0.00  0.00    +0.000 A 
ATOM      2  N   UNL     1      -1.525  -0.404  -2.724  0.00  0.00    +0.000 NA
ATOM      3  C   UNL     1      -2.005  -1.197  -3.735  0.00  0.00    +0.000 A 
ATOM      4  C   UNL     1      -2.029  -1.009  -5.122  0.00  0.00    +0.000 A 
ATOM      5  C   UNL     1      -2.598  -2.018  -5.916  0.00  0.00    +0.000 A 
ATOM      6  C   UNL     1      -3.127  -3.181  -5.341  0.00  0.00    +0.000 A 
ATOM      7  C   UNL     1      -3.109  -3.382  -3.955  0.00  0.00    +0.000 A 
ATOM      8  C   UNL     1      -2.538  -2.361  -3.206  0.00  0.00    +0.000 A 
ATOM      9  O   UNL     1      -2.395  -2.308  -1.851  0.00  0.00    +0.000 OA
ENDROOT
BRANCH   1  14
ATOM     10  C   UNL     1       1.804   0.075   0.142  0.00  0.00    +0.000 C 
ATOM     11  C   UNL     1       0.944   1.264   0.553  0.00  0.00    +0.000 C 
ATOM     12  C   UNL     1      -0.252   1.537  -0.352  0.00  0.00    +0.000 C 
ATOM     13  C   UNL     1      -1.498   0.746   0.055  0.00  0.00    +0.000 C 
ATOM     14  C   UNL     1      -1.480  -0.768  -0.200  0.00  0.00    +0.000 C 
ATOM     15  C   UNL     1      -0.226  -1.503   0.307  0.00  0.00    +0.000 C 
ATOM     16  C   UNL     1       1.077  -1.148  -0.408  0.00  0.00    +0.000 C 
ENDBRANCH   1  14
TORSDOF 1
