MODEL 1
REMARK VINA RESULT:      -4.4      0.000      0.000
REMARK  Name = *****
REMARK  3 active torsions:
REMARK  status: ('A' for Active; 'I' for Inactive)
REMARK    1  A    between atoms: C_4  and  C_7
REMARK    2  A    between atoms: C_7  and  O_9
REMARK    3  A    between atoms: O_9  and  C_10
REMARK                            x       y       z     vdW  Elec       q    Type
REMARK                         _______ _______ _______ _____ _____    ______ ____
ROOT
ATOM      1  C   UNL     1      88.108  70.508  87.786  0.00  0.00    +0.000 C 
ATOM      2  O   UNL     1      88.755  70.520  88.822  0.00  0.00    +0.000 OA
ENDROOT
BRANCH   1   6
ATOM      3  C   UNL     1      84.302  72.421  87.262  0.00  0.00    +0.000 A 
ATOM      4  C   UNL     1      84.751  72.144  88.553  0.00  0.00    +0.000 A 
ATOM      5  C   UNL     1      85.988  71.522  88.747  0.00  0.00    +0.000 A 
ATOM      6  C   UNL     1      86.782  71.174  87.646  0.00  0.00    +0.000 A 
ATOM      7  C   UNL     1      86.323  71.458  86.351  0.00  0.00    +0.000 A 
ATOM      8  C   UNL     1      85.087  72.079  86.161  0.00  0.00    +0.000 A 
ENDBRANCH   1   6
BRANCH   1   9
ATOM      9  O   UNL     1      88.456  69.903  86.591  0.00  0.00    +0.000 OA
BRANCH   9  10
ATOM     10  C   UNL     1      88.638  68.517  86.652  0.00  0.00    +0.000 A 
ATOM     11  C   UNL     1      87.659  67.687  87.202  0.00  0.00    +0.000 A 
ATOM     12  C   UNL     1      87.904  66.318  87.298  0.00  0.00    +0.000 A 
ATOM     13  C   UNL     1      89.123  65.806  86.860  0.00  0.00    +0.000 A 
ATOM     14  C   UNL     1      90.106  66.639  86.331  0.00  0.00    +0.000 A 
ATOM     15  C   UNL     1      89.867  68.008  86.231  0.00  0.00    +0.000 A 
ATOM     16  F   UNL     1      89.358  64.491  86.958  0.00  0.00    +0.000 F 
ENDBRANCH   9  10
ENDBRANCH   1   9
TORSDOF 3
ENDMDL
