MODEL 1
REMARK VINA RESULT:      -4.2      0.000      0.000
REMARK  Name = *****
REMARK  3 active torsions:
REMARK  status: ('A' for Active; 'I' for Inactive)
REMARK    1  A    between atoms: C_5  and  C_6
REMARK    2  A    between atoms: C_5  and  C_13
REMARK    3  A    between atoms: C_6  and  C_7
REMARK                            x       y       z     vdW  Elec       q    Type
REMARK                         _______ _______ _______ _____ _____    ______ ____
ROOT
ATOM      1  C   UNL     1      87.511  70.694  89.015  0.00  0.00    +0.000 C 
ATOM      2  C   UNL     1      88.900  70.330  88.493  0.00  0.00    +0.000 C 
ATOM      3  C   UNL     1      88.828  69.611  87.144  0.00  0.00    +0.000 C 
ATOM      4  C   UNL     1      87.924  68.390  87.228  0.00  0.00    +0.000 C 
ATOM      5  C   UNL     1      88.322  67.129  86.913  0.00  0.00    +0.000 C 
ATOM      6  C   UNL     1      86.532  68.765  87.703  0.00  0.00    +0.000 C 
ATOM      7  C   UNL     1      86.590  69.476  89.055  0.00  0.00    +0.000 C 
ENDROOT
BRANCH   5   8
ATOM      8  C   UNL     1      89.666  66.880  86.476  0.00  0.00    +0.000 C 
ATOM      9  N   UNL     1      90.758  66.693  86.128  0.00  0.00    +0.000 NA
ENDBRANCH   5   8
BRANCH   5  10
ATOM     10  C   UNL     1      87.452  65.889  87.019  0.00  0.00    +0.000 C 
BRANCH  10  11
ATOM     11  C   UNL     1      87.486  65.271  88.403  0.00  0.00    +0.000 C 
ATOM     12  C   UNL     1      88.514  64.500  88.808  0.00  0.00    +0.000 C 
ATOM     13  C   UNL     1      88.584  63.837  90.152  0.00  0.00    +0.000 C 
ATOM     14  C   UNL     1      87.253  63.859  90.905  0.00  0.00    +0.000 C 
ATOM     15  C   UNL     1      86.579  65.220  90.782  0.00  0.00    +0.000 C 
ATOM     16  C   UNL     1      86.322  65.581  89.316  0.00  0.00    +0.000 C 
ENDBRANCH  10  11
ENDBRANCH   5  10
TORSDOF 3
ENDMDL
