MODEL 1
REMARK VINA RESULT:      -4.5      0.000      0.000
REMARK  Name = *****
REMARK  6 active torsions:
REMARK  status: ('A' for Active; 'I' for Inactive)
REMARK    1  A    between atoms: C_1  and  C_2
REMARK    2  A    between atoms: C_2  and  O_3
REMARK    3  A    between atoms: O_3  and  P_4
REMARK    4  A    between atoms: P_4  and  C_6
REMARK    5  A    between atoms: P_4  and  C_12
REMARK    6  A    between atoms: C_12  and  C_13
REMARK                            x       y       z     vdW  Elec       q    Type
REMARK                         _______ _______ _______ _____ _____    ______ ____
ROOT
ATOM      1  P   UNL     1      88.684  70.486  86.440  0.00  0.00    +0.000 P 
ATOM      2  O   UNL     1      87.879  70.809  85.159  0.00  0.00    +0.000 OA
ENDROOT
BRANCH   1   3
ATOM      3  C   UNL     1      88.823  68.623  86.652  0.00  0.00    +0.000 A 
ATOM      4  C   UNL     1      87.796  67.911  87.289  0.00  0.00    +0.000 A 
ATOM      5  C   UNL     1      87.897  66.528  87.431  0.00  0.00    +0.000 A 
ATOM      6  C   UNL     1      89.023  65.856  86.952  0.00  0.00    +0.000 A 
ATOM      7  C   UNL     1      90.055  66.564  86.336  0.00  0.00    +0.000 A 
ATOM      8  C   UNL     1      89.960  67.947  86.189  0.00  0.00    +0.000 A 
ENDBRANCH   1   3
BRANCH   1   9
ATOM      9  C   UNL     1      87.140  70.560  87.420  0.00  0.00    +0.000 C 
ATOM     10 CL   UNL     1      85.958  71.613  86.524  0.00  0.00    +0.000 Cl
BRANCH   9  11
ATOM     11  C   UNL     1      87.262  71.139  88.823  0.00  0.00    +0.000 A 
ATOM     12  C   UNL     1      86.172  71.754  89.462  0.00  0.00    +0.000 A 
ATOM     13  C   UNL     1      86.318  72.311  90.734  0.00  0.00    +0.000 A 
ATOM     14  C   UNL     1      87.551  72.264  91.380  0.00  0.00    +0.000 A 
ATOM     15  C   UNL     1      88.640  71.658  90.758  0.00  0.00    +0.000 A 
ATOM     16  C   UNL     1      88.498  71.097  89.489  0.00  0.00    +0.000 A 
ENDBRANCH   9  11
ENDBRANCH   1   9
BRANCH   1  17
ATOM     17  O   UNL     1      90.143  70.416  85.514  0.00  0.00    +0.000 OA
BRANCH  17  19
ATOM     18  C   UNL     1      90.850  70.545  83.241  0.00  0.00    +0.000 C 
ATOM     19  C   UNL     1      90.154  71.266  84.376  0.00  0.00    +0.000 C 
ENDBRANCH  17  19
ENDBRANCH   1  17
TORSDOF 5
ENDMDL
