REMARK  Name = *****
REMARK  4 active torsions:
REMARK  status: ('A' for Active; 'I' for Inactive)
REMARK    1  A    between atoms: C_2  and  C_3
REMARK    2  A    between atoms: C_3  and  C_4
REMARK    3  A    between atoms: C_8  and  C_10
REMARK    4  A    between atoms: C_11  and  C_12
REMARK                            x       y       z     vdW  Elec       q    Type
REMARK                         _______ _______ _______ _____ _____    ______ ____
ROOT
ATOM      1  C   UNL     1       4.587  -0.563   0.953  0.00  0.00    +0.000 C 
ATOM      2  C   UNL     1       5.268   0.802   0.728  0.00  0.00    +0.000 C 
ATOM      3  C   UNL     1       5.194   1.242  -0.731  0.00  0.00    +0.000 C 
ATOM      4  C   UNL     1       5.861   0.216  -1.650  0.00  0.00    +0.000 C 
ATOM      5  C   UNL     1       5.532  -1.213  -1.299  0.00  0.00    +0.000 C 
ATOM      6  C   UNL     1       4.952  -1.551  -0.133  0.00  0.00    +0.000 C 
ENDROOT
BRANCH   5   7
ATOM      7  C   UNL     1       5.834  -2.239  -2.243  0.00  0.00    +0.000 C 
ATOM      8  C   UNL     1       6.087  -3.101  -3.041  0.00  0.00    +0.000 C 
BRANCH   8   9
ATOM      9  C   UNL     1       6.385  -4.128  -3.991  0.00  0.00    +0.000 A 
ATOM     10  C   UNL     1       6.537  -3.809  -5.343  0.00  0.00    +0.000 A 
ATOM     11  C   UNL     1       6.825  -4.812  -6.270  0.00  0.00    +0.000 A 
ATOM     12  C   UNL     1       6.962  -6.135  -5.847  0.00  0.00    +0.000 A 
ATOM     13  C   UNL     1       6.811  -6.455  -4.498  0.00  0.00    +0.000 A 
ATOM     14  C   UNL     1       6.522  -5.452  -3.570  0.00  0.00    +0.000 A 
ENDBRANCH   8   9
ENDBRANCH   5   7
BRANCH   1  15
ATOM     15  C   UNL     1       3.047  -0.467   1.054  0.00  0.00    +0.000 C 
BRANCH  15  17
ATOM     16  C   UNL     1       1.810   1.411   2.176  0.00  0.00    +0.000 C 
ATOM     17  C   UNL     1       2.575   0.315   2.250  0.00  0.00    +0.000 C 
ENDBRANCH  15  17
ENDBRANCH   1  15
TORSDOF 4
