REMARK  Name = *****
REMARK  3 active torsions:
REMARK  status: ('A' for Active; 'I' for Inactive)
REMARK    1  A    between atoms: C_5  and  C_6
REMARK    2  A    between atoms: C_5  and  C_13
REMARK    3  A    between atoms: C_6  and  C_7
REMARK                            x       y       z     vdW  Elec       q    Type
REMARK                         _______ _______ _______ _____ _____    ______ ____
ROOT
ATOM      1  C   UNL     1       1.116   1.064  -0.386  0.00  0.00    +0.000 C 
ATOM      2  C   UNL     1       1.626  -0.333  -0.036  0.00  0.00    +0.000 C 
ATOM      3  C   UNL     1       0.641  -1.421  -0.468  0.00  0.00    +0.000 C 
ATOM      4  C   UNL     1      -0.740  -1.166   0.120  0.00  0.00    +0.000 C 
ATOM      5  C   UNL     1      -1.412  -2.060   0.891  0.00  0.00    +0.000 C 
ATOM      6  C   UNL     1      -1.261   0.205  -0.270  0.00  0.00    +0.000 C 
ATOM      7  C   UNL     1      -0.288   1.302   0.165  0.00  0.00    +0.000 C 
ENDROOT
BRANCH   5   8
ATOM      8  C   UNL     1      -0.827  -3.333   1.205  0.00  0.00    +0.000 C 
ATOM      9  N   UNL     1      -0.353  -4.358   1.475  0.00  0.00    +0.000 NA
ENDBRANCH   5   8
BRANCH   5  10
ATOM     10  C   UNL     1      -2.774  -1.820   1.517  0.00  0.00    +0.000 C 
BRANCH  10  11
ATOM     11  C   UNL     1      -3.896  -2.479   0.740  0.00  0.00    +0.000 C 
ATOM     12  C   UNL     1      -4.497  -3.601   1.180  0.00  0.00    +0.000 C 
ATOM     13  C   UNL     1      -5.589  -4.313   0.436  0.00  0.00    +0.000 C 
ATOM     14  C   UNL     1      -5.748  -3.832  -1.006  0.00  0.00    +0.000 C 
ATOM     15  C   UNL     1      -5.662  -2.313  -1.087  0.00  0.00    +0.000 C 
ATOM     16  C   UNL     1      -4.325  -1.803  -0.543  0.00  0.00    +0.000 C 
ENDBRANCH  10  11
ENDBRANCH   5  10
TORSDOF 3
