MODEL 1
REMARK VINA RESULT:      -3.8      0.000      0.000
REMARK  Name = *****
REMARK  5 active torsions:
REMARK  status: ('A' for Active; 'I' for Inactive)
REMARK    1  A    between atoms: C_4  and  C_7
REMARK    2  A    between atoms: C_7  and  C_8
REMARK    3  A    between atoms: C_8  and  C_9
REMARK    4  A    between atoms: C_9  and  S_10
REMARK    5  A    between atoms: S_10  and  C_12
REMARK                            x       y       z     vdW  Elec       q    Type
REMARK                         _______ _______ _______ _____ _____    ______ ____
ROOT
ATOM      1  C   UNL     1      87.441  64.780  85.883  0.00  0.00    +0.000 C 
ATOM      2 CL   UNL     1      87.789  65.029  84.142  0.00  0.00    +0.000 Cl
ENDROOT
BRANCH   1   3
ATOM      3  S   UNL     1      88.893  65.102  86.957  0.00  0.00    +0.000 S 
ATOM      4  O   UNL     1      89.279  66.546  86.830  0.00  0.00    +0.000 OA
BRANCH   3   5
ATOM      5  C   UNL     1      88.109  64.909  88.571  0.00  0.00    +0.000 A 
ATOM      6  C   UNL     1      88.693  64.079  89.536  0.00  0.00    +0.000 A 
ATOM      7  C   UNL     1      88.096  63.933  90.790  0.00  0.00    +0.000 A 
ATOM      8  C   UNL     1      86.922  64.621  91.090  0.00  0.00    +0.000 A 
ATOM      9  C   UNL     1      86.342  65.458  90.139  0.00  0.00    +0.000 A 
ATOM     10  C   UNL     1      86.936  65.606  88.884  0.00  0.00    +0.000 A 
ENDBRANCH   3   5
ENDBRANCH   1   3
BRANCH   1  11
ATOM     11  C   UNL     1      86.927  63.349  86.080  0.00  0.00    +0.000 C 
BRANCH  11  12
ATOM     12  C   UNL     1      85.419  63.288  86.357  0.00  0.00    +0.000 C 
BRANCH  12  16
ATOM     13  C   UNL     1      84.598  61.625  90.250  0.00  0.00    +0.000 A 
ATOM     14  C   UNL     1      85.805  61.348  89.613  0.00  0.00    +0.000 A 
ATOM     15  C   UNL     1      86.072  61.891  88.356  0.00  0.00    +0.000 A 
ATOM     16  C   UNL     1      85.133  62.719  87.726  0.00  0.00    +0.000 A 
ATOM     17  C   UNL     1      83.919  62.988  88.372  0.00  0.00    +0.000 A 
ATOM     18  C   UNL     1      83.655  62.443  89.630  0.00  0.00    +0.000 A 
ENDBRANCH  12  16
ENDBRANCH  11  12
ENDBRANCH   1  11
TORSDOF 5
ENDMDL
