REMARK  Name = *****
REMARK  3 active torsions:
REMARK  status: ('A' for Active; 'I' for Inactive)
REMARK    1  A    between atoms: C_4  and  O_7
REMARK    2  A    between atoms: O_7  and  C_8
REMARK    3  A    between atoms: C_8  and  C_9
REMARK                            x       y       z     vdW  Elec       q    Type
REMARK                         _______ _______ _______ _____ _____    ______ ____
ROOT
ATOM      1  C   UNL     1      -3.617  -0.603  -0.319  0.00  0.00    +0.000 C 
ENDROOT
BRANCH   1   2
ATOM      2  C   UNL     1      -5.049  -0.107  -0.410  0.00  0.00    +0.000 A 
ATOM      3  C   UNL     1      -6.107  -1.014  -0.606  0.00  0.00    +0.000 A 
ATOM      4  C   UNL     1      -7.430  -0.571  -0.688  0.00  0.00    +0.000 A 
ATOM      5  C   UNL     1      -7.710   0.787  -0.576  0.00  0.00    +0.000 A 
ATOM      6  C   UNL     1      -6.682   1.704  -0.383  0.00  0.00    +0.000 A 
ATOM      7  C   UNL     1      -5.359   1.260  -0.301  0.00  0.00    +0.000 A 
ATOM      8 CL   UNL     1      -9.337   1.336  -0.675  0.00  0.00    +0.000 Cl
ATOM      9 CL   UNL     1      -5.825  -2.714  -0.754  0.00  0.00    +0.000 Cl
ENDBRANCH   1   2
BRANCH   1  10
ATOM     10  O   UNL     1      -2.700   0.474  -0.114  0.00  0.00    +0.000 OA
BRANCH  10  14
ATOM     11  C   UNL     1       1.391  -0.226   0.234  0.00  0.00    +0.000 A 
ATOM     12  C   UNL     1       0.549  -1.319   0.042  0.00  0.00    +0.000 A 
ATOM     13  C   UNL     1      -0.832  -1.133  -0.081  0.00  0.00    +0.000 A 
ATOM     14  C   UNL     1      -1.375   0.152  -0.011  0.00  0.00    +0.000 A 
ATOM     15  C   UNL     1      -0.523   1.243   0.183  0.00  0.00    +0.000 A 
ATOM     16  C   UNL     1       0.855   1.058   0.305  0.00  0.00    +0.000 A 
ENDBRANCH  10  14
ENDBRANCH   1  10
TORSDOF 3
