MODEL 1
REMARK VINA RESULT:      -5.0      0.000      0.000
REMARK  Name = *****
REMARK  5 active torsions:
REMARK  status: ('A' for Active; 'I' for Inactive)
REMARK    1  A    between atoms: C_1  and  C_2
REMARK    2  A    between atoms: C_5  and  C_8
REMARK    3  A    between atoms: C_8  and  C_9
REMARK    4  A    between atoms: C_9  and  C_11
REMARK    5  A    between atoms: C_14  and  C_17
REMARK                            x       y       z     vdW  Elec       q    Type
REMARK                         _______ _______ _______ _____ _____    ______ ____
ROOT
ATOM      1  C   UNL     1      87.836  70.745  85.642  0.00  0.00    +0.000 C 
ATOM      2 CL   UNL     1      87.490  69.649  84.269  0.00  0.00    +0.000 Cl
ENDROOT
BRANCH   1   7
ATOM      3  C   UNL     1      83.021  72.995  88.108  0.00  0.00    +0.000 C 
ATOM      4  C   UNL     1      84.272  72.447  87.489  0.00  0.00    +0.000 A 
ATOM      5  C   UNL     1      84.420  72.415  86.101  0.00  0.00    +0.000 A 
ATOM      6  C   UNL     1      85.572  71.872  85.523  0.00  0.00    +0.000 A 
ATOM      7  C   UNL     1      86.614  71.354  86.315  0.00  0.00    +0.000 A 
ATOM      8  C   UNL     1      86.428  71.350  87.707  0.00  0.00    +0.000 A 
ATOM      9  C   UNL     1      85.276  71.893  88.286  0.00  0.00    +0.000 A 
ENDBRANCH   1   7
BRANCH   1  10
ATOM     10  C   UNL     1      88.800  70.026  86.584  0.00  0.00    +0.000 C 
ATOM     11  O   UNL     1      89.654  70.670  87.204  0.00  0.00    +0.000 OA
BRANCH  10  12
ATOM     12  C   UNL     1      88.729  68.543  86.813  0.00  0.00    +0.000 A 
ATOM     13  C   UNL     1      87.693  67.913  87.510  0.00  0.00    +0.000 A 
ATOM     14  C   UNL     1      87.701  66.525  87.690  0.00  0.00    +0.000 A 
ATOM     15  C   UNL     1      88.737  65.742  87.172  0.00  0.00    +0.000 A 
ATOM     16  C   UNL     1      89.785  66.371  86.493  0.00  0.00    +0.000 A 
ATOM     17  C   UNL     1      89.778  67.757  86.313  0.00  0.00    +0.000 A 
ATOM     18  C   UNL     1      88.759  64.259  87.398  0.00  0.00    +0.000 C 
ENDBRANCH  10  12
ENDBRANCH   1  10
TORSDOF 3
ENDMDL
