MODEL 1
REMARK VINA RESULT:      -4.8      0.000      0.000
REMARK  Name = *****
REMARK  1 active torsions:
REMARK  status: ('A' for Active; 'I' for Inactive)
REMARK    1  A    between atoms: C_9  and  C_11
REMARK                            x       y       z     vdW  Elec       q    Type
REMARK                         _______ _______ _______ _____ _____    ______ ____
ROOT
ATOM      1  C   UNL     1      99.403 130.522  84.882  0.00  0.00    +0.000 C 
ATOM      2  C   UNL     1     100.732 131.166  84.532  0.00  0.00    +0.000 C 
ATOM      3  C   UNL     1     101.844 130.119  84.518  0.00  0.00    +0.000 C 
ATOM      4  C   UNL     1     101.480 128.834  83.796  0.00  0.00    +0.000 C 
ATOM      5  C   UNL     1     100.202 128.531  83.485  0.00  0.00    +0.000 C 
ATOM      6  C   UNL     1      99.048 129.439  83.867  0.00  0.00    +0.000 C 
ATOM      7  C   UNL     1      99.753 127.302  82.738  0.00  0.00    +0.000 C 
ATOM      8  C   UNL     1     100.832 126.379  82.292  0.00  0.00    +0.000 C 
ATOM      9  C   UNL     1     102.139 126.528  82.533  0.00  0.00    +0.000 C 
ATOM     10  S   UNL     1     102.848 127.820  83.419  0.00  0.00    +0.000 S 
ENDROOT
BRANCH   9  11
ATOM     11  C   UNL     1     103.083 125.521  82.026  0.00  0.00    +0.000 A 
ATOM     12  C   UNL     1     103.437 125.499  80.670  0.00  0.00    +0.000 A 
ATOM     13  C   UNL     1     104.317 124.529  80.185  0.00  0.00    +0.000 A 
ATOM     14  C   UNL     1     104.846 123.573  81.051  0.00  0.00    +0.000 A 
ATOM     15  C   UNL     1     104.497 123.582  82.401  0.00  0.00    +0.000 A 
ATOM     16  C   UNL     1     103.617 124.551  82.887  0.00  0.00    +0.000 A 
ENDBRANCH   9  11
TORSDOF 1
ENDMDL
