REMARK  Name = *****
REMARK  2 active torsions:
REMARK  status: ('A' for Active; 'I' for Inactive)
REMARK    1  A    between atoms: C_5  and  C_7
REMARK    2  A    between atoms: C_8  and  C_9
REMARK                            x       y       z     vdW  Elec       q    Type
REMARK                         _______ _______ _______ _____ _____    ______ ____
ROOT
ATOM      1  C   UNL     1       0.921  -2.441   0.010  0.00  0.00    +0.000 C 
ATOM      2  C   UNL     1       2.258  -2.565   0.013  0.00  0.00    +0.000 C 
ENDROOT
BRANCH   2   3
ATOM      3  C   UNL     1       2.964  -3.855   0.016  0.00  0.00    +0.000 A 
ATOM      4  C   UNL     1       2.498  -4.965  -0.702  0.00  0.00    +0.000 A 
ATOM      5  C   UNL     1       3.220  -6.156  -0.689  0.00  0.00    +0.000 A 
ATOM      6  C   UNL     1       4.409  -6.253   0.021  0.00  0.00    +0.000 A 
ATOM      7  C   UNL     1       4.896  -5.159   0.725  0.00  0.00    +0.000 A 
ATOM      8  C   UNL     1       4.177  -3.960   0.717  0.00  0.00    +0.000 A 
ATOM      9  F   UNL     1       5.100  -7.401   0.029  0.00  0.00    +0.000 F 
ATOM     10  F   UNL     1       2.757  -7.210  -1.377  0.00  0.00    +0.000 F 
ENDBRANCH   2   3
BRANCH   1  15
ATOM     11  C   UNL     1      -1.741   0.119   0.747  0.00  0.00    +0.000 A 
ATOM     12  C   UNL     1      -1.272   1.246   0.074  0.00  0.00    +0.000 A 
ATOM     13  C   UNL     1      -0.072   1.180  -0.631  0.00  0.00    +0.000 A 
ATOM     14  C   UNL     1       0.655  -0.010  -0.654  0.00  0.00    +0.000 A 
ATOM     15  C   UNL     1       0.210  -1.151   0.028  0.00  0.00    +0.000 A 
ATOM     16  C   UNL     1      -1.008  -1.072   0.719  0.00  0.00    +0.000 A 
ATOM     17  F   UNL     1       1.793  -0.035  -1.365  0.00  0.00    +0.000 F 
ENDBRANCH   1  15
TORSDOF 2
