REMARK  Name = *****
REMARK  3 active torsions:
REMARK  status: ('A' for Active; 'I' for Inactive)
REMARK    1  A    between atoms: C_4  and  N_7
REMARK    2  A    between atoms: N_7  and  C_8
REMARK    3  A    between atoms: C_8  and  C_9
REMARK                            x       y       z     vdW  Elec       q    Type
REMARK                         _______ _______ _______ _____ _____    ______ ____
ROOT
ATOM      1  N   UNL     1       2.760  -0.781  -0.500  0.00  0.00    +0.000 NA
ENDROOT
BRANCH   1   5
ATOM      2  C   UNL     1      -1.135   0.881   0.015  0.00  0.00    +0.000 C 
ATOM      3  C   UNL     1      -1.033  -0.633  -0.142  0.00  0.00    +0.000 C 
ATOM      4  C   UNL     1       0.331  -1.051  -0.684  0.00  0.00    +0.000 C 
ATOM      5  C   UNL     1       1.479  -0.505   0.176  0.00  0.00    +0.000 C 
ATOM      6  C   UNL     1       1.363   1.017   0.344  0.00  0.00    +0.000 C 
ATOM      7  C   UNL     1      -0.005   1.429   0.880  0.00  0.00    +0.000 C 
ENDBRANCH   1   5
BRANCH   1   8
ATOM      8  C   UNL     1       3.332  -1.745  -0.154  0.00  0.00    +0.000 C 
BRANCH   8   9
ATOM      9  C   UNL     1       3.999  -2.810   0.192  0.00  0.00    +0.000 C 
ATOM     10  C   UNL     1       3.349  -4.019   0.815  0.00  0.00    +0.000 C 
ATOM     11  C   UNL     1       3.659  -5.283   0.011  0.00  0.00    +0.000 C 
ATOM     12  C   UNL     1       5.160  -5.456  -0.225  0.00  0.00    +0.000 C 
ATOM     13  C   UNL     1       5.774  -4.214  -0.871  0.00  0.00    +0.000 C 
ATOM     14  C   UNL     1       5.478  -2.951  -0.062  0.00  0.00    +0.000 C 
ENDBRANCH   8   9
ENDBRANCH   1   8
TORSDOF 3
