MODEL 1
REMARK VINA RESULT:      -4.6      0.000      0.000
REMARK  Name = *****
REMARK  4 active torsions:
REMARK  status: ('A' for Active; 'I' for Inactive)
REMARK    1  A    between atoms: C_1  and  C_2
REMARK    2  A    between atoms: N_4  and  C_14
REMARK    3  A    between atoms: C_6  and  C_13
REMARK    4  A    between atoms: C_7  and  C_12
REMARK                            x       y       z     vdW  Elec       q    Type
REMARK                         _______ _______ _______ _____ _____    ______ ____
ROOT
ATOM      1  C   UNL     1     106.651 127.939  81.301  0.00  0.00    +0.000 C 
ATOM      2  C   UNL     1     105.698 126.790  81.178  0.00  0.00    +0.000 C 
ATOM      3  C   UNL     1     106.087 125.573  80.757  0.00  0.00    +0.000 C 
ATOM      4  N   UNL     1     105.243 124.484  80.632  0.00  0.00    +0.000 N 
ATOM      5  O   UNL     1     103.844 124.653  80.806  0.00  0.00    +0.000 OA
ATOM      6  C   UNL     1     103.603 125.598  81.880  0.00  0.00    +0.000 C 
ATOM      7  C   UNL     1     104.206 126.989  81.456  0.00  0.00    +0.000 C 
ATOM      8  C   UNL     1     103.886 128.024  82.560  0.00  0.00    +0.000 C 
ATOM      9  C   UNL     1     102.381 128.145  82.839  0.00  0.00    +0.000 C 
ATOM     10  C   UNL     1     101.678 126.805  83.063  0.00  0.00    +0.000 C 
ATOM     11  C   UNL     1     102.071 125.725  82.051  0.00  0.00    +0.000 C 
ATOM     12  C   UNL     1     103.619 127.494  80.103  0.00  0.00    +0.000 C 
ATOM     13  C   UNL     1     104.165 125.003  83.205  0.00  0.00    +0.000 C 
ENDROOT
BRANCH   4  14
ATOM     14  C   UNL     1     105.552 123.163  80.061  0.00  0.00    +0.000 C 
ATOM     15  C   UNL     1     104.644 122.056  80.613  0.00  0.00    +0.000 C 
ATOM     16  C   UNL     1     105.141 121.382  81.890  0.00  0.00    +0.000 C 
ATOM     17  C   UNL     1     106.611 120.989  81.798  0.00  0.00    +0.000 C 
ATOM     18  C   UNL     1     107.493 122.176  81.435  0.00  0.00    +0.000 C 
ATOM     19  C   UNL     1     107.049 122.836  80.133  0.00  0.00    +0.000 C 
ENDBRANCH   4  14
TORSDOF 1
ENDMDL
