MODEL 1
REMARK VINA RESULT:      -4.7      0.000      0.000
REMARK  Name = *****
REMARK  1 active torsions:
REMARK  status: ('A' for Active; 'I' for Inactive)
REMARK    1  A    between atoms: C_4  and  C_7
REMARK                            x       y       z     vdW  Elec       q    Type
REMARK                         _______ _______ _______ _____ _____    ______ ____
ROOT
ATOM      1  C   UNL     1     102.251 126.055  82.514  0.00  0.00    +0.000 A 
ATOM      2  C   UNL     1     102.798 125.919  81.218  0.00  0.00    +0.000 A 
ATOM      3  C   UNL     1     103.840 125.006  81.005  0.00  0.00    +0.000 A 
ATOM      4  C   UNL     1     104.304 124.258  82.075  0.00  0.00    +0.000 A 
ATOM      5  C   UNL     1     103.811 124.339  83.368  0.00  0.00    +0.000 A 
ATOM      6  C   UNL     1     102.771 125.261  83.561  0.00  0.00    +0.000 A 
ATOM      7  O   UNL     1     105.307 123.453  81.618  0.00  0.00    +0.000 OA
ATOM      8  C   UNL     1     105.389 123.768  80.294  0.00  0.00    +0.000 A 
ATOM      9  N   UNL     1     104.542 124.683  79.871  0.00  0.00    +0.000 NA
ENDROOT
BRANCH   1  13
ATOM     10  C   UNL     1      99.070 128.848  83.257  0.00  0.00    +0.000 A 
ATOM     11  C   UNL     1      98.800 127.633  82.635  0.00  0.00    +0.000 A 
ATOM     12  C   UNL     1      99.835 126.724  82.392  0.00  0.00    +0.000 A 
ATOM     13  C   UNL     1     101.159 127.014  82.768  0.00  0.00    +0.000 A 
ATOM     14  C   UNL     1     101.407 128.247  83.394  0.00  0.00    +0.000 A 
ATOM     15  C   UNL     1     100.374 129.157  83.636  0.00  0.00    +0.000 A 
ENDBRANCH   1  13
TORSDOF 1
ENDMDL
