MODEL 1
REMARK VINA RESULT:      -4.4      0.000      0.000
REMARK  Name = *****
REMARK  4 active torsions:
REMARK  status: ('A' for Active; 'I' for Inactive)
REMARK    1  A    between atoms: C_1  and  C_2
REMARK    2  A    between atoms: C_5  and  S_8
REMARK    3  A    between atoms: S_8  and  N_9
REMARK    4  A    between atoms: N_9  and  C_10
REMARK                            x       y       z     vdW  Elec       q    Type
REMARK                         _______ _______ _______ _____ _____    ______ ____
ROOT
ATOM      1  S   UNL     1      88.659  64.234  86.753  0.00  0.00    +0.000 S 
ENDROOT
BRANCH   1   6
ATOM      2  C   UNL     1      89.167  70.310  86.995  0.00  0.00    +0.000 C 
ATOM      3  C   UNL     1      89.036  68.819  86.907  0.00  0.00    +0.000 A 
ATOM      4  C   UNL     1      90.046  68.052  86.314  0.00  0.00    +0.000 A 
ATOM      5  C   UNL     1      89.938  66.659  86.261  0.00  0.00    +0.000 A 
ATOM      6  C   UNL     1      88.829  66.012  86.813  0.00  0.00    +0.000 A 
ATOM      7  C   UNL     1      87.824  66.776  87.412  0.00  0.00    +0.000 A 
ATOM      8  C   UNL     1      87.929  68.169  87.465  0.00  0.00    +0.000 A 
ENDBRANCH   1   6
BRANCH   1   9
ATOM      9  N   UNL     1      89.122  63.820  88.296  0.00  0.00    +0.000 NA
ATOM     10  H   UNL     1      89.448  64.678  88.740  0.00  0.00    +0.000 HD
BRANCH   9  11
ATOM     11  C   UNL     1      88.174  63.200  89.233  0.00  0.00    +0.000 C 
ATOM     12  C   UNL     1      87.089  62.462  88.429  0.00  0.00    +0.000 C 
ATOM     13  C   UNL     1      86.036  61.836  89.341  0.00  0.00    +0.000 C 
ATOM     14  C   UNL     1      85.412  62.871  90.271  0.00  0.00    +0.000 C 
ATOM     15  C   UNL     1      86.475  63.618  91.069  0.00  0.00    +0.000 C 
ATOM     16  C   UNL     1      87.529  64.246  90.158  0.00  0.00    +0.000 C 
ENDBRANCH   9  11
ENDBRANCH   1   9
TORSDOF 3
ENDMDL
