MODEL 1
REMARK VINA RESULT:      -4.8      0.000      0.000
REMARK  Name = *****
REMARK  3 active torsions:
REMARK  status: ('A' for Active; 'I' for Inactive)
REMARK    1  A    between atoms: C_4  and  C_7
REMARK    2  A    between atoms: C_8  and  C_9
REMARK    3  A    between atoms: C_12  and  C_15
REMARK                            x       y       z     vdW  Elec       q    Type
REMARK                         _______ _______ _______ _____ _____    ______ ____
ROOT
ATOM      1  C   UNL     1     101.922 125.940  82.506  0.00  0.00    +0.000 C 
ATOM      2  C   UNL     1     102.748 125.931  81.446  0.00  0.00    +0.000 C 
ENDROOT
BRANCH   1   6
ATOM      3  C   UNL     1      99.013 128.976  83.290  0.00  0.00    +0.000 A 
ATOM      4  C   UNL     1      98.618 127.793  82.668  0.00  0.00    +0.000 A 
ATOM      5  C   UNL     1      99.560 126.796  82.399  0.00  0.00    +0.000 A 
ATOM      6  C   UNL     1     100.907 126.977  82.740  0.00  0.00    +0.000 A 
ATOM      7  C   UNL     1     101.287 128.164  83.381  0.00  0.00    +0.000 A 
ATOM      8  C   UNL     1     100.346 129.160  83.650  0.00  0.00    +0.000 A 
ENDBRANCH   1   6
BRANCH   2   9
ATOM      9  C   UNL     1     103.776 124.906  81.220  0.00  0.00    +0.000 A 
ATOM     10  C   UNL     1     104.505 124.829  80.025  0.00  0.00    +0.000 A 
ATOM     11  C   UNL     1     105.496 123.859  79.857  0.00  0.00    +0.000 A 
ATOM     12  C   UNL     1     105.773 122.963  80.892  0.00  0.00    +0.000 A 
ATOM     13  C   UNL     1     105.068 123.036  82.094  0.00  0.00    +0.000 A 
ATOM     14  C   UNL     1     104.078 124.011  82.257  0.00  0.00    +0.000 A 
BRANCH  12  15
ATOM     15  C   UNL     1     106.819 121.935  80.725  0.00  0.00    +0.000 C 
ATOM     16  O   UNL     1     106.692 120.797  81.158  0.00  0.00    +0.000 OA
ENDBRANCH  12  15
ENDBRANCH   2   9
TORSDOF 3
ENDMDL
