MODEL 1
REMARK VINA RESULT:      -5.2      0.000      0.000
REMARK  Name = *****
REMARK  2 active torsions:
REMARK  status: ('A' for Active; 'I' for Inactive)
REMARK    1  A    between atoms: C_1  and  C_2
REMARK    2  A    between atoms: C_5  and  C_8
REMARK                            x       y       z     vdW  Elec       q    Type
REMARK                         _______ _______ _______ _____ _____    ______ ____
ROOT
ATOM      1  C   UNL     1     102.281 126.741  82.613  0.00  0.00    +0.000 C 
ATOM      2  C   UNL     1     102.743 127.833  83.255  0.00  0.00    +0.000 C 
ATOM      3  C   UNL     1     101.608 128.660  83.627  0.00  0.00    +0.000 A 
ATOM      4  C   UNL     1     101.576 129.867  84.303  0.00  0.00    +0.000 A 
ATOM      5  C   UNL     1     100.332 130.458  84.540  0.00  0.00    +0.000 A 
ATOM      6  C   UNL     1      99.148 129.839  84.101  0.00  0.00    +0.000 A 
ATOM      7  C   UNL     1      99.192 128.621  83.418  0.00  0.00    +0.000 A 
ATOM      8  C   UNL     1     100.430 128.047  83.191  0.00  0.00    +0.000 A 
ATOM      9  C   UNL     1     100.766 126.767  82.487  0.00  0.00    +0.000 C 
ENDROOT
BRANCH   1  14
ATOM     10  C   UNL     1     105.507 122.405  80.480  0.00  0.00    +0.000 C 
ATOM     11  C   UNL     1     104.696 123.538  81.033  0.00  0.00    +0.000 A 
ATOM     12  C   UNL     1     104.236 124.559  80.198  0.00  0.00    +0.000 A 
ATOM     13  C   UNL     1     103.451 125.598  80.712  0.00  0.00    +0.000 A 
ATOM     14  C   UNL     1     103.093 125.639  82.068  0.00  0.00    +0.000 A 
ATOM     15  C   UNL     1     103.556 124.605  82.894  0.00  0.00    +0.000 A 
ATOM     16  C   UNL     1     104.340 123.563  82.383  0.00  0.00    +0.000 A 
ENDBRANCH   1  14
TORSDOF 1
ENDMDL
