MODEL 1
REMARK VINA RESULT:      -4.9      0.000      0.000
REMARK  Name = *****
REMARK  3 active torsions:
REMARK  status: ('A' for Active; 'I' for Inactive)
REMARK    1  A    between atoms: C_1  and  C_2
REMARK    2  A    between atoms: C_5  and  C_8
REMARK    3  A    between atoms: C_9  and  C_10
REMARK                            x       y       z     vdW  Elec       q    Type
REMARK                         _______ _______ _______ _____ _____    ______ ____
ROOT
ATOM      1  C   UNL     1     101.780 126.545  82.499  0.00  0.00    +0.000 C 
ATOM      2  C   UNL     1     102.982 126.652  81.908  0.00  0.00    +0.000 C 
ENDROOT
BRANCH   2   3
ATOM      3  C   UNL     1     103.733 125.511  81.367  0.00  0.00    +0.000 A 
ATOM      4  C   UNL     1     104.386 125.566  80.126  0.00  0.00    +0.000 A 
ATOM      5  C   UNL     1     105.112 124.466  79.668  0.00  0.00    +0.000 A 
ATOM      6  C   UNL     1     105.209 123.313  80.432  0.00  0.00    +0.000 A 
ATOM      7  C   UNL     1     104.580 123.260  81.667  0.00  0.00    +0.000 A 
ATOM      8  C   UNL     1     103.849 124.349  82.142  0.00  0.00    +0.000 A 
ATOM      9  F   UNL     1     104.669 122.155  82.422  0.00  0.00    +0.000 F 
ATOM     10  F   UNL     1     105.910 122.262  79.985  0.00  0.00    +0.000 F 
ATOM     11  F   UNL     1     105.724 124.538  78.479  0.00  0.00    +0.000 F 
ENDBRANCH   2   3
BRANCH   1  16
ATOM     12  C   UNL     1      98.982 131.037  84.848  0.00  0.00    +0.000 C 
ATOM     13  C   UNL     1      99.698 129.886  84.206  0.00  0.00    +0.000 A 
ATOM     14  C   UNL     1      98.983 128.880  83.550  0.00  0.00    +0.000 A 
ATOM     15  C   UNL     1      99.651 127.791  82.979  0.00  0.00    +0.000 A 
ATOM     16  C   UNL     1     101.045 127.690  83.057  0.00  0.00    +0.000 A 
ATOM     17  C   UNL     1     101.754 128.682  83.743  0.00  0.00    +0.000 A 
ATOM     18  C   UNL     1     101.088 129.771  84.312  0.00  0.00    +0.000 A 
ENDBRANCH   1  16
TORSDOF 2
ENDMDL
