MODEL 1
REMARK VINA RESULT:      -4.7      0.000      0.000
REMARK  Name = *****
REMARK  5 active torsions:
REMARK  status: ('A' for Active; 'I' for Inactive)
REMARK    1  A    between atoms: C_1  and  C_2
REMARK    2  A    between atoms: C_7  and  C_8
REMARK    3  A    between atoms: C_8  and  O_10
REMARK    4  A    between atoms: O_10  and  C_11
REMARK    5  A    between atoms: C_12  and  C_18
REMARK                            x       y       z     vdW  Elec       q    Type
REMARK                         _______ _______ _______ _____ _____    ______ ____
ROOT
ATOM      1  C   UNL     1     102.011 125.920  82.722  0.00  0.00    +0.000 C 
ATOM      2  O   UNL     1     102.468 125.252  83.636  0.00  0.00    +0.000 OA
ENDROOT
BRANCH   1   9
ATOM      3  C   UNL     1     102.588 128.553  84.156  0.00  0.00    +0.000 C 
ATOM      4  C   UNL     1     101.250 128.205  83.568  0.00  0.00    +0.000 A 
ATOM      5  C   UNL     1     100.210 129.146  83.659  0.00  0.00    +0.000 A 
ATOM      6  C   UNL     1      98.938 128.863  83.154  0.00  0.00    +0.000 A 
ATOM      7  C   UNL     1      98.683 127.635  82.552  0.00  0.00    +0.000 A 
ATOM      8  C   UNL     1      99.706 126.695  82.439  0.00  0.00    +0.000 A 
ATOM      9  C   UNL     1     100.993 126.979  82.924  0.00  0.00    +0.000 A 
ENDBRANCH   1   9
BRANCH   1  10
ATOM     10  O   UNL     1     102.221 125.758  81.366  0.00  0.00    +0.000 OA
BRANCH  10  11
ATOM     11  C   UNL     1     103.456 126.259  80.936  0.00  0.00    +0.000 A 
ATOM     12  C   UNL     1     104.533 125.383  80.742  0.00  0.00    +0.000 A 
ATOM     13  C   UNL     1     105.769 125.927  80.363  0.00  0.00    +0.000 A 
ATOM     14  C   UNL     1     105.914 127.308  80.202  0.00  0.00    +0.000 A 
ATOM     15  C   UNL     1     104.838 128.167  80.420  0.00  0.00    +0.000 A 
ATOM     16  C   UNL     1     103.603 127.643  80.797  0.00  0.00    +0.000 A 
ATOM     17 CL   UNL     1     107.440 127.955  79.739  0.00  0.00    +0.000 Cl
ATOM     18  C   UNL     1     104.379 123.903  80.922  0.00  0.00    +0.000 C 
ENDBRANCH  10  11
ENDBRANCH   1  10
TORSDOF 3
ENDMDL
