MODEL 1
REMARK VINA RESULT:      -5.0      0.000      0.000
REMARK  Name = *****
REMARK  6 active torsions:
REMARK  status: ('A' for Active; 'I' for Inactive)
REMARK    1  A    between atoms: C_1  and  C_2
REMARK    2  A    between atoms: C_2  and  C_3
REMARK    3  A    between atoms: C_6  and  C_9
REMARK    4  A    between atoms: C_9  and  C_10
REMARK    5  A    between atoms: C_10  and  C_12
REMARK    6  A    between atoms: C_15  and  C_18
REMARK                            x       y       z     vdW  Elec       q    Type
REMARK                         _______ _______ _______ _____ _____    ______ ____
ROOT
ATOM      1  C   UNL     1      88.973  70.093  86.639  0.00  0.00    +0.000 C 
ENDROOT
BRANCH   1   5
ATOM      2  C   UNL     1      88.794  65.793  87.122  0.00  0.00    +0.000 A 
ATOM      3  C   UNL     1      89.867  66.389  86.448  0.00  0.00    +0.000 A 
ATOM      4  C   UNL     1      89.923  67.776  86.290  0.00  0.00    +0.000 A 
ATOM      5  C   UNL     1      88.911  68.593  86.811  0.00  0.00    +0.000 A 
ATOM      6  C   UNL     1      87.836  67.996  87.481  0.00  0.00    +0.000 A 
ATOM      7  C   UNL     1      87.782  66.609  87.640  0.00  0.00    +0.000 A 
BRANCH   2   9
ATOM      8  C   UNL     1      88.491  63.912  88.754  0.00  0.00    +0.000 C 
ATOM      9  C   UNL     1      88.741  64.298  87.303  0.00  0.00    +0.000 C 
ENDBRANCH   2   9
ENDBRANCH   1   5
BRANCH   1  10
ATOM     10  C   UNL     1      87.988  70.652  85.624  0.00  0.00    +0.000 C 
ATOM     11  O   UNL     1      88.177  70.617  84.409  0.00  0.00    +0.000 OA
BRANCH  10  12
ATOM     12  C   UNL     1      86.723  71.271  86.134  0.00  0.00    +0.000 A 
ATOM     13  C   UNL     1      85.736  71.779  85.282  0.00  0.00    +0.000 A 
ATOM     14  C   UNL     1      84.570  72.346  85.812  0.00  0.00    +0.000 A 
ATOM     15  C   UNL     1      84.380  72.422  87.196  0.00  0.00    +0.000 A 
ATOM     16  C   UNL     1      85.361  71.901  88.047  0.00  0.00    +0.000 A 
ATOM     17  C   UNL     1      86.525  71.336  87.520  0.00  0.00    +0.000 A 
ATOM     18  C   UNL     1      83.114  72.998  87.759  0.00  0.00    +0.000 C 
ENDBRANCH  10  12
ENDBRANCH   1  10
TORSDOF 4
ENDMDL
