MODEL 1
REMARK VINA RESULT:      -4.1      0.000      0.000
REMARK  Name = *****
REMARK  3 active torsions:
REMARK  status: ('A' for Active; 'I' for Inactive)
REMARK    1  A    between atoms: C_7  and  O_8
REMARK    2  A    between atoms: O_8  and  C_9
REMARK    3  A    between atoms: C_9  and  C_10
REMARK                            x       y       z     vdW  Elec       q    Type
REMARK                         _______ _______ _______ _____ _____    ______ ____
ROOT
ATOM      1  O   UNL     1     103.269 126.196  83.263  0.00  0.00    +0.000 OA
ENDROOT
BRANCH   1   8
ATOM      2  C   UNL     1     105.614 124.927  79.960  0.00  0.00    +0.000 C 
ATOM      3  C   UNL     1     105.508 126.435  80.233  0.00  0.00    +0.000 C 
ATOM      4  C   UNL     1     104.190 126.551  81.016  0.00  0.00    +0.000 C 
ATOM      5  C   UNL     1     103.331 125.484  80.334  0.00  0.00    +0.000 C 
ATOM      6  C   UNL     1     104.335 124.367  80.607  0.00  0.00    +0.000 C 
ATOM      7  C   UNL     1     104.476 124.439  82.138  0.00  0.00    +0.000 C 
ATOM      8  C   UNL     1     104.396 125.953  82.426  0.00  0.00    +0.000 C 
ENDBRANCH   1   8
BRANCH   1   9
ATOM      9  C   UNL     1     102.877 127.568  83.284  0.00  0.00    +0.000 C 
BRANCH   9  10
ATOM     10  C   UNL     1     101.385 127.711  83.096  0.00  0.00    +0.000 A 
ATOM     11  C   UNL     1     100.614 126.703  82.503  0.00  0.00    +0.000 A 
ATOM     12  C   UNL     1      99.230 126.845  82.375  0.00  0.00    +0.000 A 
ATOM     13  C   UNL     1      98.600 127.992  82.849  0.00  0.00    +0.000 A 
ATOM     14  C   UNL     1      99.351 128.998  83.453  0.00  0.00    +0.000 A 
ATOM     15  C   UNL     1     100.735 128.858  83.580  0.00  0.00    +0.000 A 
ENDBRANCH   9  10
ENDBRANCH   1   9
TORSDOF 3
ENDMDL
