MODEL 1
REMARK VINA RESULT:      -4.2      0.000      0.000
REMARK  Name = *****
REMARK  3 active torsions:
REMARK  status: ('A' for Active; 'I' for Inactive)
REMARK    1  A    between atoms: C_5  and  C_6
REMARK    2  A    between atoms: C_6  and  C_7
REMARK    3  A    between atoms: C_7  and  C_8
REMARK                            x       y       z     vdW  Elec       q    Type
REMARK                         _______ _______ _______ _____ _____    ______ ____
ROOT
ATOM      1  C   UNL     1     102.638 127.504  82.762  0.00  0.00    +0.000 C 
ENDROOT
BRANCH   1   2
ATOM      2  C   UNL     1     101.141 127.646  82.891  0.00  0.00    +0.000 A 
ATOM      3  C   UNL     1     100.287 126.663  82.372  0.00  0.00    +0.000 A 
ATOM      4  C   UNL     1      98.902 126.804  82.475  0.00  0.00    +0.000 A 
ATOM      5  C   UNL     1      98.359 127.930  83.091  0.00  0.00    +0.000 A 
ATOM      6  C   UNL     1      99.200 128.916  83.603  0.00  0.00    +0.000 A 
ATOM      7  C   UNL     1     100.585 128.778  83.501  0.00  0.00    +0.000 A 
ENDBRANCH   1   2
BRANCH   1   8
ATOM      8  C   UNL     1     103.051 127.112  81.338  0.00  0.00    +0.000 C 
BRANCH   8  13
ATOM      9  C   UNL     1     103.682 124.808  82.379  0.00  0.00    +0.000 C 
ATOM     10  C   UNL     1     104.356 123.600  81.796  0.00  0.00    +0.000 C 
ATOM     11  C   UNL     1     104.654 123.825  80.508  0.00  0.00    +0.000 C 
ATOM     12  C   UNL     1     104.220 125.149  80.139  0.00  0.00    +0.000 C 
ATOM     13  C   UNL     1     103.652 125.749  81.199  0.00  0.00    +0.000 C 
ENDBRANCH   8  13
ENDBRANCH   1   8
TORSDOF 3
ENDMDL
