MODEL 1
REMARK VINA RESULT:      -4.6      0.000      0.000
REMARK  Name = *****
REMARK  5 active torsions:
REMARK  status: ('A' for Active; 'I' for Inactive)
REMARK    1  A    between atoms: C_1  and  C_2
REMARK    2  A    between atoms: C_5  and  O_8
REMARK    3  A    between atoms: O_8  and  C_9
REMARK    4  A    between atoms: C_9  and  C_10
REMARK    5  A    between atoms: C_10  and  C_11
REMARK                            x       y       z     vdW  Elec       q    Type
REMARK                         _______ _______ _______ _____ _____    ______ ____
ROOT
ATOM      1  O   UNL     1     101.301 125.828  82.065  0.00  0.00    +0.000 OA
ENDROOT
BRANCH   1   6
ATOM      2  C   UNL     1      99.268 130.640  84.289  0.00  0.00    +0.000 C 
ATOM      3  C   UNL     1      99.762 129.356  83.692  0.00  0.00    +0.000 A 
ATOM      4  C   UNL     1      98.879 128.449  83.098  0.00  0.00    +0.000 A 
ATOM      5  C   UNL     1      99.350 127.254  82.540  0.00  0.00    +0.000 A 
ATOM      6  C   UNL     1     100.712 126.954  82.571  0.00  0.00    +0.000 A 
ATOM      7  C   UNL     1     101.595 127.861  83.161  0.00  0.00    +0.000 A 
ATOM      8  C   UNL     1     101.127 129.053  83.718  0.00  0.00    +0.000 A 
ENDBRANCH   1   6
BRANCH   1   9
ATOM      9  C   UNL     1     102.728 125.776  82.091  0.00  0.00    +0.000 C 
BRANCH   9  10
ATOM     10  C   UNL     1     103.224 125.654  80.650  0.00  0.00    +0.000 C 
BRANCH  10  11
ATOM     11  C   UNL     1     104.342 124.653  80.518  0.00  0.00    +0.000 A 
ATOM     12  C   UNL     1     105.320 124.809  79.526  0.00  0.00    +0.000 A 
ATOM     13  C   UNL     1     106.341 123.868  79.389  0.00  0.00    +0.000 A 
ATOM     14  C   UNL     1     106.392 122.763  80.237  0.00  0.00    +0.000 A 
ATOM     15  C   UNL     1     105.421 122.598  81.223  0.00  0.00    +0.000 A 
ATOM     16  C   UNL     1     104.399 123.537  81.362  0.00  0.00    +0.000 A 
ENDBRANCH  10  11
ENDBRANCH   9  10
ENDBRANCH   1   9
TORSDOF 4
ENDMDL
