MODEL 1
REMARK VINA RESULT:      -4.8      0.000      0.000
REMARK  Name = *****
REMARK  5 active torsions:
REMARK  status: ('A' for Active; 'I' for Inactive)
REMARK    1  A    between atoms: C_1  and  C_2
REMARK    2  A    between atoms: C_3  and  C_10
REMARK    3  A    between atoms: C_5  and  C_8
REMARK    4  A    between atoms: C_10  and  C_11
REMARK    5  A    between atoms: C_11  and  C_13
REMARK                            x       y       z     vdW  Elec       q    Type
REMARK                         _______ _______ _______ _____ _____    ______ ____
ROOT
ATOM      1  C   UNL     1      86.551  68.189  88.399  0.00  0.00    +0.000 C 
ATOM      2  C   UNL     1      87.710  67.619  87.627  0.00  0.00    +0.000 A 
ATOM      3  C   UNL     1      88.694  68.444  87.042  0.00  0.00    +0.000 A 
ATOM      4  C   UNL     1      89.768  67.848  86.353  0.00  0.00    +0.000 A 
ATOM      5  C   UNL     1      89.858  66.458  86.225  0.00  0.00    +0.000 A 
ATOM      6  C   UNL     1      88.873  65.648  86.790  0.00  0.00    +0.000 A 
ATOM      7  C   UNL     1      87.809  66.225  87.485  0.00  0.00    +0.000 A 
ENDROOT
BRANCH   5   8
ATOM      8  C   UNL     1      90.955  65.870  85.515  0.00  0.00    +0.000 C 
ATOM      9  N   UNL     1      91.849  65.392  84.950  0.00  0.00    +0.000 NA
ENDBRANCH   5   8
BRANCH   3  10
ATOM     10  C   UNL     1      88.653  69.956  87.157  0.00  0.00    +0.000 C 
BRANCH  10  11
ATOM     11  C   UNL     1      87.964  70.648  85.991  0.00  0.00    +0.000 C 
ATOM     12  O   UNL     1      88.442  70.685  84.857  0.00  0.00    +0.000 OA
BRANCH  11  13
ATOM     13  C   UNL     1      86.640  71.299  86.235  0.00  0.00    +0.000 A 
ATOM     14  C   UNL     1      85.806  71.723  85.193  0.00  0.00    +0.000 A 
ATOM     15  C   UNL     1      84.577  72.325  85.478  0.00  0.00    +0.000 A 
ATOM     16  C   UNL     1      84.174  72.507  86.800  0.00  0.00    +0.000 A 
ATOM     17  C   UNL     1      85.001  72.093  87.843  0.00  0.00    +0.000 A 
ATOM     18  C   UNL     1      86.230  71.493  87.562  0.00  0.00    +0.000 A 
ENDBRANCH  11  13
ENDBRANCH  10  11
ENDBRANCH   3  10
TORSDOF 4
ENDMDL
