MODEL 1
REMARK VINA RESULT:      -4.9      0.000      0.000
REMARK  Name = *****
REMARK  3 active torsions:
REMARK  status: ('A' for Active; 'I' for Inactive)
REMARK    1  A    between atoms: C_5  and  C_7
REMARK    2  A    between atoms: C_8  and  C_9
REMARK    3  A    between atoms: C_8  and  C_11
REMARK                            x       y       z     vdW  Elec       q    Type
REMARK                         _______ _______ _______ _____ _____    ______ ____
ROOT
ATOM      1  C   UNL     1     102.211 125.870  82.342  0.00  0.00    +0.000 C 
ATOM      2  C   UNL     1     103.106 125.942  81.337  0.00  0.00    +0.000 C 
ENDROOT
BRANCH   1   7
ATOM      3  C   UNL     1      98.905 127.641  82.629  0.00  0.00    +0.000 A 
ATOM      4  C   UNL     1      99.251 128.790  83.339  0.00  0.00    +0.000 A 
ATOM      5  C   UNL     1     100.573 128.995  83.733  0.00  0.00    +0.000 A 
ATOM      6  C   UNL     1     101.553 128.050  83.417  0.00  0.00    +0.000 A 
ATOM      7  C   UNL     1     101.216 126.891  82.700  0.00  0.00    +0.000 A 
ATOM      8  C   UNL     1      99.881 126.693  82.313  0.00  0.00    +0.000 A 
ATOM      9 CL   UNL     1     103.176 128.360  83.928  0.00  0.00    +0.000 Cl
ENDBRANCH   1   7
BRANCH   2  10
ATOM     10  C   UNL     1     104.023 124.803  81.127  0.00  0.00    +0.000 A 
ATOM     11  C   UNL     1     104.161 123.814  82.113  0.00  0.00    +0.000 A 
ATOM     12  C   UNL     1     105.035 122.741  81.921  0.00  0.00    +0.000 A 
ATOM     13  C   UNL     1     105.767 122.656  80.744  0.00  0.00    +0.000 A 
ATOM     14  C   UNL     1     105.642 123.621  79.752  0.00  0.00    +0.000 A 
ATOM     15  C   UNL     1     104.769 124.695  79.941  0.00  0.00    +0.000 A 
ATOM     16  F   UNL     1     106.605 121.627  80.561  0.00  0.00    +0.000 F 
ENDBRANCH   2  10
BRANCH   2  17
ATOM     17  C   UNL     1     103.173 127.137  80.439  0.00  0.00    +0.000 C 
ATOM     18  O   UNL     1     103.934 128.079  80.629  0.00  0.00    +0.000 OA
ENDBRANCH   2  17
TORSDOF 3
ENDMDL
