REMARK  Name = *****
REMARK  4 active torsions:
REMARK  status: ('A' for Active; 'I' for Inactive)
REMARK    1  A    between atoms: C_5  and  C_7
REMARK    2  A    between atoms: C_7  and  C_9
REMARK    3  A    between atoms: C_9  and  C_10
REMARK    4  A    between atoms: C_10  and  C_11
REMARK                            x       y       z     vdW  Elec       q    Type
REMARK                         _______ _______ _______ _____ _____    ______ ____
ROOT
ATOM      1  C   UNL     1      -0.566  -2.297   0.853  0.00  0.00    +0.000 C 
ATOM      2  O   UNL     1       0.063  -3.199   1.403  0.00  0.00    +0.000 OA
ENDROOT
BRANCH   1   7
ATOM      3  C   UNL     1       2.114  -0.287  -0.836  0.00  0.00    +0.000 A 
ATOM      4  C   UNL     1       1.703   1.024  -0.611  0.00  0.00    +0.000 A 
ATOM      5  C   UNL     1       0.541   1.274   0.123  0.00  0.00    +0.000 A 
ATOM      6  C   UNL     1      -0.222   0.215   0.627  0.00  0.00    +0.000 A 
ATOM      7  C   UNL     1       0.177  -1.103   0.382  0.00  0.00    +0.000 A 
ATOM      8  C   UNL     1       1.357  -1.348  -0.338  0.00  0.00    +0.000 A 
ATOM      9 CL   UNL     1      -1.593   0.627   1.591  0.00  0.00    +0.000 Cl
ENDBRANCH   1   7
BRANCH   1  10
ATOM     10  C   UNL     1      -2.051  -2.391   0.572  0.00  0.00    +0.000 C 
BRANCH  10  11
ATOM     11  C   UNL     1      -2.430  -3.817   0.172  0.00  0.00    +0.000 C 
BRANCH  11  12
ATOM     12  C   UNL     1      -3.897  -3.925  -0.164  0.00  0.00    +0.000 A 
ATOM     13  C   UNL     1      -4.335  -3.792  -1.490  0.00  0.00    +0.000 A 
ATOM     14  C   UNL     1      -5.695  -3.873  -1.793  0.00  0.00    +0.000 A 
ATOM     15  C   UNL     1      -6.615  -4.082  -0.772  0.00  0.00    +0.000 A 
ATOM     16  C   UNL     1      -6.201  -4.211   0.548  0.00  0.00    +0.000 A 
ATOM     17  C   UNL     1      -4.842  -4.131   0.854  0.00  0.00    +0.000 A 
ATOM     18  F   UNL     1      -7.919  -4.159  -1.065  0.00  0.00    +0.000 F 
ENDBRANCH  11  12
ENDBRANCH  10  11
ENDBRANCH   1  10
TORSDOF 4
