MODEL 1
REMARK VINA RESULT:      -4.4      0.000      0.000
REMARK  Name = *****
REMARK  4 active torsions:
REMARK  status: ('A' for Active; 'I' for Inactive)
REMARK    1  A    between atoms: C_1  and  C_2
REMARK    2  A    between atoms: C_5  and  O_8
REMARK    3  A    between atoms: O_8  and  C_9
REMARK    4  A    between atoms: C_9  and  C_11
REMARK                            x       y       z     vdW  Elec       q    Type
REMARK                         _______ _______ _______ _____ _____    ______ ____
ROOT
ATOM      1  O   UNL     1     100.303 127.370  82.252  0.00  0.00    +0.000 OA
ENDROOT
BRANCH   1   6
ATOM      2  C   UNL     1     104.655 128.894  81.515  0.00  0.00    +0.000 C 
ATOM      3  C   UNL     1     103.844 127.805  82.216  0.00  0.00    +0.000 C 
ATOM      4  C   UNL     1     102.915 128.417  83.273  0.00  0.00    +0.000 C 
ATOM      5  C   UNL     1     102.053 127.351  83.949  0.00  0.00    +0.000 C 
ATOM      6  C   UNL     1     101.252 126.526  82.936  0.00  0.00    +0.000 C 
ATOM      7  C   UNL     1     102.179 125.924  81.876  0.00  0.00    +0.000 C 
ATOM      8  C   UNL     1     103.049 126.982  81.194  0.00  0.00    +0.000 C 
ENDBRANCH   1   6
BRANCH   1   9
ATOM      9  C   UNL     1      99.040 127.375  82.743  0.00  0.00    +0.000 C 
ATOM     10  O   UNL     1      98.151 126.594  82.444  0.00  0.00    +0.000 OA
BRANCH   9  11
ATOM     11  C   UNL     1      98.870 128.479  83.727  0.00  0.00    +0.000 A 
ATOM     12  C   UNL     1      99.381 129.742  83.398  0.00  0.00    +0.000 A 
ATOM     13  C   UNL     1      99.243 130.811  84.286  0.00  0.00    +0.000 A 
ATOM     14  C   UNL     1      98.593 130.625  85.506  0.00  0.00    +0.000 A 
ATOM     15  C   UNL     1      98.080 129.371  85.840  0.00  0.00    +0.000 A 
ATOM     16  C   UNL     1      98.217 128.299  84.954  0.00  0.00    +0.000 A 
ENDBRANCH   9  11
ENDBRANCH   1   9
TORSDOF 3
ENDMDL
