REMARK  Name = *****
REMARK  3 active torsions:
REMARK  status: ('A' for Active; 'I' for Inactive)
REMARK    1  A    between atoms: C_4  and  S_7
REMARK    2  A    between atoms: S_7  and  C_9
REMARK    3  A    between atoms: C_9  and  C_10
REMARK                            x       y       z     vdW  Elec       q    Type
REMARK                         _______ _______ _______ _____ _____    ______ ____
ROOT
ATOM      1  S   UNL     1      -3.148   0.778   0.045  0.00  0.00    +0.000 S 
ATOM      2  O   UNL     1      -3.198   1.760  -1.091  0.00  0.00    +0.000 OA
ENDROOT
BRANCH   1   6
ATOM      3  C   UNL     1       1.184  -0.781   0.197  0.00  0.00    +0.000 A 
ATOM      4  C   UNL     1       0.762  -0.017  -0.891  0.00  0.00    +0.000 A 
ATOM      5  C   UNL     1      -0.549   0.460  -0.943  0.00  0.00    +0.000 A 
ATOM      6  C   UNL     1      -1.445   0.172   0.092  0.00  0.00    +0.000 A 
ATOM      7  C   UNL     1      -1.012  -0.586   1.187  0.00  0.00    +0.000 A 
ATOM      8  C   UNL     1       0.299  -1.064   1.236  0.00  0.00    +0.000 A 
ENDBRANCH   1   6
BRANCH   1   9
ATOM      9  C   UNL     1      -3.913  -0.776  -0.536  0.00  0.00    +0.000 C 
BRANCH   9  10
ATOM     10  C   UNL     1      -5.419  -0.688  -0.553  0.00  0.00    +0.000 A 
ATOM     11  C   UNL     1      -6.182  -1.301   0.452  0.00  0.00    +0.000 A 
ATOM     12  C   UNL     1      -7.575  -1.206   0.432  0.00  0.00    +0.000 A 
ATOM     13  C   UNL     1      -8.223  -0.502  -0.581  0.00  0.00    +0.000 A 
ATOM     14  C   UNL     1      -7.472   0.115  -1.581  0.00  0.00    +0.000 A 
ATOM     15  C   UNL     1      -6.079   0.023  -1.567  0.00  0.00    +0.000 A 
ATOM     16 CL   UNL     1      -8.498  -1.966   1.670  0.00  0.00    +0.000 Cl
ENDBRANCH   9  10
ENDBRANCH   1   9
TORSDOF 3
