MODEL 1
REMARK VINA RESULT:      -4.9      0.000      0.000
REMARK  Name = *****
REMARK  2 active torsions:
REMARK  status: ('A' for Active; 'I' for Inactive)
REMARK    1  A    between atoms: C_7  and  S_10
REMARK    2  A    between atoms: S_10  and  C_11
REMARK                            x       y       z     vdW  Elec       q    Type
REMARK                         _______ _______ _______ _____ _____    ______ ____
ROOT
ATOM      1  C   UNL     1     104.576 121.923  81.624  0.00  0.00    +0.000 C 
ATOM      2  C   UNL     1     104.815 122.835  80.412  0.00  0.00    +0.000 C 
ATOM      3  C   UNL     1     104.308 124.145  80.930  0.00  0.00    +0.000 A 
ATOM      4  C   UNL     1     104.235 124.132  82.327  0.00  0.00    +0.000 A 
ATOM      5  C   UNL     1     104.681 122.812  82.872  0.00  0.00    +0.000 C 
ATOM      6  C   UNL     1     103.834 125.257  83.033  0.00  0.00    +0.000 A 
ATOM      7  C   UNL     1     103.494 126.411  82.316  0.00  0.00    +0.000 A 
ATOM      8  C   UNL     1     103.558 126.411  80.908  0.00  0.00    +0.000 A 
ATOM      9  C   UNL     1     103.978 125.277  80.207  0.00  0.00    +0.000 A 
ENDROOT
BRANCH   7  10
ATOM     10  S   UNL     1     102.956 127.888  83.161  0.00  0.00    +0.000 S 
BRANCH  10  11
ATOM     11  C   UNL     1     101.180 127.792  83.002  0.00  0.00    +0.000 A 
ATOM     12  C   UNL     1     100.547 126.682  82.430  0.00  0.00    +0.000 A 
ATOM     13  C   UNL     1      99.153 126.630  82.342  0.00  0.00    +0.000 A 
ATOM     14  C   UNL     1      98.384 127.682  82.835  0.00  0.00    +0.000 A 
ATOM     15  C   UNL     1      99.005 128.786  83.415  0.00  0.00    +0.000 A 
ATOM     16  C   UNL     1     100.398 128.840  83.501  0.00  0.00    +0.000 A 
ENDBRANCH  10  11
ENDBRANCH   7  10
TORSDOF 2
ENDMDL
