MODEL 1
REMARK VINA RESULT:      -4.4      0.000      0.000
REMARK  Name = *****
REMARK  3 active torsions:
REMARK  status: ('A' for Active; 'I' for Inactive)
REMARK    1  A    between atoms: C_5  and  C_7
REMARK    2  A    between atoms: C_7  and  O_9
REMARK    3  A    between atoms: O_9  and  C_10
REMARK                            x       y       z     vdW  Elec       q    Type
REMARK                         _______ _______ _______ _____ _____    ______ ____
ROOT
ATOM      1  C   UNL     1     101.998 125.935  82.554  0.00  0.00    +0.000 C 
ATOM      2  O   UNL     1     102.447 125.217  83.433  0.00  0.00    +0.000 OA
ENDROOT
BRANCH   1   7
ATOM      3  C   UNL     1      98.681 127.673  82.618  0.00  0.00    +0.000 A 
ATOM      4  C   UNL     1      98.993 128.883  83.235  0.00  0.00    +0.000 A 
ATOM      5  C   UNL     1     100.301 129.140  83.654  0.00  0.00    +0.000 A 
ATOM      6  C   UNL     1     101.308 128.192  83.449  0.00  0.00    +0.000 A 
ATOM      7  C   UNL     1     100.998 126.986  82.811  0.00  0.00    +0.000 A 
ATOM      8  C   UNL     1      99.680 126.720  82.410  0.00  0.00    +0.000 A 
ATOM      9 CL   UNL     1     102.884 128.553  84.055  0.00  0.00    +0.000 Cl
ENDBRANCH   1   7
BRANCH   1  10
ATOM     10  O   UNL     1     102.210 125.869  81.194  0.00  0.00    +0.000 OA
BRANCH  10  11
ATOM     11  C   UNL     1     103.523 126.188  80.853  0.00  0.00    +0.000 A 
ATOM     12  C   UNL     1     103.895 127.530  80.794  0.00  0.00    +0.000 A 
ATOM     13  C   UNL     1     105.198 127.857  80.414  0.00  0.00    +0.000 A 
ATOM     14  C   UNL     1     106.110 126.850  80.082  0.00  0.00    +0.000 A 
ATOM     15  C   UNL     1     105.721 125.508  80.124  0.00  0.00    +0.000 A 
ATOM     16  C   UNL     1     104.424 125.183  80.504  0.00  0.00    +0.000 A 
ATOM     17  F   UNL     1     104.045 123.897  80.523  0.00  0.00    +0.000 F 
ENDBRANCH  10  11
ENDBRANCH   1  10
TORSDOF 3
ENDMDL
