REMARK  Name = *****
REMARK  6 active torsions:
REMARK  status: ('A' for Active; 'I' for Inactive)
REMARK    1  A    between atoms: C_1  and  C_2
REMARK    2  A    between atoms: C_7  and  C_8
REMARK    3  A    between atoms: C_8  and  C_9
REMARK    4  A    between atoms: C_9  and  C_10
REMARK    5  A    between atoms: C_13  and  O_16
REMARK    6  A    between atoms: O_16  and  C_17
REMARK                            x       y       z     vdW  Elec       q    Type
REMARK                         _______ _______ _______ _____ _____    ______ ____
ROOT
ATOM      1  C   UNL     1       2.580  -2.328  -0.079  0.00  0.00    +0.000 C 
ENDROOT
BRANCH   1   2
ATOM      2  C   UNL     1       3.203  -3.699   0.008  0.00  0.00    +0.000 A 
ATOM      3  C   UNL     1       3.167  -4.568  -1.090  0.00  0.00    +0.000 A 
ATOM      4  C   UNL     1       3.725  -5.849  -1.006  0.00  0.00    +0.000 A 
ATOM      5  C   UNL     1       4.322  -6.278   0.179  0.00  0.00    +0.000 A 
ATOM      6  C   UNL     1       4.355  -5.415   1.276  0.00  0.00    +0.000 A 
ATOM      7  C   UNL     1       3.798  -4.136   1.196  0.00  0.00    +0.000 A 
BRANCH   5   8
ATOM      8  O   UNL     1       4.901  -7.498   0.394  0.00  0.00    +0.000 OA
ATOM      9  C   UNL     1       4.891  -8.414  -0.694  0.00  0.00    +0.000 C 
ENDBRANCH   5   8
ENDBRANCH   1   2
BRANCH   1  10
ATOM     10  C   UNL     1       1.090  -2.362   0.275  0.00  0.00    +0.000 C 
BRANCH  10  17
ATOM     11  C   UNL     1      -0.238  -1.361  -2.246  0.00  0.00    +0.000 C 
ATOM     12  C   UNL     1      -0.143  -0.515  -1.005  0.00  0.00    +0.000 A 
ATOM     13  C   UNL     1      -0.699   0.775  -1.021  0.00  0.00    +0.000 A 
ATOM     14  C   UNL     1      -0.648   1.591   0.109  0.00  0.00    +0.000 A 
ATOM     15  C   UNL     1      -0.043   1.129   1.272  0.00  0.00    +0.000 A 
ATOM     16  C   UNL     1       0.507  -0.151   1.306  0.00  0.00    +0.000 A 
ATOM     17  C   UNL     1       0.460  -0.990   0.178  0.00  0.00    +0.000 A 
ENDBRANCH  10  17
ENDBRANCH   1  10
TORSDOF 4
