MODEL 1
REMARK VINA RESULT:      -3.6      0.000      0.000
REMARK  Name = *****
REMARK  4 active torsions:
REMARK  status: ('A' for Active; 'I' for Inactive)
REMARK    1  A    between atoms: C_1  and  N_2
REMARK    2  A    between atoms: N_2  and  C_3
REMARK    3  A    between atoms: N_2  and  C_9
REMARK    4  A    between atoms: C_9  and  C_11
REMARK                            x       y       z     vdW  Elec       q    Type
REMARK                         _______ _______ _______ _____ _____    ______ ____
ROOT
ATOM      1  C   UNL     1     102.711 125.792  84.274  0.00  0.00    +0.000 C 
ATOM      2  N   UNL     1     102.572 126.815  83.228  0.00  0.00    +0.000 N 
ENDROOT
BRANCH   2   3
ATOM      3  C   UNL     1     101.259 127.403  83.104  0.00  0.00    +0.000 A 
ATOM      4  C   UNL     1     100.982 128.685  83.605  0.00  0.00    +0.000 A 
ATOM      5  C   UNL     1      99.696 129.230  83.517  0.00  0.00    +0.000 A 
ATOM      6  C   UNL     1      98.663 128.495  82.942  0.00  0.00    +0.000 A 
ATOM      7  C   UNL     1      98.914 127.216  82.459  0.00  0.00    +0.000 A 
ATOM      8  C   UNL     1     100.200 126.673  82.544  0.00  0.00    +0.000 A 
ENDBRANCH   2   3
BRANCH   2   9
ATOM      9  C   UNL     1     103.694 127.301  82.513  0.00  0.00    +0.000 C 
ATOM     10  S   UNL     1     105.028 128.043  83.256  0.00  0.00    +0.000 S 
BRANCH   9  11
ATOM     11  C   UNL     1     103.713 127.001  80.988  0.00  0.00    +0.000 C 
ATOM     12  C   UNL     1     103.299 125.563  80.647  0.00  0.00    +0.000 C 
ATOM     13  C   UNL     1     104.539 124.684  80.628  0.00  0.00    +0.000 C 
ATOM     14  S   UNL     1     105.824 125.706  79.879  0.00  0.00    +0.000 S 
ATOM     15  C   UNL     1     105.016 127.293  80.234  0.00  0.00    +0.000 C 
ENDBRANCH   9  11
ENDBRANCH   2   9
TORSDOF 3
ENDMDL
