MODEL 1
REMARK VINA RESULT:      -4.6      0.000      0.000
REMARK  Name = *****
REMARK  4 active torsions:
REMARK  status: ('A' for Active; 'I' for Inactive)
REMARK    1  A    between atoms: C_4  and  C_7
REMARK    2  A    between atoms: C_7  and  C_8
REMARK    3  A    between atoms: C_8  and  C_9
REMARK    4  A    between atoms: C_14  and  C_15
REMARK                            x       y       z     vdW  Elec       q    Type
REMARK                         _______ _______ _______ _____ _____    ______ ____
ROOT
ATOM      1  C   UNL     1      88.725  68.516  87.070  0.00  0.00    +0.000 A 
ATOM      2  C   UNL     1      89.893  68.074  86.419  0.00  0.00    +0.000 A 
ATOM      3  C   UNL     1      90.132  66.715  86.236  0.00  0.00    +0.000 A 
ATOM      4  C   UNL     1      89.219  65.775  86.690  0.00  0.00    +0.000 A 
ATOM      5  C   UNL     1      88.056  66.180  87.331  0.00  0.00    +0.000 A 
ATOM      6  C   UNL     1      87.802  67.548  87.524  0.00  0.00    +0.000 A 
ATOM      7  F   UNL     1      89.452  64.468  86.512  0.00  0.00    +0.000 F 
ATOM      8  F   UNL     1      91.254  66.324  85.617  0.00  0.00    +0.000 F 
ENDROOT
BRANCH   6   9
ATOM      9  C   UNL     1      86.543  67.917  88.216  0.00  0.00    +0.000 C 
ATOM     10  O   UNL     1      85.490  68.062  87.606  0.00  0.00    +0.000 OA
ENDBRANCH   6   9
BRANCH   1  11
ATOM     11  C   UNL     1      88.518  70.008  87.220  0.00  0.00    +0.000 C 
BRANCH  11  12
ATOM     12  C   UNL     1      87.886  70.632  85.971  0.00  0.00    +0.000 C 
BRANCH  12  16
ATOM     13  C   UNL     1      84.136  72.562  86.875  0.00  0.00    +0.000 A 
ATOM     14  C   UNL     1      84.532  72.395  85.550  0.00  0.00    +0.000 A 
ATOM     15  C   UNL     1      85.748  71.776  85.255  0.00  0.00    +0.000 A 
ATOM     16  C   UNL     1      86.578  71.315  86.286  0.00  0.00    +0.000 A 
ATOM     17  C   UNL     1      86.169  71.487  87.616  0.00  0.00    +0.000 A 
ATOM     18  C   UNL     1      84.955  72.110  87.907  0.00  0.00    +0.000 A 
ENDBRANCH  12  16
ENDBRANCH  11  12
ENDBRANCH   1  11
TORSDOF 4
ENDMDL
