MODEL 1
REMARK VINA RESULT:      -4.7      0.000      0.000
REMARK  Name = *****
REMARK  7 active torsions:
REMARK  status: ('A' for Active; 'I' for Inactive)
REMARK    1  A    between atoms: C_1  and  C_2
REMARK    2  A    between atoms: C_4  and  C_19
REMARK    3  A    between atoms: C_5  and  O_9
REMARK    4  A    between atoms: C_6  and  C_8
REMARK    5  A    between atoms: O_9  and  C_10
REMARK    6  A    between atoms: C_10  and  S_11
REMARK    7  A    between atoms: C_10  and  C_13
REMARK                            x       y       z     vdW  Elec       q    Type
REMARK                         _______ _______ _______ _____ _____    ______ ____
ROOT
ATOM      1  O   UNL     1     102.040 127.152  82.696  0.00  0.00    +0.000 OA
ENDROOT
BRANCH   1   6
ATOM      2  C   UNL     1      98.967 131.287  85.125  0.00  0.00    +0.000 C 
ATOM      3  C   UNL     1      99.776 130.217  84.452  0.00  0.00    +0.000 A 
ATOM      4  C   UNL     1     101.176 130.252  84.508  0.00  0.00    +0.000 A 
ATOM      5  C   UNL     1     101.945 129.238  83.922  0.00  0.00    +0.000 A 
ATOM      6  C   UNL     1     101.276 128.165  83.318  0.00  0.00    +0.000 A 
ATOM      7  C   UNL     1      99.878 128.112  83.224  0.00  0.00    +0.000 A 
ATOM      8  C   UNL     1      99.137 129.140  83.820  0.00  0.00    +0.000 A 
ATOM      9  C   UNL     1      99.175 126.965  82.564  0.00  0.00    +0.000 C 
ATOM     10  C   UNL     1     103.442 129.289  84.001  0.00  0.00    +0.000 C 
ENDBRANCH   1   6
BRANCH   1  11
ATOM     11  C   UNL     1     102.516 126.027  83.363  0.00  0.00    +0.000 C 
BRANCH  11  12
ATOM     12  C   UNL     1     103.293 125.199  82.422  0.00  0.00    +0.000 A 
ATOM     13  C   UNL     1     103.383 125.584  81.077  0.00  0.00    +0.000 A 
ATOM     14  C   UNL     1     104.113 124.808  80.174  0.00  0.00    +0.000 A 
ATOM     15  C   UNL     1     104.757 123.651  80.608  0.00  0.00    +0.000 A 
ATOM     16  C   UNL     1     104.675 123.266  81.946  0.00  0.00    +0.000 A 
ATOM     17  C   UNL     1     103.947 124.037  82.855  0.00  0.00    +0.000 A 
ENDBRANCH  11  12
BRANCH  11  18
ATOM     18  S   UNL     1     102.308 125.611  84.930  0.00  0.00    +0.000 S 
ATOM     19  O   UNL     1     100.930 125.250  85.362  0.00  0.00    +0.000 OA
ENDBRANCH  11  18
ENDBRANCH   1  11
TORSDOF 4
ENDMDL
