MODEL 1
REMARK VINA RESULT:      -4.5      0.000      0.000
REMARK  Name = *****
REMARK  4 active torsions:
REMARK  status: ('A' for Active; 'I' for Inactive)
REMARK    1  A    between atoms: C_1  and  C_2
REMARK    2  A    between atoms: C_7  and  C_8
REMARK    3  A    between atoms: N_9  and  C_10
REMARK    4  A    between atoms: C_15  and  C_16
REMARK                            x       y       z     vdW  Elec       q    Type
REMARK                         _______ _______ _______ _____ _____    ______ ____
ROOT
ATOM      1  C   UNL     1      89.585  67.797  86.124  0.00  0.00    +0.000 A 
ATOM      2  C   UNL     1      90.332  66.749  85.567  0.00  0.00    +0.000 A 
ATOM      3  C   UNL     1      90.046  65.420  85.879  0.00  0.00    +0.000 A 
ATOM      4  C   UNL     1      89.016  65.125  86.765  0.00  0.00    +0.000 A 
ATOM      5  C   UNL     1      88.277  66.159  87.341  0.00  0.00    +0.000 A 
ATOM      6  C   UNL     1      88.557  67.504  87.032  0.00  0.00    +0.000 A 
ENDROOT
BRANCH   6   7
ATOM      7  C   UNL     1      87.763  68.614  87.664  0.00  0.00    +0.000 C 
ATOM      8  F   UNL     1      86.926  69.243  86.789  0.00  0.00    +0.000 F 
ATOM      9  F   UNL     1      86.947  68.170  88.670  0.00  0.00    +0.000 F 
ATOM     10  F   UNL     1      88.527  69.586  88.236  0.00  0.00    +0.000 F 
ENDBRANCH   6   7
BRANCH   1  12
ATOM     11  C   UNL     1      89.652  69.504  84.590  0.00  0.00    +0.000 C 
ATOM     12  N   UNL     1      89.916  69.119  85.801  0.00  0.00    +0.000 NA
BRANCH  11  19
ATOM     13  C   UNL     1      87.610  71.675  84.765  0.00  0.00    +0.000 C 
ATOM     14  C   UNL     1      88.984  71.901  84.201  0.00  0.00    +0.000 A 
ATOM     15  C   UNL     1      89.327  73.184  83.740  0.00  0.00    +0.000 A 
ATOM     16  C   UNL     1      90.593  73.442  83.210  0.00  0.00    +0.000 A 
ATOM     17  C   UNL     1      91.537  72.424  83.132  0.00  0.00    +0.000 A 
ATOM     18  C   UNL     1      91.217  71.145  83.585  0.00  0.00    +0.000 A 
ATOM     19  C   UNL     1      89.948  70.877  84.118  0.00  0.00    +0.000 A 
ENDBRANCH  11  19
ENDBRANCH   1  12
TORSDOF 3
ENDMDL
