MODEL 1
REMARK VINA RESULT:      -4.4      0.000      0.000
REMARK  Name = *****
REMARK  3 active torsions:
REMARK  status: ('A' for Active; 'I' for Inactive)
REMARK    1  A    between atoms: C_3  and  S_8
REMARK    2  A    between atoms: S_8  and  C_9
REMARK    3  A    between atoms: C_9  and  C_10
REMARK                            x       y       z     vdW  Elec       q    Type
REMARK                         _______ _______ _______ _____ _____    ______ ____
ROOT
ATOM      1  C   UNL     1      88.989  69.933  86.987  0.00  0.00    +0.000 C 
ENDROOT
BRANCH   1   2
ATOM      2  C   UNL     1      89.061  68.437  86.804  0.00  0.00    +0.000 A 
ATOM      3  C   UNL     1      90.203  67.840  86.250  0.00  0.00    +0.000 A 
ATOM      4  C   UNL     1      90.269  66.456  86.101  0.00  0.00    +0.000 A 
ATOM      5  C   UNL     1      89.208  65.648  86.504  0.00  0.00    +0.000 A 
ATOM      6  C   UNL     1      88.071  66.227  87.064  0.00  0.00    +0.000 A 
ATOM      7  C   UNL     1      87.999  67.615  87.217  0.00  0.00    +0.000 A 
ATOM      8 CL   UNL     1      89.286  63.938  86.319  0.00  0.00    +0.000 Cl
ATOM      9  F   UNL     1      91.374  65.921  85.562  0.00  0.00    +0.000 F 
ENDBRANCH   1   2
BRANCH   1  10
ATOM     10  S   UNL     1      88.156  70.366  88.549  0.00  0.00    +0.000 S 
BRANCH  10  13
ATOM     11  C   UNL     1      85.435  71.948  85.988  0.00  0.00    +0.000 A 
ATOM     12  C   UNL     1      86.562  71.319  86.521  0.00  0.00    +0.000 A 
ATOM     13  C   UNL     1      86.707  71.185  87.908  0.00  0.00    +0.000 A 
ATOM     14  C   UNL     1      85.701  71.664  88.755  0.00  0.00    +0.000 A 
ATOM     15  C   UNL     1      84.573  72.292  88.221  0.00  0.00    +0.000 A 
ATOM     16  C   UNL     1      84.452  72.430  86.844  0.00  0.00    +0.000 A 
ATOM     17  F   UNL     1      83.370  73.032  86.334  0.00  0.00    +0.000 F 
ENDBRANCH  10  13
ENDBRANCH   1  10
TORSDOF 3
ENDMDL
