MODEL 1
REMARK VINA RESULT:      -4.7      0.000      0.000
REMARK  Name = *****
REMARK  7 active torsions:
REMARK  status: ('A' for Active; 'I' for Inactive)
REMARK    1  A    between atoms: C_1  and  C_2
REMARK    2  A    between atoms: C_5  and  S_8
REMARK    3  A    between atoms: S_8  and  N_9
REMARK    4  A    between atoms: S_8  and  O_18
REMARK    5  A    between atoms: N_9  and  C_10
REMARK    6  A    between atoms: C_15  and  C_16
REMARK    7  A    between atoms: O_18  and  C_19
REMARK                            x       y       z     vdW  Elec       q    Type
REMARK                         _______ _______ _______ _____ _____    ______ ____
ROOT
ATOM      1  S   UNL     1      89.012  70.299  86.440  0.00  0.00    +0.000 S 
ATOM      2  O   UNL     1      89.607  70.838  87.644  0.00  0.00    +0.000 OA
ENDROOT
BRANCH   1   7
ATOM      3  C   UNL     1      88.768  64.297  87.285  0.00  0.00    +0.000 C 
ATOM      4  C   UNL     1      88.810  65.779  87.049  0.00  0.00    +0.000 A 
ATOM      5  C   UNL     1      87.774  66.600  87.516  0.00  0.00    +0.000 A 
ATOM      6  C   UNL     1      87.824  67.982  87.325  0.00  0.00    +0.000 A 
ATOM      7  C   UNL     1      88.924  68.542  86.673  0.00  0.00    +0.000 A 
ATOM      8  C   UNL     1      89.970  67.741  86.210  0.00  0.00    +0.000 A 
ATOM      9  C   UNL     1      89.913  66.361  86.407  0.00  0.00    +0.000 A 
ENDBRANCH   1   7
BRANCH   1  10
ATOM     10  O   UNL     1      90.056  70.527  85.209  0.00  0.00    +0.000 OA
ATOM     11  C   UNL     1      89.733  71.516  84.250  0.00  0.00    +0.000 C 
ENDBRANCH   1  10
BRANCH   1  12
ATOM     12  N   UNL     1      87.738  70.789  85.749  0.00  0.00    +0.000 NA
BRANCH  12  13
ATOM     13  C   UNL     1      86.544  71.347  86.310  0.00  0.00    +0.000 A 
ATOM     14  C   UNL     1      86.248  71.353  87.677  0.00  0.00    +0.000 A 
ATOM     15  C   UNL     1      85.064  71.924  88.156  0.00  0.00    +0.000 A 
ATOM     16  C   UNL     1      84.158  72.493  87.269  0.00  0.00    +0.000 A 
ATOM     17  C   UNL     1      84.432  72.491  85.904  0.00  0.00    +0.000 A 
ATOM     18  C   UNL     1      85.620  71.920  85.413  0.00  0.00    +0.000 A 
ATOM     19  C   UNL     1      85.878  71.937  83.929  0.00  0.00    +0.000 C 
ENDBRANCH  12  13
ENDBRANCH   1  12
TORSDOF 4
ENDMDL
