MODEL 1
REMARK VINA RESULT:      -4.7      0.000      0.000
REMARK  Name = *****
REMARK  2 active torsions:
REMARK  status: ('A' for Active; 'I' for Inactive)
REMARK    1  A    between atoms: C_4  and  C_7
REMARK    2  A    between atoms: C_8  and  C_9
REMARK                            x       y       z     vdW  Elec       q    Type
REMARK                         _______ _______ _______ _____ _____    ______ ____
ROOT
ATOM      1  C   UNL     1     102.100 126.174  82.271  0.00  0.00    +0.000 C 
ATOM      2  C   UNL     1     102.981 125.424  81.947  0.00  0.00    +0.000 C 
ENDROOT
BRANCH   2   3
ATOM      3  C   UNL     1     104.030 124.531  81.552  0.00  0.00    +0.000 A 
ATOM      4  C   UNL     1     104.676 123.682  82.465  0.00  0.00    +0.000 A 
ATOM      5  C   UNL     1     105.696 122.830  82.034  0.00  0.00    +0.000 A 
ATOM      6  C   UNL     1     106.065 122.832  80.694  0.00  0.00    +0.000 A 
ATOM      7  C   UNL     1     105.438 123.665  79.776  0.00  0.00    +0.000 A 
ATOM      8  C   UNL     1     104.418 124.517  80.205  0.00  0.00    +0.000 A 
ATOM      9  F   UNL     1     107.044 122.016  80.279  0.00  0.00    +0.000 F 
ATOM     10 BR   UNL     1     104.212 123.637  84.308  0.00  0.00    +0.000 Br
ENDBRANCH   2   3
BRANCH   1  14
ATOM     11  C   UNL     1      98.999 128.824  83.360  0.00  0.00    +0.000 A 
ATOM     12  C   UNL     1     100.325 129.146  83.649  0.00  0.00    +0.000 A 
ATOM     13  C   UNL     1     101.350 128.269  83.290  0.00  0.00    +0.000 A 
ATOM     14  C   UNL     1     101.049 127.069  82.639  0.00  0.00    +0.000 A 
ATOM     15  C   UNL     1      99.719 126.748  82.352  0.00  0.00    +0.000 A 
ATOM     16  C   UNL     1      98.695 127.627  82.712  0.00  0.00    +0.000 A 
ENDBRANCH   1  14
TORSDOF 2
ENDMDL
