MODEL 1
REMARK VINA RESULT:      -5.1      0.000      0.000
REMARK  Name = *****
REMARK  1 active torsions:
REMARK  status: ('A' for Active; 'I' for Inactive)
REMARK    1  A    between atoms: C_1  and  N_2
REMARK                            x       y       z     vdW  Elec       q    Type
REMARK                         _______ _______ _______ _____ _____    ______ ____
ROOT
ATOM      1  C   UNL     1      98.182 126.142  85.103  0.00  0.00    +0.000 C 
ATOM      2  N   UNL     1      98.713 127.451  84.756  0.00  0.00    +0.000 N 
ATOM      3  C   UNL     1      98.059 128.613  85.363  0.00  0.00    +0.000 A 
ATOM      4  C   UNL     1      96.840 128.496  86.050  0.00  0.00    +0.000 A 
ATOM      5  C   UNL     1      96.238 129.611  86.648  0.00  0.00    +0.000 A 
ATOM      6  C   UNL     1      96.849 130.862  86.590  0.00  0.00    +0.000 A 
ATOM      7  C   UNL     1      98.074 131.005  85.943  0.00  0.00    +0.000 A 
ATOM      8  C   UNL     1      98.675 129.895  85.346  0.00  0.00    +0.000 A 
ATOM      9  C   UNL     1      99.970 130.021  84.765  0.00  0.00    +0.000 C 
ATOM     10  C   UNL     1     100.884 129.567  84.145  0.00  0.00    +0.000 C 
ATOM     11  C   UNL     1     101.404 128.478  83.395  0.00  0.00    +0.000 A 
ATOM     12  C   UNL     1     100.502 127.455  83.033  0.00  0.00    +0.000 A 
ATOM     13  C   UNL     1      99.046 127.534  83.382  0.00  0.00    +0.000 C 
ATOM     14  O   UNL     1      98.217 127.472  82.478  0.00  0.00    +0.000 OA
ATOM     15  C   UNL     1     100.941 126.382  82.256  0.00  0.00    +0.000 A 
ATOM     16  C   UNL     1     102.281 126.322  81.891  0.00  0.00    +0.000 A 
ATOM     17  C   UNL     1     103.183 127.316  82.268  0.00  0.00    +0.000 A 
ATOM     18  C   UNL     1     102.744 128.407  83.022  0.00  0.00    +0.000 A 
ATOM     19  F   UNL     1     102.715 125.288  81.158  0.00  0.00    +0.000 F 
ENDROOT
TORSDOF 0
ENDMDL
