MODEL 1
REMARK VINA RESULT:      -3.8      0.000      0.000
REMARK  Name = *****
REMARK  3 active torsions:
REMARK  status: ('A' for Active; 'I' for Inactive)
REMARK    1  A    between atoms: C_5  and  N_8
REMARK    2  A    between atoms: N_8  and  C_9
REMARK    3  A    between atoms: C_9  and  C_10
REMARK                            x       y       z     vdW  Elec       q    Type
REMARK                         _______ _______ _______ _____ _____    ______ ____
ROOT
ATOM      1  N   UNL     1      89.715  69.067  86.377  0.00  0.00    +0.000 NA
ENDROOT
BRANCH   1   6
ATOM      2  C   UNL     1      85.494  71.609  88.202  0.00  0.00    +0.000 C 
ATOM      3  C   UNL     1      86.691  71.225  87.730  0.00  0.00    +0.000 C 
ATOM      4  C   UNL     1      87.755  70.865  88.656  0.00  0.00    +0.000 C 
ATOM      5  C   UNL     1      88.959  70.499  88.185  0.00  0.00    +0.000 C 
ATOM      6  C   UNL     1      89.294  70.438  86.710  0.00  0.00    +0.000 C 
ATOM      7  C   UNL     1      88.121  70.789  85.821  0.00  0.00    +0.000 C 
ATOM      8  C   UNL     1      86.917  71.157  86.293  0.00  0.00    +0.000 C 
ENDBRANCH   1   6
BRANCH   1   9
ATOM      9  C   UNL     1      88.970  68.215  86.682  0.00  0.00    +0.000 C 
BRANCH   9  10
ATOM     10  C   UNL     1      88.157  67.256  87.025  0.00  0.00    +0.000 C 
ATOM     11  C   UNL     1      86.753  67.517  87.508  0.00  0.00    +0.000 C 
ATOM     12  C   UNL     1      86.492  66.820  88.843  0.00  0.00    +0.000 C 
ATOM     13  C   UNL     1      86.840  65.332  88.785  0.00  0.00    +0.000 C 
ATOM     14  C   UNL     1      88.277  65.113  88.312  0.00  0.00    +0.000 C 
ATOM     15  C   UNL     1      88.547  65.801  86.975  0.00  0.00    +0.000 C 
ENDBRANCH   9  10
ENDBRANCH   1   9
TORSDOF 3
ENDMDL
