MODEL 1
REMARK VINA RESULT:      -4.7      0.000      0.000
REMARK  Name = *****
REMARK  4 active torsions:
REMARK  status: ('A' for Active; 'I' for Inactive)
REMARK    1  A    between atoms: C_4  and  C_7
REMARK    2  A    between atoms: C_7  and  O_8
REMARK    3  A    between atoms: O_8  and  C_9
REMARK    4  A    between atoms: C_12  and  C_15
REMARK                            x       y       z     vdW  Elec       q    Type
REMARK                         _______ _______ _______ _____ _____    ______ ____
ROOT
ATOM      1  C   UNL     1     103.726 126.073  81.726  0.00  0.00    +0.000 A 
ATOM      2  C   UNL     1     104.091 125.844  80.397  0.00  0.00    +0.000 A 
ATOM      3  C   UNL     1     104.533 124.585  79.984  0.00  0.00    +0.000 A 
ATOM      4  C   UNL     1     104.624 123.532  80.903  0.00  0.00    +0.000 A 
ATOM      5  C   UNL     1     104.254 123.764  82.234  0.00  0.00    +0.000 A 
ATOM      6  C   UNL     1     103.812 125.027  82.645  0.00  0.00    +0.000 A 
ENDROOT
BRANCH   4   7
ATOM      7  C   UNL     1     105.065 122.161  80.456  0.00  0.00    +0.000 C 
ATOM      8  F   UNL     1     106.251 121.776  81.006  0.00  0.00    +0.000 F 
ATOM      9  F   UNL     1     104.173 121.182  80.777  0.00  0.00    +0.000 F 
ENDBRANCH   4   7
BRANCH   1  10
ATOM     10  O   UNL     1     103.312 127.349  81.991  0.00  0.00    +0.000 OA
BRANCH  10  11
ATOM     11  C   UNL     1     102.704 127.587  83.261  0.00  0.00    +0.000 C 
BRANCH  11  15
ATOM     12  C   UNL     1      98.421 128.014  82.879  0.00  0.00    +0.000 A 
ATOM     13  C   UNL     1      99.050 126.865  82.403  0.00  0.00    +0.000 A 
ATOM     14  C   UNL     1     100.434 126.727  82.515  0.00  0.00    +0.000 A 
ATOM     15  C   UNL     1     101.209 127.744  83.094  0.00  0.00    +0.000 A 
ATOM     16  C   UNL     1     100.562 128.890  83.581  0.00  0.00    +0.000 A 
ATOM     17  C   UNL     1      99.177 129.025  83.469  0.00  0.00    +0.000 A 
ENDBRANCH  11  15
ENDBRANCH  10  11
ENDBRANCH   1  10
TORSDOF 4
ENDMDL
