MODEL 1
REMARK VINA RESULT:      -4.5      0.000      0.000
REMARK  Name = *****
REMARK  4 active torsions:
REMARK  status: ('A' for Active; 'I' for Inactive)
REMARK    1  A    between atoms: C_5  and  N_8
REMARK    2  A    between atoms: C_5  and  O_10
REMARK    3  A    between atoms: O_10  and  C_11
REMARK    4  A    between atoms: C_11  and  C_13
REMARK                            x       y       z     vdW  Elec       q    Type
REMARK                         _______ _______ _______ _____ _____    ______ ____
ROOT
ATOM      1  C   UNL     1      99.136 129.895  86.418  0.00  0.00    +0.000 C 
ATOM      2  C   UNL     1      98.821 130.667  85.143  0.00  0.00    +0.000 C 
ATOM      3  C   UNL     1      99.747 130.393  83.962  0.00  0.00    +0.000 C 
ATOM      4  C   UNL     1      99.305 129.176  83.144  0.00  0.00    +0.000 C 
ATOM      5  C   UNL     1      99.660 127.794  83.744  0.00  0.00    +0.000 C 
ATOM      6  C   UNL     1      99.054 127.633  85.172  0.00  0.00    +0.000 C 
ATOM      7  C   UNL     1      99.701 128.487  86.264  0.00  0.00    +0.000 C 
ENDROOT
BRANCH   5   8
ATOM      8  N   UNL     1      98.950 126.743  82.894  0.00  0.00    +0.000 NA
ATOM      9  O   UNL     1      98.194 127.246  82.055  0.00  0.00    +0.000 OA
ENDBRANCH   5   8
BRANCH   5  10
ATOM     10  O   UNL     1     101.099 127.662  83.914  0.00  0.00    +0.000 OA
BRANCH  10  11
ATOM     11  C   UNL     1     101.669 126.446  83.759  0.00  0.00    +0.000 C 
ATOM     12  O   UNL     1     101.579 125.494  84.515  0.00  0.00    +0.000 OA
BRANCH  11  13
ATOM     13  C   UNL     1     102.470 126.414  82.507  0.00  0.00    +0.000 A 
ATOM     14  C   UNL     1     102.740 127.567  81.758  0.00  0.00    +0.000 A 
ATOM     15  C   UNL     1     103.491 127.480  80.583  0.00  0.00    +0.000 A 
ATOM     16  C   UNL     1     103.975 126.245  80.153  0.00  0.00    +0.000 A 
ATOM     17  C   UNL     1     103.708 125.093  80.892  0.00  0.00    +0.000 A 
ATOM     18  C   UNL     1     102.954 125.176  82.064  0.00  0.00    +0.000 A 
ENDBRANCH  11  13
ENDBRANCH  10  11
ENDBRANCH   5  10
TORSDOF 4
ENDMDL
