MODEL 1
REMARK VINA RESULT:      -3.7      0.000      0.000
REMARK  Name = *****
REMARK  6 active torsions:
REMARK  status: ('A' for Active; 'I' for Inactive)
REMARK    1  A    between atoms: C_1  and  C_2
REMARK    2  A    between atoms: C_2  and  C_3
REMARK    3  A    between atoms: C_2  and  C_4
REMARK    4  A    between atoms: C_5  and  C_9
REMARK    5  A    between atoms: C_9  and  S_10
REMARK    6  A    between atoms: S_10  and  C_11
REMARK                            x       y       z     vdW  Elec       q    Type
REMARK                         _______ _______ _______ _____ _____    ______ ____
ROOT
ATOM      1  C   UNL     1      87.750  70.702  86.759  0.00  0.00    +0.000 C 
ATOM      2  C   UNL     1      88.453  71.011  85.653  0.00  0.00    +0.000 C 
ATOM      3  C   UNL     1      87.623  71.798  84.679  0.00  0.00    +0.000 C 
ATOM      4  C   UNL     1      86.205  71.608  85.205  0.00  0.00    +0.000 C 
ATOM      5  C   UNL     1      86.355  71.258  86.682  0.00  0.00    +0.000 C 
ENDROOT
BRANCH   1   7
ATOM      6  C   UNL     1      88.473  70.892  89.162  0.00  0.00    +0.000 C 
ATOM      7  C   UNL     1      88.222  69.953  87.981  0.00  0.00    +0.000 C 
ATOM      8  C   UNL     1      87.235  68.851  88.367  0.00  0.00    +0.000 C 
ENDBRANCH   1   7
BRANCH   2   9
ATOM      9  C   UNL     1      89.868  70.661  85.307  0.00  0.00    +0.000 C 
BRANCH   9  10
ATOM     10  S   UNL     1      89.888  69.355  84.037  0.00  0.00    +0.000 S 
BRANCH  10  11
ATOM     11  C   UNL     1      89.281  67.967  84.981  0.00  0.00    +0.000 A 
ATOM     12  C   UNL     1      90.043  67.349  85.978  0.00  0.00    +0.000 A 
ATOM     13  C   UNL     1      89.521  66.272  86.700  0.00  0.00    +0.000 A 
ATOM     14  C   UNL     1      88.232  65.814  86.436  0.00  0.00    +0.000 A 
ATOM     15  C   UNL     1      87.460  66.434  85.457  0.00  0.00    +0.000 A 
ATOM     16  C   UNL     1      87.982  67.510  84.734  0.00  0.00    +0.000 A 
ENDBRANCH  10  11
ENDBRANCH   9  10
ENDBRANCH   2   9
TORSDOF 4
ENDMDL
