MODEL 1
REMARK VINA RESULT:      -4.5      0.000      0.000
REMARK  Name = *****
REMARK  2 active torsions:
REMARK  status: ('A' for Active; 'I' for Inactive)
REMARK    1  A    between atoms: P_8  and  C_11
REMARK    2  A    between atoms: C_11  and  C_12
REMARK                            x       y       z     vdW  Elec       q    Type
REMARK                         _______ _______ _______ _____ _____    ______ ____
ROOT
ATOM      1  C   UNL     1      86.419  67.187  87.543  0.00  0.00    +0.000 C 
ATOM      2  C   UNL     1      86.251  66.557  88.895  0.00  0.00    +0.000 C 
ATOM      3  C   UNL     1      86.866  65.469  89.379  0.00  0.00    +0.000 C 
ATOM      4  C   UNL     1      87.793  64.624  88.672  0.00  0.00    +0.000 C 
ATOM      5  C   UNL     1      88.632  64.972  87.687  0.00  0.00    +0.000 C 
ATOM      6  C   UNL     1      88.788  66.271  87.068  0.00  0.00    +0.000 A 
ATOM      7  C   UNL     1      87.815  67.206  86.993  0.00  0.00    +0.000 A 
ATOM      8  P   UNL     1      88.380  68.671  86.017  0.00  0.00    +0.000 P 
ATOM      9  C   UNL     1      90.005  67.885  85.801  0.00  0.00    +0.000 A 
ATOM     10  C   UNL     1      90.007  66.671  86.368  0.00  0.00    +0.000 A 
ENDROOT
BRANCH   8  11
ATOM     11  C   UNL     1      88.715  69.851  87.383  0.00  0.00    +0.000 C 
BRANCH  11  12
ATOM     12  C   UNL     1      87.440  70.646  87.521  0.00  0.00    +0.000 A 
ATOM     13  C   UNL     1      86.742  71.093  86.387  0.00  0.00    +0.000 A 
ATOM     14  C   UNL     1      85.552  71.812  86.522  0.00  0.00    +0.000 A 
ATOM     15  C   UNL     1      85.041  72.086  87.788  0.00  0.00    +0.000 A 
ATOM     16  C   UNL     1      85.716  71.640  88.923  0.00  0.00    +0.000 A 
ATOM     17  C   UNL     1      86.906  70.921  88.791  0.00  0.00    +0.000 A 
ENDBRANCH  11  12
ENDBRANCH   8  11
TORSDOF 2
ENDMDL
