REMARK  Name = *****
REMARK  4 active torsions:
REMARK  status: ('A' for Active; 'I' for Inactive)
REMARK    1  A    between atoms: C_4  and  N_7
REMARK    2  A    between atoms: N_7  and  C_8
REMARK    3  A    between atoms: C_8  and  C_9
REMARK    4  A    between atoms: C_12  and  C_15
REMARK                            x       y       z     vdW  Elec       q    Type
REMARK                         _______ _______ _______ _____ _____    ______ ____
ROOT
ATOM      1  C   UNL     1      -4.787   1.751  -0.335  0.00  0.00    +0.000 A 
ATOM      2  C   UNL     1      -5.816   0.843  -0.087  0.00  0.00    +0.000 A 
ATOM      3  C   UNL     1      -7.153   1.245  -0.193  0.00  0.00    +0.000 A 
ATOM      4  C   UNL     1      -7.480   2.565  -0.535  0.00  0.00    +0.000 A 
ATOM      5  C   UNL     1      -6.441   3.473  -0.781  0.00  0.00    +0.000 A 
ATOM      6  C   UNL     1      -5.106   3.071  -0.674  0.00  0.00    +0.000 A 
ENDROOT
BRANCH   4   7
ATOM      7  C   UNL     1      -8.922   2.992  -0.674  0.00  0.00    +0.000 C 
ATOM      8  F   UNL     1      -9.778   2.252   0.085  0.00  0.00    +0.000 F 
ATOM      9  F   UNL     1      -9.128   4.288  -0.307  0.00  0.00    +0.000 F 
ATOM     10  F   UNL     1      -9.371   2.890  -1.954  0.00  0.00    +0.000 F 
ENDBRANCH   4   7
BRANCH   1  11
ATOM     11  C   UNL     1      -3.350   1.440  -0.235  0.00  0.00    +0.000 C 
BRANCH  11  12
ATOM     12  N   UNL     1      -2.809   0.242  -0.222  0.00  0.00    +0.000 N 
ATOM     13  O   UNL     1      -3.478  -0.840  -0.286  0.00  0.00    +0.000 OA
BRANCH  12  17
ATOM     14  C   UNL     1       1.404  -0.031   0.127  0.00  0.00    +0.000 A 
ATOM     15  C   UNL     1       0.579  -0.716   1.022  0.00  0.00    +0.000 A 
ATOM     16  C   UNL     1      -0.807  -0.623   0.903  0.00  0.00    +0.000 A 
ATOM     17  C   UNL     1      -1.361   0.167  -0.110  0.00  0.00    +0.000 A 
ATOM     18  C   UNL     1      -0.538   0.840  -1.021  0.00  0.00    +0.000 A 
ATOM     19  C   UNL     1       0.848   0.741  -0.894  0.00  0.00    +0.000 A 
ENDBRANCH  12  17
ENDBRANCH  11  12
ENDBRANCH   1  11
TORSDOF 4
