MODEL 1
REMARK VINA RESULT:      -4.7      0.000      0.000
REMARK  Name = *****
REMARK  4 active torsions:
REMARK  status: ('A' for Active; 'I' for Inactive)
REMARK    1  A    between atoms: C_1  and  C_2
REMARK    2  A    between atoms: C_5  and  C_8
REMARK    3  A    between atoms: C_9  and  C_10
REMARK    4  A    between atoms: C_13  and  C_16
REMARK                            x       y       z     vdW  Elec       q    Type
REMARK                         _______ _______ _______ _____ _____    ______ ____
ROOT
ATOM      1  C   UNL     1      86.326  61.498  88.886  0.00  0.00    +0.000 C 
ATOM      2  C   UNL     1      85.686  61.418  90.064  0.00  0.00    +0.000 C 
ENDROOT
BRANCH   1   7
ATOM      3  C   UNL     1      89.200  66.129  86.931  0.00  0.00    +0.000 C 
ATOM      4  C   UNL     1      88.432  64.952  87.454  0.00  0.00    +0.000 A 
ATOM      5  C   UNL     1      88.511  64.595  88.804  0.00  0.00    +0.000 A 
ATOM      6  C   UNL     1      87.821  63.478  89.286  0.00  0.00    +0.000 A 
ATOM      7  C   UNL     1      87.040  62.698  88.426  0.00  0.00    +0.000 A 
ATOM      8  C   UNL     1      86.989  63.037  87.069  0.00  0.00    +0.000 A 
ATOM      9  C   UNL     1      87.678  64.155  86.588  0.00  0.00    +0.000 A 
ENDBRANCH   1   7
BRANCH   2  10
ATOM     10  C   UNL     1      84.956  60.225  90.517  0.00  0.00    +0.000 A 
ATOM     11  C   UNL     1      83.557  60.198  90.608  0.00  0.00    +0.000 A 
ATOM     12  C   UNL     1      82.894  59.035  91.014  0.00  0.00    +0.000 A 
ATOM     13  C   UNL     1      83.630  57.889  91.322  0.00  0.00    +0.000 A 
ATOM     14  C   UNL     1      85.022  57.897  91.222  0.00  0.00    +0.000 A 
ATOM     15  C   UNL     1      85.679  59.062  90.813  0.00  0.00    +0.000 A 
BRANCH  13  16
ATOM     16  C   UNL     1      82.940  56.657  91.753  0.00  0.00    +0.000 C 
ATOM     17  O   UNL     1      82.651  55.762  90.968  0.00  0.00    +0.000 OA
ENDBRANCH  13  16
ENDBRANCH   2  10
TORSDOF 3
ENDMDL
