MODEL 1
REMARK VINA RESULT:      -4.8      0.000      0.000
REMARK  Name = *****
REMARK  5 active torsions:
REMARK  status: ('A' for Active; 'I' for Inactive)
REMARK    1  A    between atoms: C_1  and  C_2
REMARK    2  A    between atoms: C_4  and  C_8
REMARK    3  A    between atoms: C_8  and  C_9
REMARK    4  A    between atoms: C_9  and  C_10
REMARK    5  A    between atoms: C_10  and  C_12
REMARK                            x       y       z     vdW  Elec       q    Type
REMARK                         _______ _______ _______ _____ _____    ______ ____
ROOT
ATOM      1  C   UNL     1      89.117  68.848  86.154  0.00  0.00    +0.000 C 
ENDROOT
BRANCH   1   2
ATOM      2  C   UNL     1      89.663  69.188  84.781  0.00  0.00    +0.000 C 
ATOM      3  O   UNL     1      90.169  68.342  84.047  0.00  0.00    +0.000 OA
BRANCH   2   4
ATOM      4  C   UNL     1      89.581  70.606  84.308  0.00  0.00    +0.000 A 
ATOM      5  C   UNL     1      88.310  71.163  84.090  0.00  0.00    +0.000 A 
ATOM      6  C   UNL     1      88.182  72.481  83.647  0.00  0.00    +0.000 A 
ATOM      7  C   UNL     1      89.323  73.241  83.423  0.00  0.00    +0.000 A 
ATOM      8  C   UNL     1      90.589  72.707  83.635  0.00  0.00    +0.000 A 
ATOM      9  C   UNL     1      90.722  71.388  84.078  0.00  0.00    +0.000 A 
ATOM     10  F   UNL     1      89.203  74.505  82.999  0.00  0.00    +0.000 F 
ENDBRANCH   2   4
ENDBRANCH   1   2
BRANCH   1  11
ATOM     11  C   UNL     1      89.642  69.803  87.226  0.00  0.00    +0.000 C 
BRANCH  11  15
ATOM     12  C   UNL     1      85.071  71.933  87.221  0.00  0.00    +0.000 C 
ATOM     13  C   UNL     1      86.283  71.461  87.969  0.00  0.00    +0.000 A 
ATOM     14  C   UNL     1      87.355  70.875  87.284  0.00  0.00    +0.000 A 
ATOM     15  C   UNL     1      88.509  70.466  87.969  0.00  0.00    +0.000 A 
ATOM     16  C   UNL     1      88.582  70.653  89.354  0.00  0.00    +0.000 A 
ATOM     17  C   UNL     1      87.524  71.250  90.041  0.00  0.00    +0.000 A 
ATOM     18  C   UNL     1      86.383  71.658  89.351  0.00  0.00    +0.000 A 
ENDBRANCH  11  15
ENDBRANCH   1  11
TORSDOF 4
ENDMDL
