MODEL 1
REMARK VINA RESULT:      -4.9      0.000      0.000
REMARK  Name = *****
REMARK  4 active torsions:
REMARK  status: ('A' for Active; 'I' for Inactive)
REMARK    1  A    between atoms: C_4  and  C_7
REMARK    2  A    between atoms: C_7  and  C_8
REMARK    3  A    between atoms: C_8  and  C_9
REMARK    4  A    between atoms: C_9  and  C_11
REMARK                            x       y       z     vdW  Elec       q    Type
REMARK                         _______ _______ _______ _____ _____    ______ ____
ROOT
ATOM      1  C   UNL     1     104.181 125.031  83.011  0.00  0.00    +0.000 C 
ATOM      2  O   UNL     1     105.166 125.742  83.198  0.00  0.00    +0.000 OA
ENDROOT
BRANCH   1   3
ATOM      3  C   UNL     1     104.389 123.692  82.410  0.00  0.00    +0.000 A 
ATOM      4  C   UNL     1     104.576 123.469  81.041  0.00  0.00    +0.000 A 
ATOM      5  C   UNL     1     104.757 122.161  80.571  0.00  0.00    +0.000 A 
ATOM      6  C   UNL     1     104.763 121.085  81.462  0.00  0.00    +0.000 A 
ATOM      7  C   UNL     1     104.599 121.315  82.825  0.00  0.00    +0.000 A 
ATOM      8  C   UNL     1     104.416 122.609  83.305  0.00  0.00    +0.000 A 
ATOM      9 CL   UNL     1     104.618 119.990  83.921  0.00  0.00    +0.000 Cl
ATOM     10 CL   UNL     1     104.668 124.738  79.876  0.00  0.00    +0.000 Cl
ENDBRANCH   1   3
BRANCH   1  11
ATOM     11  C   UNL     1     102.785 125.436  83.431  0.00  0.00    +0.000 C 
BRANCH  11  12
ATOM     12  C   UNL     1     101.987 125.943  82.230  0.00  0.00    +0.000 C 
BRANCH  12  16
ATOM     13  C   UNL     1      99.080 128.917  83.371  0.00  0.00    +0.000 A 
ATOM     14  C   UNL     1      98.668 127.751  82.726  0.00  0.00    +0.000 A 
ATOM     15  C   UNL     1      99.607 126.784  82.361  0.00  0.00    +0.000 A 
ATOM     16  C   UNL     1     100.966 126.974  82.641  0.00  0.00    +0.000 A 
ATOM     17  C   UNL     1     101.370 128.151  83.286  0.00  0.00    +0.000 A 
ATOM     18  C   UNL     1     100.430 129.117  83.649  0.00  0.00    +0.000 A 
ENDBRANCH  12  16
ENDBRANCH  11  12
ENDBRANCH   1  11
TORSDOF 4
ENDMDL
