MODEL 1
REMARK VINA RESULT:      -4.2      0.000      0.000
REMARK  Name = *****
REMARK  2 active torsions:
REMARK  status: ('A' for Active; 'I' for Inactive)
REMARK    1  A    between atoms: C_4  and  C_7
REMARK    2  A    between atoms: C_8  and  C_9
REMARK                            x       y       z     vdW  Elec       q    Type
REMARK                         _______ _______ _______ _____ _____    ______ ____
ROOT
ATOM      1  C   UNL     1     102.669 126.555  81.984  0.00  0.00    +0.000 C 
ATOM      2  C   UNL     1     101.456 126.097  82.328  0.00  0.00    +0.000 C 
ENDROOT
BRANCH   1   6
ATOM      3  C   UNL     1     104.967 123.095  80.713  0.00  0.00    +0.000 C 
ATOM      4  C   UNL     1     105.026 124.355  79.856  0.00  0.00    +0.000 C 
ATOM      5  C   UNL     1     103.883 125.315  80.183  0.00  0.00    +0.000 C 
ATOM      6  C   UNL     1     103.846 125.661  81.680  0.00  0.00    +0.000 C 
ATOM      7  C   UNL     1     103.781 124.385  82.533  0.00  0.00    +0.000 C 
ATOM      8  C   UNL     1     104.925 123.429  82.201  0.00  0.00    +0.000 C 
ENDBRANCH   1   6
BRANCH   2   9
ATOM      9  C   UNL     1     100.381 126.987  82.601  0.00  0.00    +0.000 A 
ATOM     10  C   UNL     1     100.397 128.155  83.357  0.00  0.00    +0.000 A 
ATOM     11  C   UNL     1      99.092 128.703  83.347  0.00  0.00    +0.000 A 
ATOM     12  C   UNL     1      98.337 127.850  82.586  0.00  0.00    +0.000 A 
ATOM     13  O   UNL     1      99.092 126.821  82.136  0.00  0.00    +0.000 OA
ENDBRANCH   2   9
TORSDOF 2
ENDMDL
