REMARK  Name = *****
REMARK  5 active torsions:
REMARK  status: ('A' for Active; 'I' for Inactive)
REMARK    1  A    between atoms: C_1  and  C_2
REMARK    2  A    between atoms: C_2  and  C_7
REMARK    3  A    between atoms: C_8  and  C_9
REMARK    4  A    between atoms: C_9  and  O_15
REMARK    5  A    between atoms: O_15  and  C_16
REMARK                            x       y       z     vdW  Elec       q    Type
REMARK                         _______ _______ _______ _____ _____    ______ ____
ROOT
ATOM      1  C   UNL     1       2.934   0.024  -1.538  0.00  0.00    +0.000 C 
ATOM      2  C   UNL     1       3.227   0.111  -2.701  0.00  0.00    +0.000 C 
ENDROOT
BRANCH   1   4
ATOM      3  C   UNL     1       1.066  -0.083   0.072  0.00  0.00    +0.000 C 
ATOM      4  C   UNL     1       2.584  -0.082  -0.111  0.00  0.00    +0.000 C 
ATOM      5  S   UNL     1       3.271  -1.642   0.583  0.00  0.00    +0.000 S 
ATOM      6  C   UNL     1       4.418  -0.893   1.773  0.00  0.00    +0.000 C 
ATOM      7  C   UNL     1       4.821   0.480   1.277  0.00  0.00    +0.000 C 
ATOM      8  S   UNL     1       3.295   1.329   0.816  0.00  0.00    +0.000 S 
ENDBRANCH   1   4
BRANCH   2   9
ATOM      9  C   UNL     1       3.597   0.218  -4.135  0.00  0.00    +0.000 C 
ATOM     10  C   UNL     1       3.076   1.564  -4.689  0.00  0.00    +0.000 C 
ATOM     11  C   UNL     1       1.548   1.629  -4.763  0.00  0.00    +0.000 C 
ATOM     12  C   UNL     1       0.976   0.454  -5.550  0.00  0.00    +0.000 C 
ATOM     13  C   UNL     1       1.445  -0.887  -4.993  0.00  0.00    +0.000 C 
ATOM     14  C   UNL     1       2.971  -0.965  -4.907  0.00  0.00    +0.000 C 
BRANCH   9  15
ATOM     15  O   UNL     1       5.028   0.119  -4.158  0.00  0.00    +0.000 OA
ATOM     16  C   UNL     1       5.694   0.474  -5.357  0.00  0.00    +0.000 C 
ENDBRANCH   9  15
ENDBRANCH   2   9
TORSDOF 3
