MODEL 1
REMARK VINA RESULT:      -4.4      0.000      0.000
REMARK  Name = *****
REMARK  4 active torsions:
REMARK  status: ('A' for Active; 'I' for Inactive)
REMARK    1  A    between atoms: C_4  and  C_7
REMARK    2  A    between atoms: C_7  and  N_8
REMARK    3  A    between atoms: N_8  and  C_9
REMARK    4  A    between atoms: C_12  and  C_15
REMARK                            x       y       z     vdW  Elec       q    Type
REMARK                         _______ _______ _______ _____ _____    ______ ____
ROOT
ATOM      1  C   UNL     1     103.802 124.417  81.976  0.00  0.00    +0.000 A 
ATOM      2  C   UNL     1     104.330 123.672  83.023  0.00  0.00    +0.000 A 
ATOM      3  C   UNL     1     105.348 122.755  82.755  0.00  0.00    +0.000 A 
ATOM      4  C   UNL     1     105.827 122.582  81.443  0.00  0.00    +0.000 A 
ATOM      5  C   UNL     1     105.277 123.358  80.406  0.00  0.00    +0.000 A 
ATOM      6  C   UNL     1     104.259 124.276  80.672  0.00  0.00    +0.000 A 
ENDROOT
BRANCH   4   7
ATOM      7  C   UNL     1     106.946 121.607  81.163  0.00  0.00    +0.000 C 
ATOM      8  F   UNL     1     107.883 121.575  82.152  0.00  0.00    +0.000 F 
ATOM      9  F   UNL     1     106.516 120.322  81.018  0.00  0.00    +0.000 F 
ATOM     10  F   UNL     1     107.620 121.907  80.019  0.00  0.00    +0.000 F 
ENDBRANCH   4   7
BRANCH   1  11
ATOM     11  N   UNL     1     102.795 125.330  82.241  0.00  0.00    +0.000 NA
BRANCH  11  12
ATOM     12  C   UNL     1     101.985 126.064  82.454  0.00  0.00    +0.000 C 
BRANCH  12  16
ATOM     13  C   UNL     1      98.908 128.846  83.249  0.00  0.00    +0.000 A 
ATOM     14  C   UNL     1     100.221 129.133  83.622  0.00  0.00    +0.000 A 
ATOM     15  C   UNL     1     101.238 128.214  83.360  0.00  0.00    +0.000 A 
ATOM     16  C   UNL     1     100.943 127.006  82.725  0.00  0.00    +0.000 A 
ATOM     17  C   UNL     1      99.627 126.720  82.352  0.00  0.00    +0.000 A 
ATOM     18  C   UNL     1      98.610 127.640  82.614  0.00  0.00    +0.000 A 
ENDBRANCH  12  16
ENDBRANCH  11  12
ENDBRANCH   1  11
TORSDOF 4
ENDMDL
