MODEL 1
REMARK VINA RESULT:      -4.4      0.000      0.000
REMARK  Name = *****
REMARK  3 active torsions:
REMARK  status: ('A' for Active; 'I' for Inactive)
REMARK    1  A    between atoms: C_4  and  N_7
REMARK    2  A    between atoms: N_7  and  C_8
REMARK    3  A    between atoms: C_8  and  C_9
REMARK                            x       y       z     vdW  Elec       q    Type
REMARK                         _______ _______ _______ _____ _____    ______ ____
ROOT
ATOM      1  N   UNL     1      88.372  70.075  86.334  0.00  0.00    +0.000 N 
ATOM      2  C   UNL     1      88.342  68.658  86.375  0.00  0.00    +0.000 C 
ATOM      3  O   UNL     1      87.292  68.016  86.386  0.00  0.00    +0.000 OA
ATOM      4 CL   UNL     1      89.886  67.811  86.361  0.00  0.00    +0.000 Cl
ENDROOT
BRANCH   1   8
ATOM      5  C   UNL     1      84.746  72.290  86.838  0.00  0.00    +0.000 A 
ATOM      6  C   UNL     1      85.217  71.992  85.567  0.00  0.00    +0.000 A 
ATOM      7  C   UNL     1      86.410  71.278  85.406  0.00  0.00    +0.000 A 
ATOM      8  C   UNL     1      87.163  70.847  86.511  0.00  0.00    +0.000 A 
ATOM      9  C   UNL     1      86.664  71.160  87.786  0.00  0.00    +0.000 A 
ATOM     10  C   UNL     1      85.470  71.876  87.949  0.00  0.00    +0.000 A 
ENDBRANCH   1   8
BRANCH   1  11
ATOM     11  C   UNL     1      89.645  70.788  86.137  0.00  0.00    +0.000 C 
BRANCH  11  12
ATOM     12  C   UNL     1      89.908  71.175  84.694  0.00  0.00    +0.000 A 
ATOM     13  C   UNL     1      89.595  72.457  84.212  0.00  0.00    +0.000 A 
ATOM     14  C   UNL     1      89.820  72.783  82.874  0.00  0.00    +0.000 A 
ATOM     15  C   UNL     1      90.345  71.840  81.995  0.00  0.00    +0.000 A 
ATOM     16  C   UNL     1      90.645  70.559  82.456  0.00  0.00    +0.000 A 
ATOM     17  C   UNL     1      90.423  70.227  83.793  0.00  0.00    +0.000 A 
ATOM     18 CL   UNL     1      89.436  74.360  82.305  0.00  0.00    +0.000 Cl
ENDBRANCH  11  12
ENDBRANCH   1  11
TORSDOF 3
ENDMDL
