REMARK  Name = *****
REMARK  4 active torsions:
REMARK  status: ('A' for Active; 'I' for Inactive)
REMARK    1  A    between atoms: C_1  and  C_2
REMARK    2  A    between atoms: C_5  and  C_9
REMARK    3  A    between atoms: N_6  and  C_7
REMARK    4  A    between atoms: C_10  and  C_11
REMARK                            x       y       z     vdW  Elec       q    Type
REMARK                         _______ _______ _______ _____ _____    ______ ____
ROOT
ATOM      1  C   UNL     1       1.028   0.213   0.073  0.00  0.00    +0.000 C 
ATOM      2  C   UNL     1       2.514   0.177   0.004  0.00  0.00    +0.000 A 
ATOM      3  C   UNL     1       3.341   1.278  -0.107  0.00  0.00    +0.000 A 
ATOM      4  C   UNL     1       4.664   0.823  -0.144  0.00  0.00    +0.000 A 
ATOM      5  C   UNL     1       4.642  -0.557  -0.068  0.00  0.00    +0.000 A 
ATOM      6  N   UNL     1       3.303  -0.982   0.069  0.00  0.00    +0.000 N 
ENDROOT
BRANCH   6   7
ATOM      7  C   UNL     1       2.899  -2.323   0.261  0.00  0.00    +0.000 C 
ATOM      8  C   UNL     1       1.675  -2.861   0.340  0.00  0.00    +0.000 C 
ENDBRANCH   6   7
BRANCH   5   9
ATOM      9  C   UNL     1       5.715  -1.494  -0.131  0.00  0.00    +0.000 C 
ATOM     10  C   UNL     1       6.906  -1.215   0.423  0.00  0.00    +0.000 C 
BRANCH  10  11
ATOM     11  C   UNL     1       8.054  -2.132   0.390  0.00  0.00    +0.000 A 
ATOM     12  C   UNL     1       8.389  -2.870  -0.753  0.00  0.00    +0.000 A 
ATOM     13  C   UNL     1       9.506  -3.709  -0.756  0.00  0.00    +0.000 A 
ATOM     14  C   UNL     1      10.306  -3.810   0.381  0.00  0.00    +0.000 A 
ATOM     15  C   UNL     1       9.994  -3.068   1.518  0.00  0.00    +0.000 A 
ATOM     16  C   UNL     1       8.877  -2.229   1.520  0.00  0.00    +0.000 A 
ENDBRANCH  10  11
ENDBRANCH   5   9
TORSDOF 3
