MODEL 1
REMARK VINA RESULT:      -4.7      0.000      0.000
REMARK  Name = *****
REMARK  5 active torsions:
REMARK  status: ('A' for Active; 'I' for Inactive)
REMARK    1  A    between atoms: C_1  and  C_2
REMARK    2  A    between atoms: C_4  and  C_16
REMARK    3  A    between atoms: C_5  and  C_8
REMARK    4  A    between atoms: C_9  and  C_10
REMARK    5  A    between atoms: C_16  and  C_18
REMARK                            x       y       z     vdW  Elec       q    Type
REMARK                         _______ _______ _______ _____ _____    ______ ____
ROOT
ATOM      1  C   UNL     1      90.174  69.850  81.784  0.00  0.00    +0.000 C 
ATOM      2  C   UNL     1      90.027  69.917  83.275  0.00  0.00    +0.000 A 
ATOM      3  C   UNL     1      89.873  68.746  84.025  0.00  0.00    +0.000 A 
ATOM      4  C   UNL     1      89.705  68.803  85.419  0.00  0.00    +0.000 A 
ATOM      5  C   UNL     1      89.639  70.045  86.074  0.00  0.00    +0.000 A 
ATOM      6  C   UNL     1      89.787  71.214  85.314  0.00  0.00    +0.000 A 
ATOM      7  C   UNL     1      89.977  71.151  83.931  0.00  0.00    +0.000 A 
ENDROOT
BRANCH   4   8
ATOM      8  C   UNL     1      89.598  67.503  86.126  0.00  0.00    +0.000 C 
ATOM      9  O   UNL     1      90.619  66.959  86.543  0.00  0.00    +0.000 OA
ATOM     10  C   UNL     1      88.231  66.922  86.372  0.00  0.00    +0.000 C 
ENDBRANCH   4   8
BRANCH   5  11
ATOM     11  C   UNL     1      89.375  70.209  87.508  0.00  0.00    +0.000 C 
ATOM     12  C   UNL     1      88.160  70.550  87.965  0.00  0.00    +0.000 C 
BRANCH  12  13
ATOM     13  C   UNL     1      87.831  70.712  89.388  0.00  0.00    +0.000 A 
ATOM     14  C   UNL     1      86.832  69.962  90.021  0.00  0.00    +0.000 A 
ATOM     15  C   UNL     1      86.571  70.131  91.383  0.00  0.00    +0.000 A 
ATOM     16  C   UNL     1      87.314  71.044  92.129  0.00  0.00    +0.000 A 
ATOM     17  C   UNL     1      88.321  71.785  91.514  0.00  0.00    +0.000 A 
ATOM     18  C   UNL     1      88.582  71.616  90.152  0.00  0.00    +0.000 A 
ENDBRANCH  12  13
ENDBRANCH   5  11
TORSDOF 3
ENDMDL
