MODEL 1
REMARK VINA RESULT:      -4.3      0.000      0.000
REMARK  Name = *****
REMARK  4 active torsions:
REMARK  status: ('A' for Active; 'I' for Inactive)
REMARK    1  A    between atoms: C_1  and  C_2
REMARK    2  A    between atoms: C_3  and  N_9
REMARK    3  A    between atoms: C_4  and  C_8
REMARK    4  A    between atoms: C_10  and  C_11
REMARK                            x       y       z     vdW  Elec       q    Type
REMARK                         _______ _______ _______ _____ _____    ______ ____
ROOT
ATOM      1  N   UNL     1      84.923  63.328  89.689  0.00  0.00    +0.000 NA
ATOM      2  C   UNL     1      84.250  62.277  90.053  0.00  0.00    +0.000 C 
ATOM      3 CL   UNL     1      82.609  62.273  89.465  0.00  0.00    +0.000 Cl
ENDROOT
BRANCH   1   6
ATOM      4  C   UNL     1      86.995  62.580  87.870  0.00  0.00    +0.000 C 
ATOM      5  C   UNL     1      87.297  63.166  89.223  0.00  0.00    +0.000 A 
ATOM      6  C   UNL     1      86.251  63.538  90.095  0.00  0.00    +0.000 A 
ATOM      7  C   UNL     1      86.559  64.183  91.311  0.00  0.00    +0.000 A 
ATOM      8  C   UNL     1      87.902  64.343  91.686  0.00  0.00    +0.000 A 
ATOM      9  C   UNL     1      88.930  63.926  90.845  0.00  0.00    +0.000 A 
ATOM     10  C   UNL     1      88.631  63.352  89.613  0.00  0.00    +0.000 A 
ATOM     11  C   UNL     1      85.491  64.685  92.243  0.00  0.00    +0.000 C 
ENDBRANCH   1   6
BRANCH   2  12
ATOM     12  C   UNL     1      84.712  61.138  90.890  0.00  0.00    +0.000 A 
ATOM     13  C   UNL     1      84.422  61.144  92.260  0.00  0.00    +0.000 A 
ATOM     14  C   UNL     1      84.830  60.078  93.065  0.00  0.00    +0.000 A 
ATOM     15  C   UNL     1      85.517  59.003  92.503  0.00  0.00    +0.000 A 
ATOM     16  C   UNL     1      85.793  58.988  91.135  0.00  0.00    +0.000 A 
ATOM     17  C   UNL     1      85.386  60.050  90.327  0.00  0.00    +0.000 A 
ENDBRANCH   2  12
TORSDOF 2
ENDMDL
