MODEL 1
REMARK VINA RESULT:      -4.4      0.000      0.000
REMARK  Name = *****
REMARK  3 active torsions:
REMARK  status: ('A' for Active; 'I' for Inactive)
REMARK    1  A    between atoms: C_1  and  C_2
REMARK    2  A    between atoms: C_2  and  C_11
REMARK    3  A    between atoms: N_3  and  C_4
REMARK                            x       y       z     vdW  Elec       q    Type
REMARK                         _______ _______ _______ _____ _____    ______ ____
ROOT
ATOM      1  C   UNL     1      86.946  71.482  89.325  0.00  0.00    +0.000 C 
ATOM      2  C   UNL     1      86.572  71.208  87.883  0.00  0.00    +0.000 C 
ATOM      3  N   UNL     1      87.228  70.426  87.095  0.00  0.00    +0.000 NA
ENDROOT
BRANCH   3   4
ATOM      4  C   UNL     1      88.417  69.693  87.520  0.00  0.00    +0.000 C 
ATOM      5  C   UNL     1      89.663  70.467  87.051  0.00  0.00    +0.000 C 
ATOM      6  C   UNL     1      89.730  70.812  85.561  0.00  0.00    +0.000 C 
ATOM      7  C   UNL     1      89.893  69.613  84.631  0.00  0.00    +0.000 C 
ATOM      8  C   UNL     1      88.670  68.703  84.563  0.00  0.00    +0.000 C 
ATOM      9  C   UNL     1      88.477  67.838  85.770  0.00  0.00    +0.000 C 
ATOM     10  C   UNL     1      88.368  68.272  87.035  0.00  0.00    +0.000 C 
ENDBRANCH   3   4
BRANCH   2  11
ATOM     11  C   UNL     1      85.347  71.879  87.344  0.00  0.00    +0.000 A 
ATOM     12  C   UNL     1      85.205  72.016  85.957  0.00  0.00    +0.000 A 
ATOM     13  C   UNL     1      84.073  72.634  85.421  0.00  0.00    +0.000 A 
ATOM     14  C   UNL     1      83.073  73.109  86.268  0.00  0.00    +0.000 A 
ATOM     15  C   UNL     1      83.200  72.960  87.649  0.00  0.00    +0.000 A 
ATOM     16  C   UNL     1      84.332  72.343  88.188  0.00  0.00    +0.000 A 
ENDBRANCH   2  11
TORSDOF 2
ENDMDL
