MODEL 1
REMARK VINA RESULT:      -4.8      0.000      0.000
REMARK  Name = *****
REMARK  5 active torsions:
REMARK  status: ('A' for Active; 'I' for Inactive)
REMARK    1  A    between atoms: C_1  and  C_2
REMARK    2  A    between atoms: C_5  and  S_8
REMARK    3  A    between atoms: S_8  and  S_10
REMARK    4  A    between atoms: S_10  and  C_13
REMARK    5  A    between atoms: C_16  and  C_19
REMARK                            x       y       z     vdW  Elec       q    Type
REMARK                         _______ _______ _______ _____ _____    ______ ____
ROOT
ATOM      1  S   UNL     1      90.185  66.136  85.182  0.00  0.00    +0.000 S 
ATOM      2  O   UNL     1      90.730  65.411  84.048  0.00  0.00    +0.000 OA
ATOM      3  O   UNL     1      91.069  66.760  86.156  0.00  0.00    +0.000 OA
ENDROOT
BRANCH   1   4
ATOM      4  C   UNL     1      89.120  65.017  86.062  0.00  0.00    +0.000 A 
ATOM      5  C   UNL     1      88.459  64.008  85.357  0.00  0.00    +0.000 A 
ATOM      6  C   UNL     1      87.631  63.118  86.043  0.00  0.00    +0.000 A 
ATOM      7  C   UNL     1      87.461  63.232  87.430  0.00  0.00    +0.000 A 
ATOM      8  C   UNL     1      88.155  64.230  88.127  0.00  0.00    +0.000 A 
ATOM      9  C   UNL     1      88.982  65.125  87.448  0.00  0.00    +0.000 A 
ATOM     10  C   UNL     1      86.599  62.249  88.169  0.00  0.00    +0.000 C 
ENDBRANCH   1   4
BRANCH   1  11
ATOM     11  S   UNL     1      89.000  67.652  84.473  0.00  0.00    +0.000 S 
ATOM     12  O   UNL     1      89.926  68.397  83.548  0.00  0.00    +0.000 OA
BRANCH  11  17
ATOM     13  C   UNL     1      88.372  71.121  89.475  0.00  0.00    +0.000 C 
ATOM     14  C   UNL     1      88.510  70.290  88.234  0.00  0.00    +0.000 A 
ATOM     15  C   UNL     1      89.471  70.611  87.269  0.00  0.00    +0.000 A 
ATOM     16  C   UNL     1      89.625  69.816  86.130  0.00  0.00    +0.000 A 
ATOM     17  C   UNL     1      88.833  68.678  85.951  0.00  0.00    +0.000 A 
ATOM     18  C   UNL     1      87.875  68.352  86.917  0.00  0.00    +0.000 A 
ATOM     19  C   UNL     1      87.722  69.148  88.056  0.00  0.00    +0.000 A 
ENDBRANCH  11  17
ENDBRANCH   1  11
TORSDOF 3
ENDMDL
