MODEL 1
REMARK VINA RESULT:      -4.6      0.000      0.000
REMARK  Name = *****
REMARK  4 active torsions:
REMARK  status: ('A' for Active; 'I' for Inactive)
REMARK    1  A    between atoms: C_4  and  S_7
REMARK    2  A    between atoms: S_7  and  N_8
REMARK    3  A    between atoms: N_8  and  C_9
REMARK    4  A    between atoms: C_12  and  C_15
REMARK                            x       y       z     vdW  Elec       q    Type
REMARK                         _______ _______ _______ _____ _____    ______ ____
ROOT
ATOM      1  C   UNL     1      88.534  64.233  87.815  0.00  0.00    +0.000 A 
ATOM      2  C   UNL     1      88.451  64.220  89.216  0.00  0.00    +0.000 A 
ATOM      3  C   UNL     1      87.559  63.373  89.886  0.00  0.00    +0.000 A 
ATOM      4  C   UNL     1      86.709  62.524  89.166  0.00  0.00    +0.000 A 
ATOM      5  C   UNL     1      86.755  62.562  87.767  0.00  0.00    +0.000 A 
ATOM      6  C   UNL     1      87.649  63.412  87.104  0.00  0.00    +0.000 A 
ENDROOT
BRANCH   4   7
ATOM      7  C   UNL     1      85.728  61.630  89.881  0.00  0.00    +0.000 C 
ATOM      8  F   UNL     1      85.626  61.907  91.212  0.00  0.00    +0.000 F 
ATOM      9  F   UNL     1      84.466  61.741  89.380  0.00  0.00    +0.000 F 
ATOM     10  F   UNL     1      86.048  60.308  89.801  0.00  0.00    +0.000 F 
ENDBRANCH   4   7
BRANCH   1  11
ATOM     11  N   UNL     1      89.408  65.161  87.203  0.00  0.00    +0.000 N 
ATOM     12  H   UNL     1      90.325  65.245  87.553  0.00  0.00    +0.000 HD
BRANCH  11  13
ATOM     13  S   UNL     1      88.956  66.120  85.918  0.00  0.00    +0.000 S 
BRANCH  13  17
ATOM     14  C   UNL     1      88.341  70.084  88.144  0.00  0.00    +0.000 A 
ATOM     15  C   UNL     1      89.450  69.923  87.315  0.00  0.00    +0.000 A 
ATOM     16  C   UNL     1      89.643  68.720  86.632  0.00  0.00    +0.000 A 
ATOM     17  C   UNL     1      88.726  67.673  86.770  0.00  0.00    +0.000 A 
ATOM     18  C   UNL     1      87.620  67.839  87.610  0.00  0.00    +0.000 A 
ATOM     19  C   UNL     1      87.427  69.042  88.293  0.00  0.00    +0.000 A 
ENDBRANCH  13  17
ENDBRANCH  11  13
ENDBRANCH   1  11
TORSDOF 4
ENDMDL
