MODEL 1
REMARK VINA RESULT:      -4.6      0.000      0.000
REMARK  Name = *****
REMARK  5 active torsions:
REMARK  status: ('A' for Active; 'I' for Inactive)
REMARK    1  A    between atoms: C_1  and  O_2
REMARK    2  A    between atoms: O_2  and  C_3
REMARK    3  A    between atoms: C_3  and  C_5
REMARK    4  A    between atoms: C_8  and  C_11
REMARK    5  A    between atoms: C_12  and  C_13
REMARK                            x       y       z     vdW  Elec       q    Type
REMARK                         _______ _______ _______ _____ _____    ______ ____
ROOT
ATOM      1  C   UNL     1     104.320 125.191  80.488  0.00  0.00    +0.000 A 
ATOM      2  C   UNL     1     103.666 124.666  81.610  0.00  0.00    +0.000 A 
ATOM      3  C   UNL     1     102.799 125.469  82.361  0.00  0.00    +0.000 A 
ATOM      4  C   UNL     1     102.582 126.799  81.994  0.00  0.00    +0.000 A 
ATOM      5  C   UNL     1     103.232 127.328  80.877  0.00  0.00    +0.000 A 
ATOM      6  C   UNL     1     104.097 126.529  80.126  0.00  0.00    +0.000 A 
ENDROOT
BRANCH   1   7
ATOM      7  C   UNL     1     105.250 124.383  79.652  0.00  0.00    +0.000 C 
ATOM      8  O   UNL     1     105.871 124.838  78.704  0.00  0.00    +0.000 OA
BRANCH   7  10
ATOM      9  C   UNL     1     106.616 122.640  80.389  0.00  0.00    +0.000 C 
ATOM     10  O   UNL     1     105.297 123.102  80.090  0.00  0.00    +0.000 OA
ENDBRANCH   7  10
ENDBRANCH   1   7
BRANCH   4  11
ATOM     11  C   UNL     1     101.692 127.616  82.760  0.00  0.00    +0.000 C 
ATOM     12  C   UNL     1     100.945 128.305  83.400  0.00  0.00    +0.000 C 
BRANCH  12  13
ATOM     13  C   UNL     1     100.054 129.128  84.159  0.00  0.00    +0.000 A 
ATOM     14  C   UNL     1      99.082 128.539  84.974  0.00  0.00    +0.000 A 
ATOM     15  C   UNL     1      98.212 129.343  85.713  0.00  0.00    +0.000 A 
ATOM     16  C   UNL     1      98.321 130.728  85.630  0.00  0.00    +0.000 A 
ATOM     17  C   UNL     1      99.284 131.323  84.824  0.00  0.00    +0.000 A 
ATOM     18  C   UNL     1     100.155 130.521  84.084  0.00  0.00    +0.000 A 
ATOM     19  F   UNL     1      97.486 131.497  86.339  0.00  0.00    +0.000 F 
ENDBRANCH  12  13
ENDBRANCH   4  11
TORSDOF 4
ENDMDL
