MODEL 1
REMARK VINA RESULT:      -4.4      0.000      0.000
REMARK  Name = *****
REMARK  5 active torsions:
REMARK  status: ('A' for Active; 'I' for Inactive)
REMARK    1  A    between atoms: C_1  and  O_2
REMARK    2  A    between atoms: O_2  and  C_3
REMARK    3  A    between atoms: C_8  and  C_9
REMARK    4  A    between atoms: C_10  and  C_11
REMARK    5  A    between atoms: C_16  and  N_17
REMARK                            x       y       z     vdW  Elec       q    Type
REMARK                         _______ _______ _______ _____ _____    ______ ____
ROOT
ATOM      1  C   UNL     1     102.898 125.271  82.441  0.00  0.00    +0.000 C 
ATOM      2  C   UNL     1     102.325 126.324  81.837  0.00  0.00    +0.000 C 
ENDROOT
BRANCH   1   8
ATOM      3  C   UNL     1     104.403 123.263  82.473  0.00  0.00    +0.000 A 
ATOM      4  C   UNL     1     105.346 122.447  81.838  0.00  0.00    +0.000 A 
ATOM      5  C   UNL     1     105.796 122.750  80.550  0.00  0.00    +0.000 A 
ATOM      6  C   UNL     1     105.304 123.867  79.883  0.00  0.00    +0.000 A 
ATOM      7  C   UNL     1     104.364 124.689  80.506  0.00  0.00    +0.000 A 
ATOM      8  C   UNL     1     103.915 124.410  81.807  0.00  0.00    +0.000 A 
BRANCH   3  10
ATOM      9  C   UNL     1     104.643 122.161  84.581  0.00  0.00    +0.000 C 
ATOM     10  O   UNL     1     103.907 123.034  83.734  0.00  0.00    +0.000 OA
ENDBRANCH   3  10
ENDBRANCH   1   8
BRANCH   2  11
ATOM     11  C   UNL     1     101.315 127.173  82.485  0.00  0.00    +0.000 A 
ATOM     12  C   UNL     1      99.958 126.813  82.456  0.00  0.00    +0.000 A 
ATOM     13  C   UNL     1      98.994 127.601  83.098  0.00  0.00    +0.000 A 
ATOM     14  C   UNL     1      99.371 128.755  83.783  0.00  0.00    +0.000 A 
ATOM     15  C   UNL     1     100.713 129.124  83.833  0.00  0.00    +0.000 A 
ATOM     16  C   UNL     1     101.669 128.331  83.192  0.00  0.00    +0.000 A 
BRANCH  16  17
ATOM     17  N   UNL     1     102.998 128.739  83.264  0.00  0.00    +0.000 NA
ATOM     18  C   UNL     1     104.111 129.102  83.326  0.00  0.00    +0.000 C 
ENDBRANCH  16  17
ENDBRANCH   2  11
TORSDOF 4
ENDMDL
