MODEL 1
REMARK VINA RESULT:      -4.3      0.000      0.000
REMARK  Name = *****
REMARK  4 active torsions:
REMARK  status: ('A' for Active; 'I' for Inactive)
REMARK    1  A    between atoms: C_1  and  N_2
REMARK    2  A    between atoms: N_2  and  C_3
REMARK    3  A    between atoms: N_2  and  C_10
REMARK    4  A    between atoms: C_3  and  C_4
REMARK                            x       y       z     vdW  Elec       q    Type
REMARK                         _______ _______ _______ _____ _____    ______ ____
ROOT
ATOM      1  C   UNL     1      88.387  70.856  89.348  0.00  0.00    +0.000 C 
ATOM      2  N   UNL     1      87.762  70.586  88.058  0.00  0.00    +0.000 N 
ENDROOT
BRANCH   2   3
ATOM      3  C   UNL     1      86.562  71.214  87.715  0.00  0.00    +0.000 A 
ATOM      4  C   UNL     1      86.208  71.484  86.381  0.00  0.00    +0.000 A 
ATOM      5  C   UNL     1      85.008  72.126  86.043  0.00  0.00    +0.000 A 
ATOM      6  C   UNL     1      84.126  72.528  87.038  0.00  0.00    +0.000 A 
ATOM      7  C   UNL     1      84.450  72.293  88.367  0.00  0.00    +0.000 A 
ATOM      8  C   UNL     1      85.651  71.649  88.694  0.00  0.00    +0.000 A 
ENDBRANCH   2   3
BRANCH   2   9
ATOM      9  C   UNL     1      88.669  70.127  86.993  0.00  0.00    +0.000 C 
BRANCH   9  10
ATOM     10  C   UNL     1      88.792  68.617  86.910  0.00  0.00    +0.000 A 
ATOM     11  C   UNL     1      89.944  68.059  86.331  0.00  0.00    +0.000 A 
ATOM     12  C   UNL     1      90.112  66.674  86.262  0.00  0.00    +0.000 A 
ATOM     13  C   UNL     1      89.135  65.827  86.781  0.00  0.00    +0.000 A 
ATOM     14  C   UNL     1      87.993  66.365  87.370  0.00  0.00    +0.000 A 
ATOM     15  C   UNL     1      87.825  67.750  87.439  0.00  0.00    +0.000 A 
ENDBRANCH   9  10
ENDBRANCH   2   9
TORSDOF 3
ENDMDL
