MODEL 1
REMARK VINA RESULT:      -4.5      0.000      0.000
REMARK  Name = *****
REMARK  4 active torsions:
REMARK  status: ('A' for Active; 'I' for Inactive)
REMARK    1  A    between atoms: C_2  and  C_3
REMARK    2  A    between atoms: C_4  and  C_5
REMARK    3  A    between atoms: C_6  and  C_10
REMARK    4  A    between atoms: C_11  and  C_12
REMARK                            x       y       z     vdW  Elec       q    Type
REMARK                         _______ _______ _______ _____ _____    ______ ____
ROOT
ATOM      1  C   UNL     1      99.585 128.996  83.487  0.00  0.00    +0.000 C 
ATOM      2  C   UNL     1     100.914 128.825  83.624  0.00  0.00    +0.000 C 
ATOM      3  C   UNL     1     101.540 129.903  84.456  0.00  0.00    +0.000 C 
ATOM      4  C   UNL     1     100.457 130.973  84.484  0.00  0.00    +0.000 C 
ATOM      5  C   UNL     1      99.146 130.242  84.204  0.00  0.00    +0.000 C 
ENDROOT
BRANCH   1   7
ATOM      6  C   UNL     1      98.083 126.985  83.137  0.00  0.00    +0.000 C 
ATOM      7  C   UNL     1      98.689 128.121  82.760  0.00  0.00    +0.000 C 
BRANCH   6   9
ATOM      8  C   UNL     1      98.343 125.789  85.454  0.00  0.00    +0.000 C 
ATOM      9  C   UNL     1      98.204 126.340  84.395  0.00  0.00    +0.000 C 
ENDBRANCH   6   9
ENDBRANCH   1   7
BRANCH   2  10
ATOM     10  C   UNL     1     101.675 127.756  83.082  0.00  0.00    +0.000 C 
ATOM     11  C   UNL     1     102.326 126.856  82.625  0.00  0.00    +0.000 C 
BRANCH  11  12
ATOM     12  C   UNL     1     103.097 125.784  82.077  0.00  0.00    +0.000 A 
ATOM     13  C   UNL     1     103.530 124.742  82.901  0.00  0.00    +0.000 A 
ATOM     14  C   UNL     1     104.283 123.695  82.366  0.00  0.00    +0.000 A 
ATOM     15  C   UNL     1     104.603 123.688  81.008  0.00  0.00    +0.000 A 
ATOM     16  C   UNL     1     104.172 124.729  80.184  0.00  0.00    +0.000 A 
ATOM     17  C   UNL     1     103.419 125.776  80.718  0.00  0.00    +0.000 A 
ENDBRANCH  11  12
ENDBRANCH   2  10
TORSDOF 4
ENDMDL
