MODEL 1
REMARK VINA RESULT:      -4.9      0.000      0.000
REMARK  Name = *****
REMARK  3 active torsions:
REMARK  status: ('A' for Active; 'I' for Inactive)
REMARK    1  A    between atoms: C_1  and  C_2
REMARK    2  A    between atoms: C_3  and  C_11
REMARK    3  A    between atoms: C_4  and  C_5
REMARK                            x       y       z     vdW  Elec       q    Type
REMARK                         _______ _______ _______ _____ _____    ______ ____
ROOT
ATOM      1  C   UNL     1     105.125 127.934  82.359  0.00  0.00    +0.000 C 
ATOM      2  C   UNL     1     103.732 127.872  81.828  0.00  0.00    +0.000 C 
ATOM      3  C   UNL     1     102.735 126.938  82.473  0.00  0.00    +0.000 C 
ATOM      4  C   UNL     1     103.198 126.695  81.040  0.00  0.00    +0.000 C 
ENDROOT
BRANCH   4   5
ATOM      5  C   UNL     1     104.060 125.500  80.703  0.00  0.00    +0.000 A 
ATOM      6  C   UNL     1     103.935 124.279  81.386  0.00  0.00    +0.000 A 
ATOM      7  C   UNL     1     104.724 123.174  81.056  0.00  0.00    +0.000 A 
ATOM      8  C   UNL     1     105.654 123.265  80.024  0.00  0.00    +0.000 A 
ATOM      9  C   UNL     1     105.788 124.458  79.321  0.00  0.00    +0.000 A 
ATOM     10  C   UNL     1     104.996 125.559  79.656  0.00  0.00    +0.000 A 
ENDBRANCH   4   5
BRANCH   3  11
ATOM     11  C   UNL     1     101.325 127.411  82.739  0.00  0.00    +0.000 A 
ATOM     12  C   UNL     1     100.211 126.643  82.362  0.00  0.00    +0.000 A 
ATOM     13  C   UNL     1      98.906 127.073  82.621  0.00  0.00    +0.000 A 
ATOM     14  C   UNL     1      98.690 128.284  83.272  0.00  0.00    +0.000 A 
ATOM     15  C   UNL     1      99.775 129.059  83.666  0.00  0.00    +0.000 A 
ATOM     16  C   UNL     1     101.078 128.624  83.404  0.00  0.00    +0.000 A 
ENDBRANCH   3  11
TORSDOF 2
ENDMDL
