MODEL 1
REMARK VINA RESULT:      -4.8      0.000      0.000
REMARK  Name = *****
REMARK  3 active torsions:
REMARK  status: ('A' for Active; 'I' for Inactive)
REMARK    1  A    between atoms: C_2  and  C_3
REMARK    2  A    between atoms: C_3  and  C_11
REMARK    3  A    between atoms: C_4  and  C_5
REMARK                            x       y       z     vdW  Elec       q    Type
REMARK                         _______ _______ _______ _____ _____    ______ ____
ROOT
ATOM      1  C   UNL     1     103.085 125.613  81.808  0.00  0.00    +0.000 C 
ATOM      2  C   UNL     1     102.109 125.669  82.735  0.00  0.00    +0.000 C 
ENDROOT
BRANCH   2   3
ATOM      3  C   UNL     1     101.215 126.813  82.939  0.00  0.00    +0.000 A 
ATOM      4  C   UNL     1      99.903 126.780  82.454  0.00  0.00    +0.000 A 
ATOM      5  C   UNL     1      99.054 127.872  82.652  0.00  0.00    +0.000 A 
ATOM      6  C   UNL     1      99.514 129.000  83.331  0.00  0.00    +0.000 A 
ATOM      7  C   UNL     1     100.822 129.038  83.814  0.00  0.00    +0.000 A 
ATOM      8  C   UNL     1     101.672 127.947  83.618  0.00  0.00    +0.000 A 
ENDBRANCH   2   3
BRANCH   1   9
ATOM      9  C   UNL     1     103.942 124.415  81.687  0.00  0.00    +0.000 A 
ATOM     10  C   UNL     1     104.219 123.603  82.798  0.00  0.00    +0.000 A 
ATOM     11  C   UNL     1     105.025 122.469  82.671  0.00  0.00    +0.000 A 
ATOM     12  C   UNL     1     105.558 122.127  81.430  0.00  0.00    +0.000 A 
ATOM     13  C   UNL     1     105.286 122.918  80.316  0.00  0.00    +0.000 A 
ATOM     14  C   UNL     1     104.481 124.053  80.443  0.00  0.00    +0.000 A 
ENDBRANCH   1   9
BRANCH   1  16
ATOM     15  C   UNL     1     103.589 127.813  80.111  0.00  0.00    +0.000 C 
ATOM     16  C   UNL     1     103.356 126.797  80.895  0.00  0.00    +0.000 C 
ENDBRANCH   1  16
TORSDOF 3
ENDMDL
