MODEL 1
REMARK VINA RESULT:      -4.2      0.000      0.000
REMARK  Name = *****
REMARK  3 active torsions:
REMARK  status: ('A' for Active; 'I' for Inactive)
REMARK    1  A    between atoms: C_4  and  N_7
REMARK    2  A    between atoms: N_7  and  S_8
REMARK    3  A    between atoms: S_8  and  C_9
REMARK                            x       y       z     vdW  Elec       q    Type
REMARK                         _______ _______ _______ _____ _____    ______ ____
ROOT
ATOM      1  N   UNL     1      89.263  63.746  88.095  0.00  0.00    +0.000 N 
ATOM      2  H   UNL     1      90.185  63.701  88.437  0.00  0.00    +0.000 HD
ENDROOT
BRANCH   1   6
ATOM      3  C   UNL     1      86.032  62.963  90.722  0.00  0.00    +0.000 A 
ATOM      4  C   UNL     1      86.085  62.310  89.495  0.00  0.00    +0.000 A 
ATOM      5  C   UNL     1      87.153  62.543  88.620  0.00  0.00    +0.000 A 
ATOM      6  C   UNL     1      88.198  63.412  88.964  0.00  0.00    +0.000 A 
ATOM      7  C   UNL     1      88.106  64.086  90.194  0.00  0.00    +0.000 A 
ATOM      8  C   UNL     1      87.041  63.856  91.071  0.00  0.00    +0.000 A 
ENDBRANCH   1   6
BRANCH   1   9
ATOM      9  S   UNL     1      89.017  64.213  86.514  0.00  0.00    +0.000 S 
BRANCH   9  10
ATOM     10  C   UNL     1      88.933  65.986  86.723  0.00  0.00    +0.000 A 
ATOM     11  C   UNL     1      89.978  66.780  86.238  0.00  0.00    +0.000 A 
ATOM     12  C   UNL     1      89.929  68.169  86.370  0.00  0.00    +0.000 A 
ATOM     13  C   UNL     1      88.835  68.776  86.984  0.00  0.00    +0.000 A 
ATOM     14  C   UNL     1      87.786  67.993  87.464  0.00  0.00    +0.000 A 
ATOM     15  C   UNL     1      87.833  66.604  87.330  0.00  0.00    +0.000 A 
ENDBRANCH   9  10
ENDBRANCH   1   9
TORSDOF 3
ENDMDL
