MODEL 1
REMARK VINA RESULT:      -4.4      0.000      0.000
REMARK  Name = *****
REMARK  4 active torsions:
REMARK  status: ('A' for Active; 'I' for Inactive)
REMARK    1  A    between atoms: C_1  and  N_2
REMARK    2  A    between atoms: N_2  and  C_3
REMARK    3  A    between atoms: C_4  and  C_10
REMARK    4  A    between atoms: C_12  and  C_14
REMARK                            x       y       z     vdW  Elec       q    Type
REMARK                         _______ _______ _______ _____ _____    ______ ____
ROOT
ATOM      1  C   UNL     1      88.557  68.375  84.012  0.00  0.00    +0.000 C 
ATOM      2  N   UNL     1      89.066  69.365  84.960  0.00  0.00    +0.000 N 
ATOM      3  C   UNL     1      89.221  69.057  86.324  0.00  0.00    +0.000 C 
ATOM      4  O   UNL     1      89.649  69.808  87.197  0.00  0.00    +0.000 OA
ENDROOT
BRANCH   2   5
ATOM      5  C   UNL     1      89.449  70.660  84.450  0.00  0.00    +0.000 A 
ATOM      6  C   UNL     1      88.560  71.757  84.352  0.00  0.00    +0.000 A 
ATOM      7  C   UNL     1      88.993  72.973  83.794  0.00  0.00    +0.000 A 
ATOM      8  C   UNL     1      90.301  73.124  83.339  0.00  0.00    +0.000 A 
ATOM      9  C   UNL     1      91.185  72.059  83.444  0.00  0.00    +0.000 A 
ATOM     10  C   UNL     1      90.770  70.845  83.993  0.00  0.00    +0.000 A 
ATOM     11 CL   UNL     1      92.800  72.237  82.877  0.00  0.00    +0.000 Cl
BRANCH   6  12
ATOM     12  C   UNL     1      87.224  71.753  84.882  0.00  0.00    +0.000 C 
ATOM     13  C   UNL     1      86.118  71.721  85.352  0.00  0.00    +0.000 C 
ENDBRANCH   6  12
ENDBRANCH   2   5
BRANCH   3  14
ATOM     14  C   UNL     1      88.795  67.721  86.782  0.00  0.00    +0.000 A 
ATOM     15  C   UNL     1      89.630  66.622  86.558  0.00  0.00    +0.000 A 
ATOM     16  C   UNL     1      89.231  65.360  86.995  0.00  0.00    +0.000 A 
ATOM     17  C   UNL     1      88.013  65.204  87.662  0.00  0.00    +0.000 A 
ATOM     18  C   UNL     1      87.193  66.310  87.902  0.00  0.00    +0.000 A 
ATOM     19  C   UNL     1      87.583  67.575  87.464  0.00  0.00    +0.000 A 
ENDBRANCH   3  14
TORSDOF 3
ENDMDL
