MODEL 1
REMARK VINA RESULT:      -4.5      0.000      0.000
REMARK  Name = *****
REMARK  2 active torsions:
REMARK  status: ('A' for Active; 'I' for Inactive)
REMARK    1  A    between atoms: C_5  and  C_8
REMARK    2  A    between atoms: C_9  and  C_10
REMARK                            x       y       z     vdW  Elec       q    Type
REMARK                         _______ _______ _______ _____ _____    ______ ____
ROOT
ATOM      1  C   UNL     1     102.833 126.143  81.338  0.00  0.00    +0.000 C 
ATOM      2  C   UNL     1     101.918 125.975  82.311  0.00  0.00    +0.000 C 
ENDROOT
BRANCH   1   7
ATOM      3  C   UNL     1     106.500 123.552  79.504  0.00  0.00    +0.000 C 
ATOM      4  C   UNL     1     105.708 122.646  80.452  0.00  0.00    +0.000 C 
ATOM      5  C   UNL     1     105.667 123.145  81.896  0.00  0.00    +0.000 C 
ATOM      6  S   UNL     1     104.176 124.065  82.394  0.00  0.00    +0.000 S 
ATOM      7  C   UNL     1     103.843 125.100  80.940  0.00  0.00    +0.000 C 
ATOM      8  S   UNL     1     105.316 125.965  80.327  0.00  0.00    +0.000 S 
ATOM      9  C   UNL     1     105.790 124.808  79.012  0.00  0.00    +0.000 C 
ENDBRANCH   1   7
BRANCH   2  10
ATOM     10  C   UNL     1     100.933 126.994  82.699  0.00  0.00    +0.000 A 
ATOM     11  C   UNL     1     101.302 128.186  83.335  0.00  0.00    +0.000 A 
ATOM     12  C   UNL     1     100.340 129.147  83.658  0.00  0.00    +0.000 A 
ATOM     13  C   UNL     1      99.001 128.929  83.338  0.00  0.00    +0.000 A 
ATOM     14  C   UNL     1      98.625 127.754  82.692  0.00  0.00    +0.000 A 
ATOM     15  C   UNL     1      99.587 126.795  82.369  0.00  0.00    +0.000 A 
ENDBRANCH   2  10
TORSDOF 2
ENDMDL
