REMARK  Name = *****
REMARK  1 active torsions:
REMARK  status: ('A' for Active; 'I' for Inactive)
REMARK    1  A    between atoms: C_3  and  C_8
REMARK                            x       y       z     vdW  Elec       q    Type
REMARK                         _______ _______ _______ _____ _____    ______ ____
ROOT
ATOM      1  C   UNL     1       2.036   2.958   0.400  0.00  0.00    +0.000 A 
ATOM      2  N   UNL     1       1.783   4.028   1.134  0.00  0.00    +0.000 NA
ATOM      3  C   UNL     1       2.551   5.009   0.562  0.00  0.00    +0.000 A 
ATOM      4  C   UNL     1       3.248   4.489  -0.517  0.00  0.00    +0.000 A 
ATOM      5  O   UNL     1       2.923   3.170  -0.627  0.00  0.00    +0.000 OA
ATOM      6  C   UNL     1       4.118   5.212  -1.323  0.00  0.00    +0.000 A 
ATOM      7  C   UNL     1       4.273   6.562  -0.983  0.00  0.00    +0.000 A 
ATOM      8  C   UNL     1       3.585   7.121   0.103  0.00  0.00    +0.000 A 
ATOM      9  C   UNL     1       2.714   6.359   0.893  0.00  0.00    +0.000 A 
ATOM     10 CL   UNL     1       3.816   8.787   0.477  0.00  0.00    +0.000 Cl
ENDROOT
BRANCH   1  13
ATOM     11  C   UNL     1       0.013   0.054   1.687  0.00  0.00    +0.000 A 
ATOM     12  C   UNL     1       0.543   1.337   1.528  0.00  0.00    +0.000 A 
ATOM     13  C   UNL     1       1.502   1.605   0.537  0.00  0.00    +0.000 A 
ATOM     14  C   UNL     1       1.919   0.555  -0.294  0.00  0.00    +0.000 A 
ATOM     15  C   UNL     1       1.388  -0.725  -0.131  0.00  0.00    +0.000 A 
ATOM     16  C   UNL     1       0.437  -0.980   0.855  0.00  0.00    +0.000 A 
ATOM     17 CL   UNL     1       1.914  -2.003  -1.157  0.00  0.00    +0.000 Cl
ENDBRANCH   1  13
TORSDOF 1
