MODEL 1
REMARK VINA RESULT:      -4.8      0.000      0.000
REMARK  Name = *****
REMARK  2 active torsions:
REMARK  status: ('A' for Active; 'I' for Inactive)
REMARK    1  A    between atoms: C_4  and  C_7
REMARK    2  A    between atoms: C_8  and  C_9
REMARK                            x       y       z     vdW  Elec       q    Type
REMARK                         _______ _______ _______ _____ _____    ______ ____
ROOT
ATOM      1  C   UNL     1     102.985 125.634  81.504  0.00  0.00    +0.000 C 
ATOM      2  C   UNL     1     102.110 126.297  81.992  0.00  0.00    +0.000 C 
ENDROOT
BRANCH   2   3
ATOM      3  C   UNL     1     101.063 127.104  82.545  0.00  0.00    +0.000 A 
ATOM      4  C   UNL     1      99.736 126.705  82.345  0.00  0.00    +0.000 A 
ATOM      5  C   UNL     1      98.683 127.475  82.847  0.00  0.00    +0.000 A 
ATOM      6  C   UNL     1      98.951 128.646  83.553  0.00  0.00    +0.000 A 
ATOM      7  C   UNL     1     100.271 129.048  83.761  0.00  0.00    +0.000 A 
ATOM      8  C   UNL     1     101.327 128.281  83.259  0.00  0.00    +0.000 A 
ATOM      9 CL   UNL     1     102.938 128.837  83.549  0.00  0.00    +0.000 Cl
ENDBRANCH   2   3
BRANCH   1  13
ATOM     10  C   UNL     1     106.030 123.357  79.667  0.00  0.00    +0.000 A 
ATOM     11  C   UNL     1     105.305 122.820  80.730  0.00  0.00    +0.000 A 
ATOM     12  C   UNL     1     104.303 123.574  81.344  0.00  0.00    +0.000 A 
ATOM     13  C   UNL     1     104.026 124.866  80.893  0.00  0.00    +0.000 A 
ATOM     14  C   UNL     1     104.757 125.404  79.831  0.00  0.00    +0.000 A 
ATOM     15  C   UNL     1     105.758 124.649  79.218  0.00  0.00    +0.000 A 
ENDBRANCH   1  13
TORSDOF 2
ENDMDL
