REMARK  Name = *****
REMARK  2 active torsions:
REMARK  status: ('A' for Active; 'I' for Inactive)
REMARK    1  A    between atoms: C_1  and  C_2
REMARK    2  A    between atoms: C_2  and  C_8
REMARK                            x       y       z     vdW  Elec       q    Type
REMARK                         _______ _______ _______ _____ _____    ______ ____
ROOT
ATOM      1  C   UNL     1       3.113   0.406   1.354  0.00  0.00    +0.000 A 
ATOM      2  C   UNL     1       2.854   1.640   1.985  0.00  0.00    +0.000 A 
ATOM      3  C   UNL     1       3.386   1.957   3.249  0.00  0.00    +0.000 A 
ATOM      4  C   UNL     1       3.121   3.190   3.869  0.00  0.00    +0.000 A 
ATOM      5  C   UNL     1       3.656   3.488   5.123  0.00  0.00    +0.000 A 
ATOM      6  C   UNL     1       4.464   2.560   5.773  0.00  0.00    +0.000 A 
ATOM      7  C   UNL     1       4.737   1.332   5.171  0.00  0.00    +0.000 A 
ATOM      8  C   UNL     1       4.204   1.017   3.909  0.00  0.00    +0.000 A 
ATOM      9  C   UNL     1       4.466  -0.212   3.290  0.00  0.00    +0.000 A 
ATOM     10  C   UNL     1       3.928  -0.511   2.034  0.00  0.00    +0.000 A 
ENDROOT
BRANCH   1  12
ATOM     11  C   UNL     1       0.981   0.041   0.099  0.00  0.00    +0.000 C 
ATOM     12  C   UNL     1       2.517   0.083  -0.030  0.00  0.00    +0.000 C 
ATOM     13  C   UNL     1       2.986   1.150  -1.049  0.00  0.00    +0.000 C 
ATOM     14  C   UNL     1       2.685   0.767  -2.495  0.00  0.00    +0.000 C 
ATOM     15  C   UNL     1       3.200  -0.632  -2.790  0.00  0.00    +0.000 C 
ATOM     16  C   UNL     1       2.676  -1.619  -1.762  0.00  0.00    +0.000 C 
ATOM     17  O   UNL     1       2.998  -1.213  -0.436  0.00  0.00    +0.000 OA
ENDBRANCH   1  12
TORSDOF 1
