REMARK  Name = *****
REMARK  3 active torsions:
REMARK  status: ('A' for Active; 'I' for Inactive)
REMARK    1  A    between atoms: C_1  and  C_2
REMARK    2  A    between atoms: N_6  and  C_7
REMARK    3  A    between atoms: C_7  and  C_8
REMARK                            x       y       z     vdW  Elec       q    Type
REMARK                         _______ _______ _______ _____ _____    ______ ____
ROOT
ATOM      1  C   UNL     1       0.892   0.037   0.092  0.00  0.00    +0.000 C 
ATOM      2  C   UNL     1       2.413  -0.034  -0.067  0.00  0.00    +0.000 C 
ATOM      3  C   UNL     1       2.932   1.002  -1.079  0.00  0.00    +0.000 C 
ATOM      4  C   UNL     1       2.590   0.659  -2.527  0.00  0.00    +0.000 C 
ATOM      5  C   UNL     1       3.045  -0.755  -2.829  0.00  0.00    +0.000 C 
ATOM      6  N   UNL     1       3.786  -1.127  -3.814  0.00  0.00    +0.000 NA
ATOM      7  C   UNL     1       2.536  -1.826  -1.884  0.00  0.00    +0.000 C 
ATOM      8  C   UNL     1       2.884  -1.447  -0.449  0.00  0.00    +0.000 C 
ENDROOT
BRANCH   6   9
ATOM      9  C   UNL     1       4.290  -0.134  -4.758  0.00  0.00    +0.000 C 
BRANCH   9  10
ATOM     10  C   UNL     1       5.099  -0.777  -5.862  0.00  0.00    +0.000 A 
ATOM     11  C   UNL     1       4.541  -1.797  -6.647  0.00  0.00    +0.000 A 
ATOM     12  C   UNL     1       5.273  -2.377  -7.685  0.00  0.00    +0.000 A 
ATOM     13  C   UNL     1       6.569  -1.940  -7.952  0.00  0.00    +0.000 A 
ATOM     14  C   UNL     1       7.134  -0.925  -7.181  0.00  0.00    +0.000 A 
ATOM     15  C   UNL     1       6.402  -0.344  -6.143  0.00  0.00    +0.000 A 
ENDBRANCH   9  10
ENDBRANCH   6   9
TORSDOF 2
