MODEL 1
REMARK VINA RESULT:      -4.7      0.000      0.000
REMARK  Name = *****
REMARK  2 active torsions:
REMARK  status: ('A' for Active; 'I' for Inactive)
REMARK    1  A    between atoms: C_4  and  C_8
REMARK    2  A    between atoms: C_9  and  C_10
REMARK                            x       y       z     vdW  Elec       q    Type
REMARK                         _______ _______ _______ _____ _____    ______ ____
ROOT
ATOM      1  C   UNL     1     103.051 126.088  80.935  0.00  0.00    +0.000 C 
ATOM      2  C   UNL     1     102.130 125.848  81.884  0.00  0.00    +0.000 C 
ENDROOT
BRANCH   1   6
ATOM      3  C   UNL     1     105.614 124.501  81.917  0.00  0.00    +0.000 C 
ATOM      4  C   UNL     1     106.289 124.643  80.551  0.00  0.00    +0.000 C 
ATOM      5  C   UNL     1     105.276 125.544  79.809  0.00  0.00    +0.000 C 
ATOM      6  C   UNL     1     103.896 125.005  80.311  0.00  0.00    +0.000 C 
ATOM      7  C   UNL     1     104.327 123.909  81.328  0.00  0.00    +0.000 C 
ATOM      8  C   UNL     1     104.946 122.779  80.531  0.00  0.00    +0.000 C 
ATOM      9  C   UNL     1     106.118 123.226  80.056  0.00  0.00    +0.000 C 
ENDBRANCH   1   6
BRANCH   2  10
ATOM     10  C   UNL     1     101.303 126.887  82.512  0.00  0.00    +0.000 A 
ATOM     11  C   UNL     1     101.861 128.001  83.155  0.00  0.00    +0.000 A 
ATOM     12  C   UNL     1     101.039 128.986  83.712  0.00  0.00    +0.000 A 
ATOM     13  C   UNL     1      99.654 128.872  83.623  0.00  0.00    +0.000 A 
ATOM     14  C   UNL     1      99.088 127.777  82.973  0.00  0.00    +0.000 A 
ATOM     15  C   UNL     1      99.909 126.794  82.415  0.00  0.00    +0.000 A 
ENDBRANCH   2  10
TORSDOF 2
ENDMDL
