MODEL 1
REMARK VINA RESULT:      -4.5      0.000      0.000
REMARK  Name = *****
REMARK  5 active torsions:
REMARK  status: ('A' for Active; 'I' for Inactive)
REMARK    1  A    between atoms: C_1  and  C_2
REMARK    2  A    between atoms: C_7  and  C_8
REMARK    3  A    between atoms: C_8  and  N_9
REMARK    4  A    between atoms: N_9  and  C_10
REMARK    5  A    between atoms: N_9  and  C_11
REMARK                            x       y       z     vdW  Elec       q    Type
REMARK                         _______ _______ _______ _____ _____    ______ ____
ROOT
ATOM      1  C   UNL     1     102.667 127.122  83.307  0.00  0.00    +0.000 C 
ENDROOT
BRANCH   1   8
ATOM      2  C   UNL     1     101.711 129.775  84.347  0.00  0.00    +0.000 C 
ATOM      3  C   UNL     1     100.777 128.817  83.660  0.00  0.00    +0.000 A 
ATOM      4  C   UNL     1      99.428 129.181  83.512  0.00  0.00    +0.000 A 
ATOM      5  C   UNL     1      98.519 128.327  82.889  0.00  0.00    +0.000 A 
ATOM      6  C   UNL     1      98.945 127.095  82.407  0.00  0.00    +0.000 A 
ATOM      7  C   UNL     1     100.282 126.722  82.541  0.00  0.00    +0.000 A 
ATOM      8  C   UNL     1     101.224 127.578  83.144  0.00  0.00    +0.000 A 
ENDBRANCH   1   8
BRANCH   1   9
ATOM      9  N   UNL     1     102.818 125.661  83.471  0.00  0.00    +0.000 N 
ATOM     10  C   UNL     1     103.039 125.229  84.856  0.00  0.00    +0.000 C 
BRANCH   9  11
ATOM     11  C   UNL     1     103.506 124.911  82.499  0.00  0.00    +0.000 A 
ATOM     12  C   UNL     1     104.199 123.723  82.788  0.00  0.00    +0.000 A 
ATOM     13  C   UNL     1     104.886 123.003  81.803  0.00  0.00    +0.000 A 
ATOM     14  C   UNL     1     104.914 123.462  80.492  0.00  0.00    +0.000 A 
ATOM     15  C   UNL     1     104.263 124.645  80.174  0.00  0.00    +0.000 A 
ATOM     16  C   UNL     1     103.576 125.357  81.166  0.00  0.00    +0.000 A 
ENDBRANCH   9  11
ENDBRANCH   1   9
TORSDOF 3
ENDMDL
