MODEL 1
REMARK VINA RESULT:      -4.4      0.000      0.000
REMARK  Name = *****
REMARK  4 active torsions:
REMARK  status: ('A' for Active; 'I' for Inactive)
REMARK    1  A    between atoms: C_1  and  N_2
REMARK    2  A    between atoms: N_2  and  C_3
REMARK    3  A    between atoms: N_2  and  C_10
REMARK    4  A    between atoms: C_3  and  C_4
REMARK                            x       y       z     vdW  Elec       q    Type
REMARK                         _______ _______ _______ _____ _____    ______ ____
ROOT
ATOM      1  C   UNL     1      86.719  68.550  88.564  0.00  0.00    +0.000 C 
ATOM      2  N   UNL     1      87.720  69.570  88.225  0.00  0.00    +0.000 N 
ENDROOT
BRANCH   2   3
ATOM      3  C   UNL     1      88.728  69.347  87.267  0.00  0.00    +0.000 C 
ATOM      4  C   UNL     1      88.942  68.146  86.692  0.00  0.00    +0.000 C 
ATOM      5  C   UNL     1      89.966  67.843  85.636  0.00  0.00    +0.000 C 
ATOM      6  C   UNL     1      89.759  68.638  84.346  0.00  0.00    +0.000 C 
ATOM      7  C   UNL     1      90.221  70.093  84.427  0.00  0.00    +0.000 C 
ATOM      8  C   UNL     1      89.467  70.960  85.436  0.00  0.00    +0.000 C 
ATOM      9  C   UNL     1      89.644  70.504  86.885  0.00  0.00    +0.000 C 
ENDBRANCH   2   3
BRANCH   2  10
ATOM     10  C   UNL     1      87.377  70.915  88.734  0.00  0.00    +0.000 C 
BRANCH  10  11
ATOM     11  C   UNL     1      86.167  71.524  88.054  0.00  0.00    +0.000 A 
ATOM     12  C   UNL     1      85.094  71.979  88.839  0.00  0.00    +0.000 A 
ATOM     13  C   UNL     1      83.949  72.514  88.245  0.00  0.00    +0.000 A 
ATOM     14  C   UNL     1      83.853  72.592  86.858  0.00  0.00    +0.000 A 
ATOM     15  C   UNL     1      84.902  72.133  86.064  0.00  0.00    +0.000 A 
ATOM     16  C   UNL     1      86.047  71.598  86.657  0.00  0.00    +0.000 A 
ENDBRANCH  10  11
ENDBRANCH   2  10
TORSDOF 3
ENDMDL
