REMARK  Name = *****
REMARK  4 active torsions:
REMARK  status: ('A' for Active; 'I' for Inactive)
REMARK    1  A    between atoms: C_1  and  N_2
REMARK    2  A    between atoms: N_2  and  C_3
REMARK    3  A    between atoms: N_2  and  C_9
REMARK    4  A    between atoms: C_3  and  C_4
REMARK                            x       y       z     vdW  Elec       q    Type
REMARK                         _______ _______ _______ _____ _____    ______ ____
ROOT
ATOM      1  C   UNL     1       1.042   0.114   0.030  0.00  0.00    +0.000 C 
ATOM      2  N   UNL     1       2.496   0.025   0.124  0.00  0.00    +0.000 N 
ENDROOT
BRANCH   2   3
ATOM      3  C   UNL     1       3.229   1.038   0.738  0.00  0.00    +0.000 A 
ATOM      4  C   UNL     1       4.594   0.874   1.039  0.00  0.00    +0.000 A 
ATOM      5  C   UNL     1       5.345   1.875   1.668  0.00  0.00    +0.000 A 
ATOM      6  C   UNL     1       4.738   3.072   2.020  0.00  0.00    +0.000 A 
ATOM      7  C   UNL     1       3.390   3.269   1.754  0.00  0.00    +0.000 A 
ATOM      8  C   UNL     1       2.648   2.258   1.127  0.00  0.00    +0.000 A 
ATOM      9 CL   UNL     1       5.653   4.308   2.791  0.00  0.00    +0.000 Cl
ENDBRANCH   2   3
BRANCH   2  10
ATOM     10  C   UNL     1       3.147  -0.863  -0.846  0.00  0.00    +0.000 C 
BRANCH  10  11
ATOM     11  C   UNL     1       3.409  -2.211  -0.259  0.00  0.00    +0.000 C 
ATOM     12  C   UNL     1       3.190  -2.686   0.982  0.00  0.00    +0.000 C 
ATOM     13  C   UNL     1       3.618  -4.060   1.056  0.00  0.00    +0.000 C 
ATOM     14  C   UNL     1       4.102  -4.440  -0.134  0.00  0.00    +0.000 C 
ATOM     15  C   UNL     1       4.020  -3.297  -1.104  0.00  0.00    +0.000 C 
ENDBRANCH  10  11
ENDBRANCH   2  10
TORSDOF 3
