REMARK  Name = *****
REMARK  4 active torsions:
REMARK  status: ('A' for Active; 'I' for Inactive)
REMARK    1  A    between atoms: C_1  and  C_2
REMARK    2  A    between atoms: C_5  and  C_8
REMARK    3  A    between atoms: C_8  and  C_10
REMARK    4  A    between atoms: C_11  and  C_12
REMARK                            x       y       z     vdW  Elec       q    Type
REMARK                         _______ _______ _______ _____ _____    ______ ____
ROOT
ATOM      1  C   UNL     1      -3.127   0.200  -0.675  0.00  0.00    +0.000 C 
ATOM      2  O   UNL     1      -3.429  -0.468  -1.656  0.00  0.00    +0.000 OA
ENDROOT
BRANCH   1   7
ATOM      3  C   UNL     1       2.199  -0.388   1.556  0.00  0.00    +0.000 C 
ATOM      4  C   UNL     1       0.826  -0.215   0.977  0.00  0.00    +0.000 A 
ATOM      5  C   UNL     1       0.544  -0.615  -0.334  0.00  0.00    +0.000 A 
ATOM      6  C   UNL     1      -0.744  -0.469  -0.856  0.00  0.00    +0.000 A 
ATOM      7  C   UNL     1      -1.767   0.081  -0.075  0.00  0.00    +0.000 A 
ATOM      8  C   UNL     1      -1.494   0.462   1.244  0.00  0.00    +0.000 A 
ATOM      9  C   UNL     1      -0.204   0.315   1.764  0.00  0.00    +0.000 A 
ENDBRANCH   1   7
BRANCH   1  10
ATOM     10  C   UNL     1      -4.050   1.208  -0.084  0.00  0.00    +0.000 C 
ATOM     11  C   UNL     1      -5.388   1.113  -0.016  0.00  0.00    +0.000 C 
BRANCH  11  12
ATOM     12  C   UNL     1      -6.253  -0.005  -0.415  0.00  0.00    +0.000 A 
ATOM     13  C   UNL     1      -5.979  -1.330  -0.054  0.00  0.00    +0.000 A 
ATOM     14  C   UNL     1      -6.859  -2.358  -0.401  0.00  0.00    +0.000 A 
ATOM     15  C   UNL     1      -8.032  -2.070  -1.095  0.00  0.00    +0.000 A 
ATOM     16  C   UNL     1      -8.327  -0.754  -1.442  0.00  0.00    +0.000 A 
ATOM     17  C   UNL     1      -7.444   0.274  -1.099  0.00  0.00    +0.000 A 
ENDBRANCH  11  12
ENDBRANCH   1  10
TORSDOF 3
