MODEL 1
REMARK VINA RESULT:      -3.9      0.000      0.000
REMARK  Name = *****
REMARK  3 active torsions:
REMARK  status: ('A' for Active; 'I' for Inactive)
REMARK    1  A    between atoms: C_4  and  S_7
REMARK    2  A    between atoms: S_7  and  C_8
REMARK    3  A    between atoms: C_8  and  N_10
REMARK                            x       y       z     vdW  Elec       q    Type
REMARK                         _______ _______ _______ _____ _____    ______ ____
ROOT
ATOM      1  C   UNL     1     100.256 127.294  83.705  0.00  0.00    +0.000 C 
ATOM      2  S   UNL     1      99.105 126.897  82.539  0.00  0.00    +0.000 S 
ENDROOT
BRANCH   1   3
ATOM      3  N   UNL     1     100.215 128.421  84.542  0.00  0.00    +0.000 N 
ATOM      4  C   UNL     1      99.071 129.349  84.556  0.00  0.00    +0.000 C 
ATOM      5  C   UNL     1      99.448 130.655  83.860  0.00  0.00    +0.000 C 
ATOM      6  C   UNL     1     100.694 131.276  84.496  0.00  0.00    +0.000 C 
ATOM      7  C   UNL     1     101.838 130.264  84.592  0.00  0.00    +0.000 C 
ATOM      8  C   UNL     1     101.374 128.972  85.263  0.00  0.00    +0.000 C 
ENDBRANCH   1   3
BRANCH   1   9
ATOM      9  S   UNL     1     101.656 126.230  83.885  0.00  0.00    +0.000 S 
BRANCH   9  13
ATOM     10  C   UNL     1     104.459 126.380  80.193  0.00  0.00    +0.000 C 
ATOM     11  C   UNL     1     103.815 125.038  80.524  0.00  0.00    +0.000 C 
ATOM     12  C   UNL     1     103.237 125.020  81.939  0.00  0.00    +0.000 C 
ATOM     13  C   UNL     1     102.252 126.178  82.155  0.00  0.00    +0.000 C 
ATOM     14  C   UNL     1     102.914 127.524  81.830  0.00  0.00    +0.000 C 
ATOM     15  C   UNL     1     103.490 127.536  80.414  0.00  0.00    +0.000 C 
ENDBRANCH   9  13
ENDBRANCH   1   9
TORSDOF 3
ENDMDL
