MODEL 1
REMARK VINA RESULT:      -4.4      0.000      0.000
REMARK  Name = *****
REMARK  7 active torsions:
REMARK  status: ('A' for Active; 'I' for Inactive)
REMARK    1  A    between atoms: C_1  and  O_2
REMARK    2  A    between atoms: O_2  and  C_3
REMARK    3  A    between atoms: C_5  and  C_11
REMARK    4  A    between atoms: C_6  and  O_9
REMARK    5  A    between atoms: O_9  and  C_10
REMARK    6  A    between atoms: C_11  and  C_12
REMARK    7  A    between atoms: C_12  and  C_13
REMARK                            x       y       z     vdW  Elec       q    Type
REMARK                         _______ _______ _______ _____ _____    ______ ____
ROOT
ATOM      1  C   UNL     1      89.963  67.333  85.680  0.00  0.00    +0.000 A 
ATOM      2  C   UNL     1      89.736  68.329  86.628  0.00  0.00    +0.000 A 
ATOM      3  C   UNL     1      89.533  69.666  86.232  0.00  0.00    +0.000 A 
ATOM      4  C   UNL     1      89.570  70.002  84.867  0.00  0.00    +0.000 A 
ATOM      5  C   UNL     1      89.799  68.999  83.922  0.00  0.00    +0.000 A 
ATOM      6  C   UNL     1      89.993  67.676  84.329  0.00  0.00    +0.000 A 
ENDROOT
BRANCH   1   8
ATOM      7  C   UNL     1      91.287  65.396  85.298  0.00  0.00    +0.000 C 
ATOM      8  O   UNL     1      90.172  66.006  85.936  0.00  0.00    +0.000 OA
ENDBRANCH   1   8
BRANCH   4   9
ATOM      9  O   UNL     1      89.381  71.326  84.570  0.00  0.00    +0.000 OA
ATOM     10  C   UNL     1      88.495  71.637  83.503  0.00  0.00    +0.000 C 
ENDBRANCH   4   9
BRANCH   3  11
ATOM     11  C   UNL     1      89.306  70.720  87.296  0.00  0.00    +0.000 C 
BRANCH  11  12
ATOM     12  C   UNL     1      88.197  70.312  88.269  0.00  0.00    +0.000 C 
BRANCH  12  13
ATOM     13  C   UNL     1      86.912  71.050  87.988  0.00  0.00    +0.000 A 
ATOM     14  C   UNL     1      86.088  71.475  89.038  0.00  0.00    +0.000 A 
ATOM     15  C   UNL     1      84.890  72.140  88.771  0.00  0.00    +0.000 A 
ATOM     16  C   UNL     1      84.503  72.382  87.454  0.00  0.00    +0.000 A 
ATOM     17  C   UNL     1      85.312  71.958  86.403  0.00  0.00    +0.000 A 
ATOM     18  C   UNL     1      86.510  71.292  86.666  0.00  0.00    +0.000 A 
ENDBRANCH  12  13
ENDBRANCH  11  12
ENDBRANCH   3  11
TORSDOF 5
ENDMDL
