MODEL 1
REMARK VINA RESULT:      -4.6      0.000      0.000
REMARK  Name = *****
REMARK  2 active torsions:
REMARK  status: ('A' for Active; 'I' for Inactive)
REMARK    1  A    between atoms: C_7  and  C_8
REMARK    2  A    between atoms: C_9  and  C_10
REMARK                            x       y       z     vdW  Elec       q    Type
REMARK                         _______ _______ _______ _____ _____    ______ ____
ROOT
ATOM      1  C   UNL     1      99.495 127.271  84.560  0.00  0.00    +0.000 C 
ATOM      2  C   UNL     1      99.679 126.731  83.130  0.00  0.00    +0.000 C 
ATOM      3  C   UNL     1      98.810 127.758  82.418  0.00  0.00    +0.000 C 
ATOM      4  C   UNL     1      98.980 128.933  83.057  0.00  0.00    +0.000 C 
ATOM      5  C   UNL     1      99.965 128.688  84.190  0.00  0.00    +0.000 C 
ATOM      6  C   UNL     1     101.301 128.293  83.594  0.00  0.00    +0.000 C 
ATOM      7  C   UNL     1     101.140 127.120  82.954  0.00  0.00    +0.000 C 
ATOM      8 CL   UNL     1     102.689 129.242  83.774  0.00  0.00    +0.000 Cl
ENDROOT
BRANCH   7   9
ATOM      9  C   UNL     1     102.119 126.378  82.259  0.00  0.00    +0.000 C 
ATOM     10  C   UNL     1     102.952 125.745  81.669  0.00  0.00    +0.000 C 
BRANCH  10  11
ATOM     11  C   UNL     1     103.948 124.998  80.966  0.00  0.00    +0.000 A 
ATOM     12  C   UNL     1     104.618 125.570  79.882  0.00  0.00    +0.000 A 
ATOM     13  C   UNL     1     105.591 124.839  79.197  0.00  0.00    +0.000 A 
ATOM     14  C   UNL     1     105.894 123.537  79.595  0.00  0.00    +0.000 A 
ATOM     15  C   UNL     1     105.226 122.965  80.678  0.00  0.00    +0.000 A 
ATOM     16  C   UNL     1     104.254 123.694  81.364  0.00  0.00    +0.000 A 
ENDBRANCH  10  11
ENDBRANCH   7   9
TORSDOF 2
ENDMDL
