MODEL 1
REMARK VINA RESULT:      -3.8      0.000      0.000
REMARK  Name = *****
REMARK  4 active torsions:
REMARK  status: ('A' for Active; 'I' for Inactive)
REMARK    1  A    between atoms: C_5  and  C_6
REMARK    2  A    between atoms: C_6  and  S_8
REMARK    3  A    between atoms: S_8  and  C_9
REMARK    4  A    between atoms: C_9  and  C_10
REMARK                            x       y       z     vdW  Elec       q    Type
REMARK                         _______ _______ _______ _____ _____    ______ ____
ROOT
ATOM      1  S   UNL     1      88.834  68.133  84.945  0.00  0.00    +0.000 S 
ENDROOT
BRANCH   1   2
ATOM      2  C   UNL     1      89.482  67.178  86.264  0.00  0.00    +0.000 C 
ATOM      3  O   UNL     1      90.686  67.038  86.440  0.00  0.00    +0.000 OA
BRANCH   2   8
ATOM      4  C   UNL     1      87.219  67.179  87.664  0.00  0.00    +0.000 C 
ATOM      5  C   UNL     1      86.641  66.061  88.487  0.00  0.00    +0.000 C 
ATOM      6  C   UNL     1      87.449  64.990  88.433  0.00  0.00    +0.000 C 
ATOM      7  C   UNL     1      88.587  65.296  87.601  0.00  0.00    +0.000 C 
ATOM      8  C   UNL     1      88.479  66.555  87.144  0.00  0.00    +0.000 C 
ENDBRANCH   2   8
ENDBRANCH   1   2
BRANCH   1   9
ATOM      9  C   UNL     1      89.427  69.768  85.464  0.00  0.00    +0.000 C 
BRANCH   9  10
ATOM     10  C   UNL     1      88.622  70.298  86.626  0.00  0.00    +0.000 A 
ATOM     11  C   UNL     1      89.167  70.319  87.919  0.00  0.00    +0.000 A 
ATOM     12  C   UNL     1      88.417  70.796  88.995  0.00  0.00    +0.000 A 
ATOM     13  C   UNL     1      87.116  71.252  88.792  0.00  0.00    +0.000 A 
ATOM     14  C   UNL     1      86.561  71.228  87.515  0.00  0.00    +0.000 A 
ATOM     15  C   UNL     1      87.309  70.753  86.436  0.00  0.00    +0.000 A 
ENDBRANCH   9  10
ENDBRANCH   1   9
TORSDOF 4
ENDMDL
