MODEL 1
REMARK VINA RESULT:      -4.7      0.000      0.000
REMARK  Name = *****
REMARK  3 active torsions:
REMARK  status: ('A' for Active; 'I' for Inactive)
REMARK    1  A    between atoms: C_1  and  C_2
REMARK    2  A    between atoms: C_2  and  C_3
REMARK    3  A    between atoms: C_2  and  N_10
REMARK                            x       y       z     vdW  Elec       q    Type
REMARK                         _______ _______ _______ _____ _____    ______ ____
ROOT
ATOM      1  C   UNL     1      89.725  70.819  86.189  0.00  0.00    +0.000 C 
ATOM      2  C   UNL     1      88.449  70.096  86.638  0.00  0.00    +0.000 C 
ENDROOT
BRANCH   2   3
ATOM      3  N   UNL     1      87.912  70.585  87.906  0.00  0.00    +0.000 N 
ATOM      4  C   UNL     1      86.708  71.211  88.120  0.00  0.00    +0.000 A 
ATOM      5  C   UNL     1      85.633  71.563  87.296  0.00  0.00    +0.000 A 
ATOM      6  C   UNL     1      84.552  72.208  87.911  0.00  0.00    +0.000 A 
ATOM      7  C   UNL     1      84.553  72.484  89.280  0.00  0.00    +0.000 A 
ATOM      8  C   UNL     1      85.640  72.118  90.085  0.00  0.00    +0.000 A 
ATOM      9  C   UNL     1      86.730  71.472  89.485  0.00  0.00    +0.000 A 
ATOM     10  N   UNL     1      87.901  71.013  90.025  0.00  0.00    +0.000 NA
ATOM     11  N   UNL     1      88.620  70.472  89.051  0.00  0.00    +0.000 NA
ENDBRANCH   2   3
BRANCH   2  12
ATOM     12  C   UNL     1      88.642  68.585  86.680  0.00  0.00    +0.000 A 
ATOM     13  C   UNL     1      87.618  67.727  87.117  0.00  0.00    +0.000 A 
ATOM     14  C   UNL     1      87.813  66.344  87.155  0.00  0.00    +0.000 A 
ATOM     15  C   UNL     1      89.035  65.807  86.761  0.00  0.00    +0.000 A 
ATOM     16  C   UNL     1      90.064  66.640  86.329  0.00  0.00    +0.000 A 
ATOM     17  C   UNL     1      89.870  68.023  86.290  0.00  0.00    +0.000 A 
ATOM     18 CL   UNL     1      89.277  64.105  86.810  0.00  0.00    +0.000 Cl
ENDBRANCH   2  12
TORSDOF 2
ENDMDL
