MODEL 1
REMARK VINA RESULT:      -4.5      0.000      0.000
REMARK  Name = *****
REMARK  5 active torsions:
REMARK  status: ('A' for Active; 'I' for Inactive)
REMARK    1  A    between atoms: C_1  and  C_2
REMARK    2  A    between atoms: C_5  and  C_8
REMARK    3  A    between atoms: C_8  and  O_10
REMARK    4  A    between atoms: O_10  and  C_11
REMARK    5  A    between atoms: C_16  and  N_17
REMARK                            x       y       z     vdW  Elec       q    Type
REMARK                         _______ _______ _______ _____ _____    ______ ____
ROOT
ATOM      1  C   UNL     1     103.320 127.220  82.063  0.00  0.00    +0.000 C 
ATOM      2  O   UNL     1     103.513 128.189  81.343  0.00  0.00    +0.000 OA
ENDROOT
BRANCH   1   7
ATOM      3  C   UNL     1     105.119 121.830  80.913  0.00  0.00    +0.000 C 
ATOM      4  C   UNL     1     104.621 123.219  81.189  0.00  0.00    +0.000 A 
ATOM      5  C   UNL     1     104.580 124.173  80.166  0.00  0.00    +0.000 A 
ATOM      6  C   UNL     1     104.152 125.477  80.428  0.00  0.00    +0.000 A 
ATOM      7  C   UNL     1     103.774 125.846  81.724  0.00  0.00    +0.000 A 
ATOM      8  C   UNL     1     103.816 124.893  82.751  0.00  0.00    +0.000 A 
ATOM      9  C   UNL     1     104.247 123.591  82.486  0.00  0.00    +0.000 A 
ENDBRANCH   1   7
BRANCH   1  10
ATOM     10  O   UNL     1     102.622 127.195  83.256  0.00  0.00    +0.000 OA
BRANCH  10  11
ATOM     11  C   UNL     1     101.285 127.564  83.106  0.00  0.00    +0.000 A 
ATOM     12  C   UNL     1     100.389 126.671  82.519  0.00  0.00    +0.000 A 
ATOM     13  C   UNL     1      99.042 127.024  82.410  0.00  0.00    +0.000 A 
ATOM     14  C   UNL     1      98.592 128.255  82.900  0.00  0.00    +0.000 A 
ATOM     15  C   UNL     1      99.488 129.139  83.506  0.00  0.00    +0.000 A 
ATOM     16  C   UNL     1     100.832 128.782  83.608  0.00  0.00    +0.000 A 
BRANCH  16  17
ATOM     17  N   UNL     1     101.715 129.651  84.232  0.00  0.00    +0.000 NA
ATOM     18  C   UNL     1     102.464 130.379  84.766  0.00  0.00    +0.000 C 
ENDBRANCH  16  17
ENDBRANCH  10  11
ENDBRANCH   1  10
TORSDOF 4
ENDMDL
