REMARK  Name = *****
REMARK  3 active torsions:
REMARK  status: ('A' for Active; 'I' for Inactive)
REMARK    1  A    between atoms: N_4  and  C_6
REMARK    2  A    between atoms: C_6  and  S_8
REMARK    3  A    between atoms: S_8  and  C_9
REMARK                            x       y       z     vdW  Elec       q    Type
REMARK                         _______ _______ _______ _____ _____    ______ ____
ROOT
ATOM      1  C   UNL     1      -2.318   1.293   0.954  0.00  0.00    +0.000 C 
ATOM      2  S   UNL     1      -2.127   2.733   1.808  0.00  0.00    +0.000 S 
ENDROOT
BRANCH   1   6
ATOM      3  C   UNL     1       0.841   0.067  -0.558  0.00  0.00    +0.000 C 
ATOM      4  C   UNL     1       0.075  -1.228  -0.345  0.00  0.00    +0.000 C 
ATOM      5  C   UNL     1      -1.365  -0.750  -0.230  0.00  0.00    +0.000 C 
ATOM      6  N   UNL     1      -1.272   0.576   0.382  0.00  0.00    +0.000 N 
ATOM      7  C   UNL     1       0.117   1.037   0.363  0.00  0.00    +0.000 C 
ENDBRANCH   1   6
BRANCH   1   8
ATOM      8  S   UNL     1      -3.934   0.592   0.806  0.00  0.00    +0.000 S 
BRANCH   8   9
ATOM      9  C   UNL     1      -4.319   0.869  -0.914  0.00  0.00    +0.000 A 
ATOM     10  C   UNL     1      -4.851  -0.191  -1.660  0.00  0.00    +0.000 A 
ATOM     11  C   UNL     1      -5.175  -0.018  -3.008  0.00  0.00    +0.000 A 
ATOM     12  C   UNL     1      -4.978   1.219  -3.618  0.00  0.00    +0.000 A 
ATOM     13  C   UNL     1      -4.466   2.284  -2.880  0.00  0.00    +0.000 A 
ATOM     14  C   UNL     1      -4.142   2.111  -1.532  0.00  0.00    +0.000 A 
ENDBRANCH   8   9
ENDBRANCH   1   8
TORSDOF 3
