MODEL 1
REMARK VINA RESULT:      -4.2      0.000      0.000
REMARK  Name = *****
REMARK  2 active torsions:
REMARK  status: ('A' for Active; 'I' for Inactive)
REMARK    1  A    between atoms: C_8  and  C_10
REMARK    2  A    between atoms: C_13  and  C_15
REMARK                            x       y       z     vdW  Elec       q    Type
REMARK                         _______ _______ _______ _____ _____    ______ ____
ROOT
ATOM      1  C   UNL     1      99.087 129.740  83.628  0.00  0.00    +0.000 C 
ATOM      2  C   UNL     1     100.098 130.085  84.732  0.00  0.00    +0.000 C 
ATOM      3  C   UNL     1     101.547 129.847  84.275  0.00  0.00    +0.000 C 
ATOM      4  C   UNL     1     101.661 128.542  83.550  0.00  0.00    +0.000 A 
ATOM      5  C   UNL     1     100.598 127.820  83.042  0.00  0.00    +0.000 A 
ATOM      6  C   UNL     1      99.177 128.261  83.218  0.00  0.00    +0.000 C 
ATOM      7  C   UNL     1     101.048 126.637  82.381  0.00  0.00    +0.000 A 
ATOM      8  C   UNL     1     102.425 126.504  82.406  0.00  0.00    +0.000 A 
ATOM      9  S   UNL     1     103.163 127.813  83.230  0.00  0.00    +0.000 S 
ENDROOT
BRANCH   8  10
ATOM     10  C   UNL     1     103.200 125.438  81.839  0.00  0.00    +0.000 A 
ATOM     11  N   UNL     1     103.491 125.338  80.552  0.00  0.00    +0.000 NA
ATOM     12  N   UNL     1     104.243 124.193  80.391  0.00  0.00    +0.000 NA
ATOM     13  C   UNL     1     104.368 123.664  81.589  0.00  0.00    +0.000 A 
ATOM     14  O   UNL     1     103.724 124.386  82.557  0.00  0.00    +0.000 OA
BRANCH  13  15
ATOM     15  C   UNL     1     105.050 122.424  82.001  0.00  0.00    +0.000 C 
ATOM     16 CL   UNL     1     104.395 121.016  81.133  0.00  0.00    +0.000 Cl
ENDBRANCH  13  15
ENDBRANCH   8  10
TORSDOF 2
ENDMDL
