MODEL 1
REMARK VINA RESULT:      -4.0      0.000      0.000
REMARK  Name = *****
REMARK  1 active torsions:
REMARK  status: ('A' for Active; 'I' for Inactive)
REMARK    1  A    between atoms: P_6  and  C_10
REMARK                            x       y       z     vdW  Elec       q    Type
REMARK                         _______ _______ _______ _____ _____    ______ ____
ROOT
ATOM      1  C   UNL     1     105.473 122.447  82.688  0.00  0.00    +0.000 C 
ATOM      2  C   UNL     1     104.651 122.212  81.415  0.00  0.00    +0.000 C 
ATOM      3  C   UNL     1     105.278 122.813  80.149  0.00  0.00    +0.000 C 
ATOM      4  C   UNL     1     105.443 124.337  80.125  0.00  0.00    +0.000 C 
ATOM      5  S   UNL     1     103.876 125.209  80.408  0.00  0.00    +0.000 S 
ATOM      6  P   UNL     1     104.184 126.726  81.844  0.00  0.00    +0.000 P 
ATOM      7  S   UNL     1     104.975 125.586  83.439  0.00  0.00    +0.000 S 
ATOM      8  C   UNL     1     103.872 124.185  83.794  0.00  0.00    +0.000 C 
ATOM      9  C   UNL     1     104.631 122.856  83.905  0.00  0.00    +0.000 C 
ENDROOT
BRANCH   6  10
ATOM     10  C   UNL     1     102.506 127.173  82.438  0.00  0.00    +0.000 A 
ATOM     11  C   UNL     1     101.366 126.426  82.100  0.00  0.00    +0.000 A 
ATOM     12  C   UNL     1     100.095 126.803  82.546  0.00  0.00    +0.000 A 
ATOM     13  C   UNL     1      99.936 127.945  83.326  0.00  0.00    +0.000 A 
ATOM     14  C   UNL     1     101.047 128.716  83.652  0.00  0.00    +0.000 A 
ATOM     15  C   UNL     1     102.318 128.336  83.205  0.00  0.00    +0.000 A 
ENDBRANCH   6  10
TORSDOF 1
ENDMDL
