MODEL 1
REMARK VINA RESULT:      -4.8      0.000      0.000
REMARK  Name = *****
REMARK  4 active torsions:
REMARK  status: ('A' for Active; 'I' for Inactive)
REMARK    1  A    between atoms: C_1  and  C_2
REMARK    2  A    between atoms: C_4  and  C_9
REMARK    3  A    between atoms: C_5  and  C_8
REMARK    4  A    between atoms: C_10  and  C_11
REMARK                            x       y       z     vdW  Elec       q    Type
REMARK                         _______ _______ _______ _____ _____    ______ ____
ROOT
ATOM      1  C   UNL     1      97.971 127.094  83.092  0.00  0.00    +0.000 C 
ATOM      2  C   UNL     1      99.423 127.463  83.042  0.00  0.00    +0.000 A 
ATOM      3  C   UNL     1     100.335 126.665  82.339  0.00  0.00    +0.000 A 
ATOM      4  C   UNL     1     101.699 126.986  82.313  0.00  0.00    +0.000 A 
ATOM      5  C   UNL     1     102.172 128.112  83.006  0.00  0.00    +0.000 A 
ATOM      6  C   UNL     1     101.257 128.898  83.723  0.00  0.00    +0.000 A 
ATOM      7  C   UNL     1      99.899 128.574  83.744  0.00  0.00    +0.000 A 
ATOM      8  C   UNL     1     103.629 128.484  83.006  0.00  0.00    +0.000 C 
ENDROOT
BRANCH   4   9
ATOM      9  C   UNL     1     102.584 126.137  81.570  0.00  0.00    +0.000 C 
ATOM     10  C   UNL     1     103.322 125.425  80.945  0.00  0.00    +0.000 C 
BRANCH  10  11
ATOM     11  C   UNL     1     104.232 124.558  80.174  0.00  0.00    +0.000 C 
ATOM     12  C   UNL     1     104.694 123.371  81.039  0.00  0.00    +0.000 C 
ATOM     13  C   UNL     1     105.890 122.659  80.411  0.00  0.00    +0.000 C 
ATOM     14  C   UNL     1     107.072 123.614  80.226  0.00  0.00    +0.000 C 
ATOM     15  C   UNL     1     106.665 124.956  79.693  0.00  0.00    +0.000 C 
ATOM     16  C   UNL     1     105.389 125.374  79.656  0.00  0.00    +0.000 C 
ENDBRANCH  10  11
ENDBRANCH   4   9
TORSDOF 2
ENDMDL
