MODEL 1
REMARK VINA RESULT:      -4.7      0.000      0.000
REMARK  Name = *****
REMARK  2 active torsions:
REMARK  status: ('A' for Active; 'I' for Inactive)
REMARK    1  A    between atoms: C_8  and  S_16
REMARK    2  A    between atoms: C_9  and  C_10
REMARK                            x       y       z     vdW  Elec       q    Type
REMARK                         _______ _______ _______ _____ _____    ______ ____
ROOT
ATOM      1  C   UNL     1     100.853 126.604  82.389  0.00  0.00    +0.000 C 
ATOM      2  C   UNL     1     100.435 127.862  83.090  0.00  0.00    +0.000 A 
ATOM      3  C   UNL     1      99.150 128.333  83.308  0.00  0.00    +0.000 A 
ATOM      4  C   UNL     1      98.999 129.534  84.001  0.00  0.00    +0.000 A 
ATOM      5  C   UNL     1     100.122 130.237  84.463  0.00  0.00    +0.000 A 
ATOM      6  C   UNL     1     101.414 129.750  84.239  0.00  0.00    +0.000 A 
ATOM      7  C   UNL     1     101.569 128.558  83.545  0.00  0.00    +0.000 A 
ATOM      8  C   UNL     1     102.760 127.796  83.162  0.00  0.00    +0.000 C 
ATOM      9  C   UNL     1     102.357 126.685  82.517  0.00  0.00    +0.000 C 
ENDROOT
BRANCH   9  10
ATOM     10  C   UNL     1     103.185 125.627  81.942  0.00  0.00    +0.000 A 
ATOM     11  C   UNL     1     103.540 125.664  80.589  0.00  0.00    +0.000 A 
ATOM     12  C   UNL     1     104.339 124.657  80.043  0.00  0.00    +0.000 A 
ATOM     13  C   UNL     1     104.781 123.606  80.845  0.00  0.00    +0.000 A 
ATOM     14  C   UNL     1     104.425 123.560  82.192  0.00  0.00    +0.000 A 
ATOM     15  C   UNL     1     103.632 124.569  82.740  0.00  0.00    +0.000 A 
ENDBRANCH   9  10
BRANCH   8  16
ATOM     16  S   UNL     1     104.357 128.297  83.492  0.00  0.00    +0.000 S 
ATOM     17  H   UNL     1     104.937 128.746  82.347  0.00  0.00    +0.000 HD
ENDBRANCH   8  16
TORSDOF 2
ENDMDL
