REMARK  Name = *****
REMARK  2 active torsions:
REMARK  status: ('A' for Active; 'I' for Inactive)
REMARK    1  A    between atoms: C_1  and  C_2
REMARK    2  A    between atoms: C_10  and  C_12
REMARK                            x       y       z     vdW  Elec       q    Type
REMARK                         _______ _______ _______ _____ _____    ______ ____
ROOT
ATOM      1  C   UNL     1       1.072   5.003   0.219  0.00  0.00    +0.000 C 
ATOM      2  C   UNL     1      -0.408   5.425   0.404  0.00  0.00    +0.000 C 
ATOM      3  C   UNL     1      -1.160   4.307   1.178  0.00  0.00    +0.000 C 
ATOM      4  C   UNL     1      -1.547   3.130   0.327  0.00  0.00    +0.000 C 
ATOM      5  C   UNL     1      -1.558   3.162  -1.014  0.00  0.00    +0.000 C 
ATOM      6  C   UNL     1      -1.202   4.383  -1.812  0.00  0.00    +0.000 C 
ATOM      7  C   UNL     1      -1.120   5.662  -0.958  0.00  0.00    +0.000 C 
ATOM      8  C   UNL     1      -0.492   6.815  -1.758  0.00  0.00    +0.000 C 
ATOM      9  C   UNL     1      -0.129   8.001  -0.911  0.00  0.00    +0.000 C 
ATOM     10  C   UNL     1      -0.120   7.980   0.434  0.00  0.00    +0.000 C 
ATOM     11  C   UNL     1      -0.459   6.740   1.232  0.00  0.00    +0.000 C 
ENDROOT
BRANCH  10  12
ATOM     12  C   UNL     1       0.255   9.192   1.184  0.00  0.00    +0.000 A 
ATOM     13  C   UNL     1      -0.495  10.368   1.053  0.00  0.00    +0.000 A 
ATOM     14  C   UNL     1      -0.144  11.517   1.766  0.00  0.00    +0.000 A 
ATOM     15  C   UNL     1       0.961  11.502   2.614  0.00  0.00    +0.000 A 
ATOM     16  C   UNL     1       1.717  10.338   2.750  0.00  0.00    +0.000 A 
ATOM     17  C   UNL     1       1.365   9.188   2.039  0.00  0.00    +0.000 A 
ENDBRANCH  10  12
TORSDOF 1
