MODEL 1
REMARK VINA RESULT:      -5.0      0.000      0.000
REMARK  Name = *****
REMARK  3 active torsions:
REMARK  status: ('A' for Active; 'I' for Inactive)
REMARK    1  A    between atoms: C_2  and  C_3
REMARK    2  A    between atoms: C_2  and  C_9
REMARK    3  A    between atoms: C_9  and  C_10
REMARK                            x       y       z     vdW  Elec       q    Type
REMARK                         _______ _______ _______ _____ _____    ______ ____
ROOT
ATOM      1  C   UNL     1      88.421  70.656  89.257  0.00  0.00    +0.000 C 
ATOM      2  C   UNL     1      87.944  70.728  88.000  0.00  0.00    +0.000 C 
ENDROOT
BRANCH   2   3
ATOM      3  C   UNL     1      86.615  71.331  87.778  0.00  0.00    +0.000 A 
ATOM      4  C   UNL     1      86.153  71.568  86.476  0.00  0.00    +0.000 A 
ATOM      5  C   UNL     1      84.894  72.135  86.261  0.00  0.00    +0.000 A 
ATOM      6  C   UNL     1      84.088  72.472  87.346  0.00  0.00    +0.000 A 
ATOM      7  C   UNL     1      84.536  72.241  88.645  0.00  0.00    +0.000 A 
ATOM      8  C   UNL     1      85.795  71.674  88.860  0.00  0.00    +0.000 A 
ENDBRANCH   2   3
BRANCH   2   9
ATOM      9  C   UNL     1      88.690  70.183  86.794  0.00  0.00    +0.000 C 
ATOM     10  F   UNL     1      89.900  70.813  86.666  0.00  0.00    +0.000 F 
BRANCH   9  11
ATOM     11  C   UNL     1      88.822  68.671  86.816  0.00  0.00    +0.000 A 
ATOM     12  C   UNL     1      89.976  68.050  86.314  0.00  0.00    +0.000 A 
ATOM     13  C   UNL     1      90.106  66.661  86.348  0.00  0.00    +0.000 A 
ATOM     14  C   UNL     1      89.086  65.877  86.886  0.00  0.00    +0.000 A 
ATOM     15  C   UNL     1      87.937  66.481  87.393  0.00  0.00    +0.000 A 
ATOM     16  C   UNL     1      87.806  67.870  87.361  0.00  0.00    +0.000 A 
ENDBRANCH   9  11
ENDBRANCH   2   9
TORSDOF 3
ENDMDL
