MODEL 1
REMARK VINA RESULT:      -4.6      0.000      0.000
REMARK  Name = *****
REMARK  4 active torsions:
REMARK  status: ('A' for Active; 'I' for Inactive)
REMARK    1  A    between atoms: C_4  and  C_7
REMARK    2  A    between atoms: C_7  and  C_8
REMARK    3  A    between atoms: C_8  and  O_10
REMARK    4  A    between atoms: O_10  and  C_11
REMARK                            x       y       z     vdW  Elec       q    Type
REMARK                         _______ _______ _______ _____ _____    ______ ____
ROOT
ATOM      1  C   UNL     1     103.325 126.557  80.813  0.00  0.00    +0.000 C 
ATOM      2  O   UNL     1     103.657 127.596  80.254  0.00  0.00    +0.000 OA
ENDROOT
BRANCH   1   3
ATOM      3  C   UNL     1     103.004 126.455  82.285  0.00  0.00    +0.000 C 
BRANCH   3   7
ATOM      4  C   UNL     1      99.263 128.361  83.260  0.00  0.00    +0.000 A 
ATOM      5  C   UNL     1      99.267 127.138  82.592  0.00  0.00    +0.000 A 
ATOM      6  C   UNL     1     100.477 126.516  82.280  0.00  0.00    +0.000 A 
ATOM      7  C   UNL     1     101.693 127.110  82.639  0.00  0.00    +0.000 A 
ATOM      8  C   UNL     1     101.678 128.343  83.307  0.00  0.00    +0.000 A 
ATOM      9  C   UNL     1     100.468 128.964  83.617  0.00  0.00    +0.000 A 
ENDBRANCH   3   7
ENDBRANCH   1   3
BRANCH   1  10
ATOM     10  O   UNL     1     103.180 125.304  80.225  0.00  0.00    +0.000 OA
BRANCH  10  11
ATOM     11  C   UNL     1     104.361 124.561  80.208  0.00  0.00    +0.000 A 
ATOM     12  C   UNL     1     104.468 123.404  80.982  0.00  0.00    +0.000 A 
ATOM     13  C   UNL     1     105.639 122.650  80.912  0.00  0.00    +0.000 A 
ATOM     14  C   UNL     1     106.667 123.054  80.063  0.00  0.00    +0.000 A 
ATOM     15  C   UNL     1     106.547 124.198  79.278  0.00  0.00    +0.000 A 
ATOM     16  C   UNL     1     105.381 124.958  79.344  0.00  0.00    +0.000 A 
ATOM     17  F   UNL     1     107.788 122.325  79.996  0.00  0.00    +0.000 F 
ENDBRANCH  10  11
ENDBRANCH   1  10
TORSDOF 4
ENDMDL
