MODEL 1
REMARK VINA RESULT:      -4.8      0.000      0.000
REMARK  Name = *****
REMARK  7 active torsions:
REMARK  status: ('A' for Active; 'I' for Inactive)
REMARK    1  A    between atoms: C_1  and  C_2
REMARK    2  A    between atoms: C_5  and  C_8
REMARK    3  A    between atoms: C_8  and  C_9
REMARK    4  A    between atoms: C_9  and  C_10
REMARK    5  A    between atoms: C_10  and  C_12
REMARK    6  A    between atoms: C_13  and  C_19
REMARK    7  A    between atoms: C_17  and  C_18
REMARK                            x       y       z     vdW  Elec       q    Type
REMARK                         _______ _______ _______ _____ _____    ______ ____
ROOT
ATOM      1  C   UNL     1      89.124  70.252  86.333  0.00  0.00    +0.000 C 
ATOM      2  O   UNL     1      90.022  71.010  85.978  0.00  0.00    +0.000 OA
ENDROOT
BRANCH   1   3
ATOM      3  C   UNL     1      87.810  70.813  86.733  0.00  0.00    +0.000 A 
ATOM      4  C   UNL     1      86.896  71.248  85.752  0.00  0.00    +0.000 A 
ATOM      5  C   UNL     1      85.648  71.734  86.167  0.00  0.00    +0.000 A 
ATOM      6  C   UNL     1      85.331  71.819  87.522  0.00  0.00    +0.000 A 
ATOM      7  C   UNL     1      86.253  71.414  88.486  0.00  0.00    +0.000 A 
ATOM      8  C   UNL     1      87.501  70.901  88.108  0.00  0.00    +0.000 A 
ATOM      9  C   UNL     1      88.479  70.483  89.171  0.00  0.00    +0.000 C 
ATOM     10  C   UNL     1      87.200  71.195  84.281  0.00  0.00    +0.000 C 
ENDBRANCH   1   3
BRANCH   1  11
ATOM     11  C   UNL     1      89.282  68.749  86.397  0.00  0.00    +0.000 C 
BRANCH  11  12
ATOM     12  C   UNL     1      87.935  68.060  86.195  0.00  0.00    +0.000 C 
BRANCH  12  17
ATOM     13  C   UNL     1      87.069  64.051  90.330  0.00  0.00    +0.000 C 
ATOM     14  C   UNL     1      87.268  65.069  89.247  0.00  0.00    +0.000 A 
ATOM     15  C   UNL     1      86.479  66.223  89.199  0.00  0.00    +0.000 A 
ATOM     16  C   UNL     1      86.688  67.183  88.207  0.00  0.00    +0.000 A 
ATOM     17  C   UNL     1      87.693  67.009  87.249  0.00  0.00    +0.000 A 
ATOM     18  C   UNL     1      88.496  65.863  87.308  0.00  0.00    +0.000 A 
ATOM     19  C   UNL     1      88.286  64.903  88.301  0.00  0.00    +0.000 A 
ENDBRANCH  12  17
ENDBRANCH  11  12
ENDBRANCH   1  11
TORSDOF 4
ENDMDL
