REMARK  Name = *****
REMARK  3 active torsions:
REMARK  status: ('A' for Active; 'I' for Inactive)
REMARK    1  A    between atoms: N_5  and  N_8
REMARK    2  A    between atoms: N_8  and  C_9
REMARK    3  A    between atoms: C_9  and  C_10
REMARK                            x       y       z     vdW  Elec       q    Type
REMARK                         _______ _______ _______ _____ _____    ______ ____
ROOT
ATOM      1  N   UNL     1       1.749  -1.373  -1.260  0.00  0.00    +0.000 NA
ENDROOT
BRANCH   1   6
ATOM      2  C   UNL     1      -0.661   1.075  -0.846  0.00  0.00    +0.000 C 
ATOM      3  C   UNL     1      -1.566   0.008  -0.237  0.00  0.00    +0.000 C 
ATOM      4  C   UNL     1      -0.919  -1.358  -0.031  0.00  0.00    +0.000 C 
ATOM      5  C   UNL     1       0.413  -1.355   0.728  0.00  0.00    +0.000 C 
ATOM      6  N   UNL     1       1.550  -0.820  -0.033  0.00  0.00    +0.000 NA
ATOM      7  C   UNL     1       1.702   0.638   0.082  0.00  0.00    +0.000 C 
ATOM      8  C   UNL     1       0.442   1.507   0.115  0.00  0.00    +0.000 C 
ENDBRANCH   1   6
BRANCH   1   9
ATOM      9  C   UNL     1       2.999  -1.575  -1.536  0.00  0.00    +0.000 C 
BRANCH   9  10
ATOM     10  C   UNL     1       3.425  -2.161  -2.821  0.00  0.00    +0.000 A 
ATOM     11  C   UNL     1       2.485  -2.523  -3.792  0.00  0.00    +0.000 A 
ATOM     12  C   UNL     1       2.911  -3.075  -5.002  0.00  0.00    +0.000 A 
ATOM     13  C   UNL     1       4.273  -3.263  -5.235  0.00  0.00    +0.000 A 
ATOM     14  C   UNL     1       5.214  -2.903  -4.269  0.00  0.00    +0.000 A 
ATOM     15  C   UNL     1       4.791  -2.350  -3.057  0.00  0.00    +0.000 A 
ATOM     16 CL   UNL     1       4.799  -3.943  -6.725  0.00  0.00    +0.000 Cl
ENDBRANCH   9  10
ENDBRANCH   1   9
TORSDOF 3
