REMARK  Name = *****
REMARK  5 active torsions:
REMARK  status: ('A' for Active; 'I' for Inactive)
REMARK    1  A    between atoms: C_1  and  C_2
REMARK    2  A    between atoms: C_4  and  C_8
REMARK    3  A    between atoms: C_5  and  C_7
REMARK    4  A    between atoms: C_8  and  C_9
REMARK    5  A    between atoms: C_10  and  C_11
REMARK                            x       y       z     vdW  Elec       q    Type
REMARK                         _______ _______ _______ _____ _____    ______ ____
ROOT
ATOM      1  C   UNL     1       1.530  -2.686  -0.061  0.00  0.00    +0.000 C 
ENDROOT
BRANCH   1   5
ATOM      2  C   UNL     1      -1.133   1.368  -1.782  0.00  0.00    +0.000 C 
ATOM      3  C   UNL     1      -0.509   0.387  -0.851  0.00  0.00    +0.000 A 
ATOM      4  C   UNL     1       0.247  -0.723  -1.155  0.00  0.00    +0.000 A 
ATOM      5  C   UNL     1       0.687  -1.443   0.009  0.00  0.00    +0.000 A 
ATOM      6  C   UNL     1       0.231  -0.830   1.167  0.00  0.00    +0.000 A 
ATOM      7  S   UNL     1      -0.692   0.575   0.834  0.00  0.00    +0.000 S 
ATOM      8  C   UNL     1       0.437  -1.224   2.593  0.00  0.00    +0.000 C 
ENDBRANCH   1   5
BRANCH   1   9
ATOM      9  C   UNL     1       0.689  -3.931  -0.036  0.00  0.00    +0.000 C 
ATOM     10  C   UNL     1       0.840  -4.922   0.855  0.00  0.00    +0.000 C 
BRANCH  10  11
ATOM     11  C   UNL     1       0.000  -6.118   0.814  0.00  0.00    +0.000 A 
ATOM     12  C   UNL     1       0.485  -7.290   0.224  0.00  0.00    +0.000 A 
ATOM     13  C   UNL     1      -0.315  -8.433   0.171  0.00  0.00    +0.000 A 
ATOM     14  C   UNL     1      -1.601  -8.409   0.710  0.00  0.00    +0.000 A 
ATOM     15  C   UNL     1      -2.090  -7.243   1.298  0.00  0.00    +0.000 A 
ATOM     16  C   UNL     1      -1.292  -6.098   1.348  0.00  0.00    +0.000 A 
ENDBRANCH  10  11
ENDBRANCH   1   9
TORSDOF 3
