REMARK  Name = *****
REMARK  4 active torsions:
REMARK  status: ('A' for Active; 'I' for Inactive)
REMARK    1  A    between atoms: C_1  and  P_2
REMARK    2  A    between atoms: P_2  and  C_3
REMARK    3  A    between atoms: P_2  and  C_10
REMARK    4  A    between atoms: C_3  and  C_4
REMARK                            x       y       z     vdW  Elec       q    Type
REMARK                         _______ _______ _______ _____ _____    ______ ____
ROOT
ATOM      1  C   UNL     1       0.888  -0.400   0.120  0.00  0.00    +0.000 C 
ATOM      2  P   UNL     1       2.678  -0.003   0.145  0.00  0.00    +0.000 P 
ENDROOT
BRANCH   2   3
ATOM      3  C   UNL     1       3.357  -1.283  -0.955  0.00  0.00    +0.000 A 
ATOM      4  C   UNL     1       4.189  -0.883  -2.011  0.00  0.00    +0.000 A 
ATOM      5  C   UNL     1       4.741  -1.823  -2.885  0.00  0.00    +0.000 A 
ATOM      6  C   UNL     1       4.467  -3.178  -2.715  0.00  0.00    +0.000 A 
ATOM      7  C   UNL     1       3.643  -3.591  -1.672  0.00  0.00    +0.000 A 
ATOM      8  C   UNL     1       3.091  -2.650  -0.798  0.00  0.00    +0.000 A 
ENDBRANCH   2   3
BRANCH   2   9
ATOM      9  C   UNL     1       3.167  -0.638   1.793  0.00  0.00    +0.000 C 
BRANCH   9  10
ATOM     10  C   UNL     1       2.723   0.423   2.768  0.00  0.00    +0.000 A 
ATOM     11  C   UNL     1       1.548   0.255   3.519  0.00  0.00    +0.000 A 
ATOM     12  C   UNL     1       1.146   1.224   4.441  0.00  0.00    +0.000 A 
ATOM     13  C   UNL     1       1.916   2.370   4.630  0.00  0.00    +0.000 A 
ATOM     14  C   UNL     1       3.089   2.547   3.901  0.00  0.00    +0.000 A 
ATOM     15  C   UNL     1       3.494   1.579   2.980  0.00  0.00    +0.000 A 
ENDBRANCH   9  10
ENDBRANCH   2   9
TORSDOF 3
