MODEL 1
REMARK VINA RESULT:      -4.6      0.000      0.000
REMARK  Name = *****
REMARK  6 active torsions:
REMARK  status: ('A' for Active; 'I' for Inactive)
REMARK    1  A    between atoms: C_1  and  C_2
REMARK    2  A    between atoms: C_4  and  C_9
REMARK    3  A    between atoms: C_5  and  C_8
REMARK    4  A    between atoms: C_9  and  C_17
REMARK    5  A    between atoms: C_10  and  C_11
REMARK    6  A    between atoms: C_17  and  O_18
REMARK                            x       y       z     vdW  Elec       q    Type
REMARK                         _______ _______ _______ _____ _____    ______ ____
ROOT
ATOM      1  C   UNL     1      87.906  70.080  86.514  0.00  0.00    +0.000 C 
ATOM      2  C   UNL     1      87.721  68.752  86.395  0.00  0.00    +0.000 C 
ENDROOT
BRANCH   1   6
ATOM      3  C   UNL     1      83.733  72.764  85.949  0.00  0.00    +0.000 C 
ATOM      4  C   UNL     1      84.784  72.175  86.842  0.00  0.00    +0.000 A 
ATOM      5  C   UNL     1      85.841  71.424  86.314  0.00  0.00    +0.000 A 
ATOM      6  C   UNL     1      86.822  70.861  87.149  0.00  0.00    +0.000 A 
ATOM      7  C   UNL     1      86.733  71.039  88.545  0.00  0.00    +0.000 A 
ATOM      8  C   UNL     1      85.679  71.808  89.065  0.00  0.00    +0.000 A 
ATOM      9  C   UNL     1      84.714  72.365  88.224  0.00  0.00    +0.000 A 
ATOM     10  C   UNL     1      87.757  70.478  89.494  0.00  0.00    +0.000 C 
ENDBRANCH   1   6
BRANCH   2  11
ATOM     11  C   UNL     1      88.664  67.834  85.755  0.00  0.00    +0.000 A 
ATOM     12  C   UNL     1      88.528  67.505  84.403  0.00  0.00    +0.000 A 
ATOM     13  C   UNL     1      89.432  66.628  83.801  0.00  0.00    +0.000 A 
ATOM     14  C   UNL     1      90.470  66.074  84.547  0.00  0.00    +0.000 A 
ATOM     15  C   UNL     1      90.608  66.397  85.897  0.00  0.00    +0.000 A 
ATOM     16  C   UNL     1      89.708  67.277  86.500  0.00  0.00    +0.000 A 
ENDBRANCH   2  11
BRANCH   1  17
ATOM     17  C   UNL     1      89.073  70.867  85.974  0.00  0.00    +0.000 C 
BRANCH  17  18
ATOM     18  O   UNL     1      90.114  70.943  86.941  0.00  0.00    +0.000 OA
ATOM     19  H   UNL     1      89.971  71.714  87.512  0.00  0.00    +0.000 HD
ENDBRANCH  17  18
ENDBRANCH   1  17
TORSDOF 4
ENDMDL
