MODEL 1
REMARK VINA RESULT:      -4.4      0.000      0.000
REMARK  Name = *****
REMARK  5 active torsions:
REMARK  status: ('A' for Active; 'I' for Inactive)
REMARK    1  A    between atoms: C_1  and  C_2
REMARK    2  A    between atoms: C_2  and  C_3
REMARK    3  A    between atoms: C_2  and  O_9
REMARK    4  A    between atoms: O_9  and  C_10
REMARK    5  A    between atoms: C_10  and  C_11
REMARK                            x       y       z     vdW  Elec       q    Type
REMARK                         _______ _______ _______ _____ _____    ______ ____
ROOT
ATOM      1  C   UNL     1     105.751 125.517  80.328  0.00  0.00    +0.000 C 
ATOM      2  C   UNL     1     104.598 124.558  80.040  0.00  0.00    +0.000 C 
ENDROOT
BRANCH   2   3
ATOM      3  C   UNL     1     104.577 123.431  81.056  0.00  0.00    +0.000 A 
ATOM      4  C   UNL     1     104.419 123.687  82.427  0.00  0.00    +0.000 A 
ATOM      5  C   UNL     1     104.425 122.642  83.352  0.00  0.00    +0.000 A 
ATOM      6  C   UNL     1     104.593 121.328  82.920  0.00  0.00    +0.000 A 
ATOM      7  C   UNL     1     104.757 121.058  81.563  0.00  0.00    +0.000 A 
ATOM      8  C   UNL     1     104.751 122.103  80.636  0.00  0.00    +0.000 A 
ENDBRANCH   2   3
BRANCH   2   9
ATOM      9  O   UNL     1     103.355 125.264  80.105  0.00  0.00    +0.000 OA
BRANCH   9  10
ATOM     10  C   UNL     1     103.514 126.651  80.390  0.00  0.00    +0.000 C 
BRANCH  10  11
ATOM     11  C   UNL     1     102.749 126.998  81.643  0.00  0.00    +0.000 A 
ATOM     12  C   UNL     1     103.074 128.146  82.382  0.00  0.00    +0.000 A 
ATOM     13  C   UNL     1     102.343 128.485  83.522  0.00  0.00    +0.000 A 
ATOM     14  C   UNL     1     101.276 127.688  83.931  0.00  0.00    +0.000 A 
ATOM     15  C   UNL     1     100.937 126.551  83.201  0.00  0.00    +0.000 A 
ATOM     16  C   UNL     1     101.667 126.210  82.061  0.00  0.00    +0.000 A 
ENDBRANCH  10  11
ENDBRANCH   9  10
ENDBRANCH   2   9
TORSDOF 4
ENDMDL
