MODEL 1
REMARK VINA RESULT:      -4.7      0.000      0.000
REMARK  Name = *****
REMARK  3 active torsions:
REMARK  status: ('A' for Active; 'I' for Inactive)
REMARK    1  A    between atoms: C_5  and  C_7
REMARK    2  A    between atoms: C_7  and  O_9
REMARK    3  A    between atoms: O_9  and  C_10
REMARK                            x       y       z     vdW  Elec       q    Type
REMARK                         _______ _______ _______ _____ _____    ______ ____
ROOT
ATOM      1  C   UNL     1     101.784 126.004  82.843  0.00  0.00    +0.000 C 
ATOM      2  O   UNL     1     102.235 125.338  83.764  0.00  0.00    +0.000 OA
ENDROOT
BRANCH   1   7
ATOM      3  C   UNL     1     100.565 129.386  83.957  0.00  0.00    +0.000 A 
ATOM      4  C   UNL     1      99.242 129.381  83.514  0.00  0.00    +0.000 A 
ATOM      5  C   UNL     1      98.739 128.270  82.837  0.00  0.00    +0.000 A 
ATOM      6  C   UNL     1      99.557 127.163  82.611  0.00  0.00    +0.000 A 
ATOM      7  C   UNL     1     100.877 127.151  83.062  0.00  0.00    +0.000 A 
ATOM      8  C   UNL     1     101.383 128.276  83.729  0.00  0.00    +0.000 A 
ATOM      9  F   UNL     1      99.043 126.132  81.924  0.00  0.00    +0.000 F 
ENDBRANCH   1   7
BRANCH   1  10
ATOM     10  O   UNL     1     101.970 125.796  81.493  0.00  0.00    +0.000 OA
BRANCH  10  11
ATOM     11  C   UNL     1     103.257 126.138  81.077  0.00  0.00    +0.000 A 
ATOM     12  C   UNL     1     104.196 125.142  80.805  0.00  0.00    +0.000 A 
ATOM     13  C   UNL     1     105.465 125.481  80.355  0.00  0.00    +0.000 A 
ATOM     14  C   UNL     1     105.773 126.824  80.170  0.00  0.00    +0.000 A 
ATOM     15  C   UNL     1     104.836 127.826  80.420  0.00  0.00    +0.000 A 
ATOM     16  C   UNL     1     103.561 127.484  80.872  0.00  0.00    +0.000 A 
ATOM     17  F   UNL     1     106.994 127.163  79.733  0.00  0.00    +0.000 F 
ATOM     18  F   UNL     1     103.877 123.851  80.967  0.00  0.00    +0.000 F 
ENDBRANCH  10  11
ENDBRANCH   1  10
TORSDOF 3
ENDMDL
