MODEL 1
REMARK VINA RESULT:      -4.6      0.000      0.000
REMARK  Name = *****
REMARK  4 active torsions:
REMARK  status: ('A' for Active; 'I' for Inactive)
REMARK    1  A    between atoms: C_1  and  C_2
REMARK    2  A    between atoms: C_3  and  O_9
REMARK    3  A    between atoms: O_9  and  C_10
REMARK    4  A    between atoms: C_10  and  C_12
REMARK                            x       y       z     vdW  Elec       q    Type
REMARK                         _______ _______ _______ _____ _____    ______ ____
ROOT
ATOM      1  O   UNL     1      88.612  69.175  85.291  0.00  0.00    +0.000 OA
ENDROOT
BRANCH   1   4
ATOM      2  C   UNL     1      86.965  71.509  85.198  0.00  0.00    +0.000 C 
ATOM      3  C   UNL     1      88.351  71.480  84.625  0.00  0.00    +0.000 A 
ATOM      4  C   UNL     1      89.149  70.332  84.714  0.00  0.00    +0.000 A 
ATOM      5  C   UNL     1      90.434  70.286  84.165  0.00  0.00    +0.000 A 
ATOM      6  C   UNL     1      90.953  71.423  83.547  0.00  0.00    +0.000 A 
ATOM      7  C   UNL     1      90.180  72.581  83.471  0.00  0.00    +0.000 A 
ATOM      8  C   UNL     1      88.888  72.615  84.003  0.00  0.00    +0.000 A 
ATOM      9 CL   UNL     1      90.822  73.984  82.706  0.00  0.00    +0.000 Cl
ENDBRANCH   1   4
BRANCH   1  10
ATOM     10  C   UNL     1      89.246  68.777  86.454  0.00  0.00    +0.000 C 
ATOM     11  O   UNL     1      90.220  68.045  86.550  0.00  0.00    +0.000 OA
BRANCH  10  12
ATOM     12  C   UNL     1      88.557  69.375  87.631  0.00  0.00    +0.000 A 
ATOM     13  C   UNL     1      87.384  68.758  88.090  0.00  0.00    +0.000 A 
ATOM     14  C   UNL     1      86.700  69.275  89.191  0.00  0.00    +0.000 A 
ATOM     15  C   UNL     1      87.182  70.409  89.842  0.00  0.00    +0.000 A 
ATOM     16  C   UNL     1      88.349  71.027  89.396  0.00  0.00    +0.000 A 
ATOM     17  C   UNL     1      89.037  70.514  88.293  0.00  0.00    +0.000 A 
ENDBRANCH  10  12
ENDBRANCH   1  10
TORSDOF 3
ENDMDL
