MODEL 1
REMARK VINA RESULT:      -4.2      0.000      0.000
REMARK  Name = *****
REMARK  4 active torsions:
REMARK  status: ('A' for Active; 'I' for Inactive)
REMARK    1  A    between atoms: C_1  and  P_2
REMARK    2  A    between atoms: P_2  and  C_3
REMARK    3  A    between atoms: P_2  and  C_10
REMARK    4  A    between atoms: C_3  and  C_4
REMARK                            x       y       z     vdW  Elec       q    Type
REMARK                         _______ _______ _______ _____ _____    ______ ____
ROOT
ATOM      1  C   UNL     1      89.980  70.881  85.276  0.00  0.00    +0.000 C 
ATOM      2  P   UNL     1      88.670  70.363  86.441  0.00  0.00    +0.000 P 
ENDROOT
BRANCH   2   3
ATOM      3  C   UNL     1      88.639  68.517  86.260  0.00  0.00    +0.000 C 
ATOM      4  C   UNL     1      87.654  67.902  87.274  0.00  0.00    +0.000 C 
ATOM      5  C   UNL     1      87.530  66.390  87.090  0.00  0.00    +0.000 C 
ATOM      6  C   UNL     1      88.887  65.700  87.153  0.00  0.00    +0.000 C 
ATOM      7  C   UNL     1      89.873  66.310  86.162  0.00  0.00    +0.000 C 
ATOM      8  C   UNL     1      90.003  67.821  86.356  0.00  0.00    +0.000 C 
ENDBRANCH   2   3
BRANCH   2   9
ATOM      9  C   UNL     1      87.187  70.940  85.546  0.00  0.00    +0.000 C 
BRANCH   9  10
ATOM     10  C   UNL     1      86.229  71.415  86.609  0.00  0.00    +0.000 A 
ATOM     11  C   UNL     1      86.540  71.299  87.974  0.00  0.00    +0.000 A 
ATOM     12  C   UNL     1      85.658  71.764  88.951  0.00  0.00    +0.000 A 
ATOM     13  C   UNL     1      84.457  72.361  88.578  0.00  0.00    +0.000 A 
ATOM     14  C   UNL     1      84.137  72.498  87.229  0.00  0.00    +0.000 A 
ATOM     15  C   UNL     1      85.018  72.031  86.250  0.00  0.00    +0.000 A 
ENDBRANCH   9  10
ENDBRANCH   2   9
TORSDOF 3
ENDMDL
