REMARK  Name = *****
REMARK  3 active torsions:
REMARK  status: ('A' for Active; 'I' for Inactive)
REMARK    1  A    between atoms: C_4  and  S_7
REMARK    2  A    between atoms: S_7  and  C_9
REMARK    3  A    between atoms: C_10  and  C_11
REMARK                            x       y       z     vdW  Elec       q    Type
REMARK                         _______ _______ _______ _____ _____    ______ ____
ROOT
ATOM      1  C   UNL     1      -3.955  -0.896  -0.206  0.00  0.00    +0.000 C 
ATOM      2  C   UNL     1      -5.286  -0.933  -0.379  0.00  0.00    +0.000 C 
ENDROOT
BRANCH   2   3
ATOM      3  C   UNL     1      -6.180   0.219  -0.569  0.00  0.00    +0.000 A 
ATOM      4  C   UNL     1      -6.127   0.925  -1.781  0.00  0.00    +0.000 A 
ATOM      5  C   UNL     1      -6.963   2.021  -2.003  0.00  0.00    +0.000 A 
ATOM      6  C   UNL     1      -7.867   2.420  -1.021  0.00  0.00    +0.000 A 
ATOM      7  C   UNL     1      -7.938   1.722   0.184  0.00  0.00    +0.000 A 
ATOM      8  C   UNL     1      -7.101   0.625   0.410  0.00  0.00    +0.000 A 
ATOM      9 CL   UNL     1      -7.238  -0.195   1.928  0.00  0.00    +0.000 Cl
ENDBRANCH   2   3
BRANCH   1  10
ATOM     10  S   UNL     1      -3.055   0.648  -0.165  0.00  0.00    +0.000 S 
ATOM     11  O   UNL     1      -1.902   0.434  -1.102  0.00  0.00    +0.000 OA
BRANCH  10  15
ATOM     12  C   UNL     1      -1.293   0.333   4.086  0.00  0.00    +0.000 A 
ATOM     13  C   UNL     1      -0.452   0.226   2.979  0.00  0.00    +0.000 A 
ATOM     14  C   UNL     1      -0.979   0.319   1.689  0.00  0.00    +0.000 A 
ATOM     15  C   UNL     1      -2.352   0.515   1.501  0.00  0.00    +0.000 A 
ATOM     16  C   UNL     1      -3.189   0.631   2.617  0.00  0.00    +0.000 A 
ATOM     17  C   UNL     1      -2.660   0.536   3.906  0.00  0.00    +0.000 A 
ENDBRANCH  10  15
ENDBRANCH   1  10
TORSDOF 3
