REMARK  Name = *****
REMARK  4 active torsions:
REMARK  status: ('A' for Active; 'I' for Inactive)
REMARK    1  A    between atoms: C_1  and  C_2
REMARK    2  A    between atoms: C_2  and  C_3
REMARK    3  A    between atoms: C_2  and  C_9
REMARK    4  A    between atoms: C_3  and  C_4
REMARK                            x       y       z     vdW  Elec       q    Type
REMARK                         _______ _______ _______ _____ _____    ______ ____
ROOT
ATOM      1  C   UNL     1       0.619   0.144  -0.373  0.00  0.00    +0.000 C 
ATOM      2  C   UNL     1       2.135   0.023  -0.167  0.00  0.00    +0.000 C 
ENDROOT
BRANCH   2   3
ATOM      3  C   UNL     1       2.804   1.362  -0.417  0.00  0.00    +0.000 A 
ATOM      4  C   UNL     1       2.774   2.150  -1.553  0.00  0.00    +0.000 A 
ATOM      5  C   UNL     1       3.537   3.344  -1.408  0.00  0.00    +0.000 A 
ATOM      6  C   UNL     1       4.129   3.430  -0.169  0.00  0.00    +0.000 A 
ATOM      7  S   UNL     1       3.764   2.079   0.812  0.00  0.00    +0.000 S 
ENDBRANCH   2   3
BRANCH   2   8
ATOM      8  C   UNL     1       2.767  -1.057  -1.070  0.00  0.00    +0.000 C 
BRANCH   8   9
ATOM      9  C   UNL     1       2.307  -2.452  -0.744  0.00  0.00    +0.000 A 
ATOM     10  C   UNL     1       1.366  -3.217  -1.406  0.00  0.00    +0.000 A 
ATOM     11  C   UNL     1       1.195  -4.500  -0.810  0.00  0.00    +0.000 A 
ATOM     12  C   UNL     1       2.016  -4.675   0.280  0.00  0.00    +0.000 A 
ATOM     13  S   UNL     1       2.989  -3.302   0.579  0.00  0.00    +0.000 S 
ENDBRANCH   8   9
ENDBRANCH   2   8
TORSDOF 3
