MODEL 1
REMARK VINA RESULT:      -4.5      0.000      0.000
REMARK  Name = *****
REMARK  4 active torsions:
REMARK  status: ('A' for Active; 'I' for Inactive)
REMARK    1  A    between atoms: C_1  and  C_2
REMARK    2  A    between atoms: C_3  and  O_9
REMARK    3  A    between atoms: O_9  and  C_10
REMARK    4  A    between atoms: C_10  and  C_12
REMARK                            x       y       z     vdW  Elec       q    Type
REMARK                         _______ _______ _______ _____ _____    ______ ____
ROOT
ATOM      1  O   UNL     1      87.982  68.982  85.975  0.00  0.00    +0.000 OA
ENDROOT
BRANCH   1   4
ATOM      2  C   UNL     1      90.106  67.252  85.170  0.00  0.00    +0.000 C 
ATOM      3  C   UNL     1      89.143  66.886  86.259  0.00  0.00    +0.000 A 
ATOM      4  C   UNL     1      88.127  67.766  86.653  0.00  0.00    +0.000 A 
ATOM      5  C   UNL     1      87.204  67.424  87.646  0.00  0.00    +0.000 A 
ATOM      6  C   UNL     1      87.318  66.194  88.291  0.00  0.00    +0.000 A 
ATOM      7  C   UNL     1      88.339  65.316  87.927  0.00  0.00    +0.000 A 
ATOM      8  C   UNL     1      89.244  65.652  86.917  0.00  0.00    +0.000 A 
ATOM      9 CL   UNL     1      88.479  63.796  88.724  0.00  0.00    +0.000 Cl
ENDBRANCH   1   4
BRANCH   1  10
ATOM     10  C   UNL     1      88.325  70.085  86.731  0.00  0.00    +0.000 C 
ATOM     11  O   UNL     1      89.441  70.490  87.016  0.00  0.00    +0.000 OA
BRANCH  10  12
ATOM     12  C   UNL     1      87.096  70.837  87.044  0.00  0.00    +0.000 A 
ATOM     13  C   UNL     1      86.385  71.371  85.957  0.00  0.00    +0.000 A 
ATOM     14  C   UNL     1      85.210  72.092  86.174  0.00  0.00    +0.000 A 
ATOM     15  C   UNL     1      84.746  72.288  87.474  0.00  0.00    +0.000 A 
ATOM     16  C   UNL     1      85.464  71.778  88.558  0.00  0.00    +0.000 A 
ATOM     17  C   UNL     1      86.644  71.057  88.349  0.00  0.00    +0.000 A 
ATOM     18 CL   UNL     1      87.513  70.534  89.747  0.00  0.00    +0.000 Cl
ENDBRANCH  10  12
ENDBRANCH   1  10
TORSDOF 3
ENDMDL
