REMARK  Name = *****
REMARK  4 active torsions:
REMARK  status: ('A' for Active; 'I' for Inactive)
REMARK    1  A    between atoms: C_1  and  C_2
REMARK    2  A    between atoms: C_5  and  C_8
REMARK    3  A    between atoms: C_9  and  C_10
REMARK    4  A    between atoms: C_15  and  N_16
REMARK                            x       y       z     vdW  Elec       q    Type
REMARK                         _______ _______ _______ _____ _____    ______ ____
ROOT
ATOM      1  C   UNL     1      -3.268   0.108   0.049  0.00  0.00    +0.000 C 
ATOM      2  C   UNL     1      -4.022   1.198  -0.167  0.00  0.00    +0.000 C 
ENDROOT
BRANCH   1   7
ATOM      3  C   UNL     1       2.518  -0.014  -0.093  0.00  0.00    +0.000 C 
ATOM      4  C   UNL     1       1.020   0.038  -0.052  0.00  0.00    +0.000 A 
ATOM      5  C   UNL     1       0.352   1.120   0.531  0.00  0.00    +0.000 A 
ATOM      6  C   UNL     1      -1.045   1.157   0.564  0.00  0.00    +0.000 A 
ATOM      7  C   UNL     1      -1.800   0.118   0.005  0.00  0.00    +0.000 A 
ATOM      8  C   UNL     1      -1.129  -0.971  -0.562  0.00  0.00    +0.000 A 
ATOM      9  C   UNL     1       0.268  -1.009  -0.596  0.00  0.00    +0.000 A 
ENDBRANCH   1   7
BRANCH   2  10
ATOM     10  C   UNL     1      -5.492   1.191  -0.111  0.00  0.00    +0.000 A 
ATOM     11  C   UNL     1      -6.228   0.189  -0.762  0.00  0.00    +0.000 A 
ATOM     12  C   UNL     1      -7.627   0.194  -0.736  0.00  0.00    +0.000 A 
ATOM     13  C   UNL     1      -8.315   1.204  -0.065  0.00  0.00    +0.000 A 
ATOM     14  C   UNL     1      -7.606   2.217   0.576  0.00  0.00    +0.000 A 
ATOM     15  C   UNL     1      -6.208   2.205   0.544  0.00  0.00    +0.000 A 
BRANCH  15  16
ATOM     16  N   UNL     1      -5.540   3.233   1.202  0.00  0.00    +0.000 NA
ATOM     17  C   UNL     1      -4.995   4.110   1.759  0.00  0.00    +0.000 C 
ENDBRANCH  15  16
ENDBRANCH   2  10
TORSDOF 3
