MODEL 1
REMARK VINA RESULT:      -4.5      0.000      0.000
REMARK  Name = *****
REMARK  2 active torsions:
REMARK  status: ('A' for Active; 'I' for Inactive)
REMARK    1  A    between atoms: C_5  and  S_7
REMARK    2  A    between atoms: S_7  and  C_8
REMARK                            x       y       z     vdW  Elec       q    Type
REMARK                         _______ _______ _______ _____ _____    ______ ____
ROOT
ATOM      1  C   UNL     1      89.354  65.693  86.394  0.00  0.00    +0.000 C 
ATOM      2  C   UNL     1      88.430  66.157  87.519  0.00  0.00    +0.000 C 
ATOM      3  C   UNL     1      87.774  67.502  87.202  0.00  0.00    +0.000 C 
ATOM      4  C   UNL     1      88.820  68.540  86.854  0.00  0.00    +0.000 C 
ATOM      5  C   UNL     1      88.988  69.733  87.454  0.00  0.00    +0.000 C 
ATOM      6  F   UNL     1      89.984  70.531  87.002  0.00  0.00    +0.000 F 
ATOM      7  C   UNL     1      89.732  68.105  85.726  0.00  0.00    +0.000 C 
ATOM      8  C   UNL     1      90.389  66.762  86.042  0.00  0.00    +0.000 C 
ENDROOT
BRANCH   5   9
ATOM      9  S   UNL     1      87.997  70.321  88.749  0.00  0.00    +0.000 S 
BRANCH   9  10
ATOM     10  C   UNL     1      86.707  71.112  87.808  0.00  0.00    +0.000 A 
ATOM     11  C   UNL     1      86.791  71.168  86.413  0.00  0.00    +0.000 A 
ATOM     12  C   UNL     1      85.773  71.772  85.671  0.00  0.00    +0.000 A 
ATOM     13  C   UNL     1      84.664  72.315  86.319  0.00  0.00    +0.000 A 
ATOM     14  C   UNL     1      84.570  72.253  87.709  0.00  0.00    +0.000 A 
ATOM     15  C   UNL     1      85.588  71.650  88.452  0.00  0.00    +0.000 A 
ENDBRANCH   9  10
ENDBRANCH   5   9
TORSDOF 2
ENDMDL
