MODEL 1
REMARK VINA RESULT:      -4.7      0.000      0.000
REMARK  Name = *****
REMARK  5 active torsions:
REMARK  status: ('A' for Active; 'I' for Inactive)
REMARK    1  A    between atoms: C_1  and  C_2
REMARK    2  A    between atoms: C_3  and  N_9
REMARK    3  A    between atoms: C_4  and  C_8
REMARK    4  A    between atoms: N_9  and  C_10
REMARK    5  A    between atoms: C_11  and  C_13
REMARK                            x       y       z     vdW  Elec       q    Type
REMARK                         _______ _______ _______ _____ _____    ______ ____
ROOT
ATOM      1  N   UNL     1      88.413  69.209  86.678  0.00  0.00    +0.000 N 
ATOM      2  C   UNL     1      89.514  69.883  87.361  0.00  0.00    +0.000 C 
ATOM      3  C   UNL     1      88.074  69.422  85.341  0.00  0.00    +0.000 C 
ATOM      4  O   UNL     1      87.180  68.856  84.716  0.00  0.00    +0.000 OA
ENDROOT
BRANCH   3   5
ATOM      5  C   UNL     1      88.854  70.391  84.576  0.00  0.00    +0.000 A 
ATOM      6  C   UNL     1      88.449  71.720  84.510  0.00  0.00    +0.000 A 
ATOM      7  C   UNL     1      89.234  72.648  83.836  0.00  0.00    +0.000 A 
ATOM      8  C   UNL     1      90.426  72.251  83.241  0.00  0.00    +0.000 A 
ATOM      9  C   UNL     1      90.834  70.926  83.317  0.00  0.00    +0.000 A 
ATOM     10  C   UNL     1      90.051  69.992  83.988  0.00  0.00    +0.000 A 
ATOM     11  F   UNL     1      90.446  68.713  84.040  0.00  0.00    +0.000 F 
ATOM     12  F   UNL     1      91.978  70.542  82.733  0.00  0.00    +0.000 F 
ATOM     13  F   UNL     1      91.177  73.146  82.584  0.00  0.00    +0.000 F 
ATOM     14  F   UNL     1      88.837  73.925  83.752  0.00  0.00    +0.000 F 
ATOM     15  F   UNL     1      87.298  72.112  85.072  0.00  0.00    +0.000 F 
ENDBRANCH   3   5
BRANCH   1  18
ATOM     16  C   UNL     1      89.177  66.369  86.657  0.00  0.00    +0.000 C 
ATOM     17  C   UNL     1      88.038  66.912  87.477  0.00  0.00    +0.000 A 
ATOM     18  C   UNL     1      87.660  68.274  87.450  0.00  0.00    +0.000 A 
ATOM     19  C   UNL     1      86.558  68.717  88.217  0.00  0.00    +0.000 A 
ATOM     20  C   UNL     1      85.839  67.784  88.982  0.00  0.00    +0.000 A 
ATOM     21  C   UNL     1      86.221  66.447  89.023  0.00  0.00    +0.000 A 
ATOM     22  C   UNL     1      87.317  66.015  88.281  0.00  0.00    +0.000 A 
ATOM     23  C   UNL     1      86.107  70.153  88.248  0.00  0.00    +0.000 C 
ENDBRANCH   1  18
TORSDOF 2
ENDMDL
