MODEL 1
REMARK VINA RESULT:      -4.4      0.000      0.000
REMARK  Name = *****
REMARK  4 active torsions:
REMARK  status: ('A' for Active; 'I' for Inactive)
REMARK    1  A    between atoms: C_1  and  O_2
REMARK    2  A    between atoms: O_2  and  C_3
REMARK    3  A    between atoms: C_8  and  C_9
REMARK    4  A    between atoms: C_11  and  C_12
REMARK                            x       y       z     vdW  Elec       q    Type
REMARK                         _______ _______ _______ _____ _____    ______ ____
ROOT
ATOM      1  C   UNL     1      89.753  67.104  86.598  0.00  0.00    +0.000 C 
ATOM      2  C   UNL     1      89.760  65.781  85.872  0.00  0.00    +0.000 C 
ATOM      3  C   UNL     1      88.510  66.224  86.586  0.00  0.00    +0.000 C 
ENDROOT
BRANCH   1   9
ATOM      4  C   UNL     1      89.646  69.668  86.433  0.00  0.00    +0.000 A 
ATOM      5  C   UNL     1      89.698  70.843  85.672  0.00  0.00    +0.000 A 
ATOM      6  C   UNL     1      89.877  70.782  84.290  0.00  0.00    +0.000 A 
ATOM      7  C   UNL     1      90.012  69.551  83.662  0.00  0.00    +0.000 A 
ATOM      8  C   UNL     1      89.968  68.379  84.418  0.00  0.00    +0.000 A 
ATOM      9  C   UNL     1      89.777  68.404  85.812  0.00  0.00    +0.000 A 
BRANCH   4  11
ATOM     10  C   UNL     1      88.248  70.057  88.324  0.00  0.00    +0.000 C 
ATOM     11  O   UNL     1      89.503  69.646  87.800  0.00  0.00    +0.000 OA
ENDBRANCH   4  11
ENDBRANCH   1   9
BRANCH   3  12
ATOM     12  C   UNL     1      88.075  65.516  87.849  0.00  0.00    +0.000 A 
ATOM     13  C   UNL     1      87.030  66.014  88.644  0.00  0.00    +0.000 A 
ATOM     14  C   UNL     1      86.618  65.356  89.806  0.00  0.00    +0.000 A 
ATOM     15  C   UNL     1      87.243  64.175  90.194  0.00  0.00    +0.000 A 
ATOM     16  C   UNL     1      88.274  63.651  89.418  0.00  0.00    +0.000 A 
ATOM     17  C   UNL     1      88.681  64.316  88.258  0.00  0.00    +0.000 A 
ENDBRANCH   3  12
TORSDOF 3
ENDMDL
