MODEL 1
REMARK VINA RESULT:      -5.3      0.000      0.000
REMARK  Name = *****
REMARK  3 active torsions:
REMARK  status: ('A' for Active; 'I' for Inactive)
REMARK    1  A    between atoms: C_1  and  C_2
REMARK    2  A    between atoms: C_2  and  C_10
REMARK    3  A    between atoms: C_3  and  C_4
REMARK                            x       y       z     vdW  Elec       q    Type
REMARK                         _______ _______ _______ _____ _____    ______ ____
ROOT
ATOM      1  C   UNL     1     103.306 127.289  80.640  0.00  0.00    +0.000 C 
ATOM      2  C   UNL     1     103.036 126.033  81.424  0.00  0.00    +0.000 C 
ATOM      3  C   UNL     1     102.035 125.873  82.313  0.00  0.00    +0.000 C 
ENDROOT
BRANCH   2   4
ATOM      4  C   UNL     1     103.957 124.901  81.175  0.00  0.00    +0.000 A 
ATOM      5  C   UNL     1     104.138 123.905  82.147  0.00  0.00    +0.000 A 
ATOM      6  C   UNL     1     104.999 122.830  81.911  0.00  0.00    +0.000 A 
ATOM      7  C   UNL     1     105.675 122.747  80.700  0.00  0.00    +0.000 A 
ATOM      8  C   UNL     1     105.509 123.718  79.721  0.00  0.00    +0.000 A 
ATOM      9  C   UNL     1     104.649 124.793  79.957  0.00  0.00    +0.000 A 
ATOM     10  F   UNL     1     106.500 121.716  80.474  0.00  0.00    +0.000 F 
ENDBRANCH   2   4
BRANCH   3  11
ATOM     11  C   UNL     1     101.035 126.892  82.642  0.00  0.00    +0.000 A 
ATOM     12  C   UNL     1      99.686 126.697  82.328  0.00  0.00    +0.000 A 
ATOM     13  C   UNL     1      98.740 127.672  82.652  0.00  0.00    +0.000 A 
ATOM     14  C   UNL     1      99.140 128.844  83.293  0.00  0.00    +0.000 A 
ATOM     15  C   UNL     1     100.483 129.042  83.611  0.00  0.00    +0.000 A 
ATOM     16  C   UNL     1     101.429 128.068  83.289  0.00  0.00    +0.000 A 
ENDBRANCH   3  11
TORSDOF 2
ENDMDL
