MODEL 1
REMARK VINA RESULT:      -4.8      0.000      0.000
REMARK  Name = *****
REMARK  3 active torsions:
REMARK  status: ('A' for Active; 'I' for Inactive)
REMARK    1  A    between atoms: C_1  and  C_2
REMARK    2  A    between atoms: C_5  and  C_8
REMARK    3  A    between atoms: C_10  and  C_11
REMARK                            x       y       z     vdW  Elec       q    Type
REMARK                         _______ _______ _______ _____ _____    ______ ____
ROOT
ATOM      1  C   UNL     1      87.877  65.195  87.287  0.00  0.00    +0.000 C 
ATOM      2  C   UNL     1      88.844  64.054  87.111  0.00  0.00    +0.000 C 
ATOM      3  C   UNL     1      88.336  64.383  88.491  0.00  0.00    +0.000 C 
ENDROOT
BRANCH   1   8
ATOM      4  C   UNL     1      89.671  70.723  86.619  0.00  0.00    +0.000 C 
ATOM      5  C   UNL     1      89.198  69.307  86.768  0.00  0.00    +0.000 A 
ATOM      6  C   UNL     1      89.938  68.250  86.232  0.00  0.00    +0.000 A 
ATOM      7  C   UNL     1      89.510  66.929  86.401  0.00  0.00    +0.000 A 
ATOM      8  C   UNL     1      88.344  66.622  87.121  0.00  0.00    +0.000 A 
ATOM      9  C   UNL     1      87.616  67.696  87.656  0.00  0.00    +0.000 A 
ATOM     10  C   UNL     1      88.038  69.020  87.491  0.00  0.00    +0.000 A 
ENDBRANCH   1   8
BRANCH   3  11
ATOM     11  C   UNL     1      87.366  63.456  89.185  0.00  0.00    +0.000 A 
ATOM     12  C   UNL     1      86.845  63.762  90.452  0.00  0.00    +0.000 A 
ATOM     13  C   UNL     1      85.936  62.915  91.091  0.00  0.00    +0.000 A 
ATOM     14  C   UNL     1      85.522  61.741  90.467  0.00  0.00    +0.000 A 
ATOM     15  C   UNL     1      86.015  61.419  89.207  0.00  0.00    +0.000 A 
ATOM     16  C   UNL     1      86.924  62.271  88.574  0.00  0.00    +0.000 A 
ENDBRANCH   3  11
TORSDOF 2
ENDMDL
