MODEL 1
REMARK VINA RESULT:      -4.3      0.000      0.000
REMARK  Name = *****
REMARK  4 active torsions:
REMARK  status: ('A' for Active; 'I' for Inactive)
REMARK    1  A    between atoms: C_1  and  N_2
REMARK    2  A    between atoms: N_2  and  C_3
REMARK    3  A    between atoms: N_2  and  C_9
REMARK    4  A    between atoms: C_9  and  C_11
REMARK                            x       y       z     vdW  Elec       q    Type
REMARK                         _______ _______ _______ _____ _____    ______ ____
ROOT
ATOM      1  C   UNL     1     101.855 126.006  84.487  0.00  0.00    +0.000 C 
ATOM      2  N   UNL     1     101.534 126.577  83.176  0.00  0.00    +0.000 N 
ENDROOT
BRANCH   2   3
ATOM      3  C   UNL     1     102.476 126.401  82.127  0.00  0.00    +0.000 A 
ATOM      4  C   UNL     1     102.902 127.459  81.302  0.00  0.00    +0.000 A 
ATOM      5  C   UNL     1     103.843 127.269  80.282  0.00  0.00    +0.000 A 
ATOM      6  C   UNL     1     104.389 126.010  80.059  0.00  0.00    +0.000 A 
ATOM      7  C   UNL     1     103.992 124.944  80.855  0.00  0.00    +0.000 A 
ATOM      8  C   UNL     1     103.052 125.141  81.873  0.00  0.00    +0.000 A 
ENDBRANCH   2   3
BRANCH   2   9
ATOM      9  C   UNL     1     100.347 127.303  83.024  0.00  0.00    +0.000 C 
ATOM     10  C   UNL     1      99.276 126.749  82.427  0.00  0.00    +0.000 C 
BRANCH   9  11
ATOM     11  C   UNL     1     100.315 128.683  83.501  0.00  0.00    +0.000 C 
ATOM     12  C   UNL     1      99.274 129.526  83.409  0.00  0.00    +0.000 C 
ATOM     13  C   UNL     1      99.583 130.881  83.947  0.00  0.00    +0.000 C 
ATOM     14  C   UNL     1     100.879 130.647  84.716  0.00  0.00    +0.000 C 
ATOM     15  C   UNL     1     101.491 129.374  84.132  0.00  0.00    +0.000 C 
ENDBRANCH   9  11
ENDBRANCH   2   9
TORSDOF 3
ENDMDL
