MODEL 1
REMARK VINA RESULT:      -4.8      0.000      0.000
REMARK  Name = *****
REMARK  5 active torsions:
REMARK  status: ('A' for Active; 'I' for Inactive)
REMARK    1  A    between atoms: C_4  and  C_7
REMARK    2  A    between atoms: C_8  and  C_9
REMARK    3  A    between atoms: C_14  and  C_15
REMARK    4  A    between atoms: C_15  and  O_17
REMARK    5  A    between atoms: O_17  and  O_18
REMARK                            x       y       z     vdW  Elec       q    Type
REMARK                         _______ _______ _______ _____ _____    ______ ____
ROOT
ATOM      1  C   UNL     1      85.989  58.202  92.323  0.00  0.00    +0.000 A 
ATOM      2  C   UNL     1      85.915  58.421  93.706  0.00  0.00    +0.000 A 
ATOM      3  C   UNL     1      86.295  57.422  94.605  0.00  0.00    +0.000 A 
ATOM      4  C   UNL     1      86.761  56.198  94.133  0.00  0.00    +0.000 A 
ATOM      5  C   UNL     1      86.839  55.967  92.759  0.00  0.00    +0.000 A 
ATOM      6  C   UNL     1      86.440  56.959  91.848  0.00  0.00    +0.000 A 
ENDROOT
BRANCH   1   8
ATOM      7  C   UNL     1      85.347  60.179  90.705  0.00  0.00    +0.000 C 
ATOM      8  C   UNL     1      85.636  59.283  91.452  0.00  0.00    +0.000 C 
BRANCH   7  12
ATOM      9  C   UNL     1      84.358  63.253  87.987  0.00  0.00    +0.000 A 
ATOM     10  C   UNL     1      83.402  62.783  88.886  0.00  0.00    +0.000 A 
ATOM     11  C   UNL     1      83.730  61.766  89.786  0.00  0.00    +0.000 A 
ATOM     12  C   UNL     1      85.015  61.220  89.784  0.00  0.00    +0.000 A 
ATOM     13  C   UNL     1      85.973  61.693  88.883  0.00  0.00    +0.000 A 
ATOM     14  C   UNL     1      85.642  62.709  87.985  0.00  0.00    +0.000 A 
ENDBRANCH   7  12
ENDBRANCH   1   8
BRANCH   6  15
ATOM     15  C   UNL     1      86.560  56.626  90.411  0.00  0.00    +0.000 C 
ATOM     16  O   UNL     1      87.429  57.069  89.671  0.00  0.00    +0.000 OA
BRANCH  15  17
ATOM     17  O   UNL     1      85.685  55.642  90.056  0.00  0.00    +0.000 OA
BRANCH  17  18
ATOM     18  O   UNL     1      84.319  56.171  90.231  0.00  0.00    +0.000 OA
ATOM     19  H   UNL     1      83.747  55.476  90.593  0.00  0.00    +0.000 HD
ENDBRANCH  17  18
ENDBRANCH  15  17
ENDBRANCH   6  15
TORSDOF 5
ENDMDL
