MODEL 1
REMARK VINA RESULT:      -5.2      0.000      0.000
REMARK  Name = *****
REMARK  2 active torsions:
REMARK  status: ('A' for Active; 'I' for Inactive)
REMARK    1  A    between atoms: C_3  and  C_11
REMARK    2  A    between atoms: C_11  and  C_12
REMARK                            x       y       z     vdW  Elec       q    Type
REMARK                         _______ _______ _______ _____ _____    ______ ____
ROOT
ATOM      1  C   UNL     1      99.164 127.026  82.355  0.00  0.00    +0.000 C 
ATOM      2  C   UNL     1     100.218 126.429  83.279  0.00  0.00    +0.000 C 
ATOM      3  C   UNL     1     101.430 127.367  83.436  0.00  0.00    +0.000 C 
ATOM      4  C   UNL     1     100.984 128.783  83.781  0.00  0.00    +0.000 A 
ATOM      5  C   UNL     1     101.906 129.666  84.370  0.00  0.00    +0.000 A 
ATOM      6  C   UNL     1     101.547 130.979  84.673  0.00  0.00    +0.000 A 
ATOM      7  C   UNL     1     100.260 131.426  84.395  0.00  0.00    +0.000 A 
ATOM      8  C   UNL     1      99.332 130.560  83.817  0.00  0.00    +0.000 A 
ATOM      9  C   UNL     1      99.683 129.239  83.498  0.00  0.00    +0.000 A 
ATOM     10  C   UNL     1      98.620 128.328  82.935  0.00  0.00    +0.000 C 
ENDROOT
BRANCH   3  11
ATOM     11  C   UNL     1     102.342 127.403  82.184  0.00  0.00    +0.000 C 
BRANCH  11  12
ATOM     12  C   UNL     1     103.085 126.112  81.921  0.00  0.00    +0.000 A 
ATOM     13  C   UNL     1     103.419 125.256  82.979  0.00  0.00    +0.000 A 
ATOM     14  C   UNL     1     104.108 124.068  82.738  0.00  0.00    +0.000 A 
ATOM     15  C   UNL     1     104.467 123.720  81.437  0.00  0.00    +0.000 A 
ATOM     16  C   UNL     1     104.134 124.560  80.376  0.00  0.00    +0.000 A 
ATOM     17  C   UNL     1     103.446 125.750  80.615  0.00  0.00    +0.000 A 
ENDBRANCH  11  12
ENDBRANCH   3  11
TORSDOF 2
ENDMDL
