MODEL 1
REMARK VINA RESULT:      -4.5      0.000      0.000
REMARK  Name = *****
REMARK  3 active torsions:
REMARK  status: ('A' for Active; 'I' for Inactive)
REMARK    1  A    between atoms: C_4  and  S_7
REMARK    2  A    between atoms: S_7  and  C_8
REMARK    3  A    between atoms: C_9  and  C_10
REMARK                            x       y       z     vdW  Elec       q    Type
REMARK                         _______ _______ _______ _____ _____    ______ ____
ROOT
ATOM      1  C   UNL     1      88.893  65.887  86.199  0.00  0.00    +0.000 C 
ATOM      2  C   UNL     1      89.901  66.745  86.415  0.00  0.00    +0.000 C 
ENDROOT
BRANCH   2   3
ATOM      3  C   UNL     1      89.860  68.164  86.039  0.00  0.00    +0.000 A 
ATOM      4  C   UNL     1      89.988  68.508  84.684  0.00  0.00    +0.000 A 
ATOM      5  C   UNL     1      89.929  69.844  84.283  0.00  0.00    +0.000 A 
ATOM      6  C   UNL     1      89.729  70.836  85.236  0.00  0.00    +0.000 A 
ATOM      7  C   UNL     1      89.583  70.518  86.579  0.00  0.00    +0.000 A 
ATOM      8  C   UNL     1      89.643  69.181  86.982  0.00  0.00    +0.000 A 
ATOM      9  F   UNL     1      89.670  72.118  84.851  0.00  0.00    +0.000 F 
ENDBRANCH   2   3
BRANCH   1  10
ATOM     10  S   UNL     1      89.013  64.227  86.687  0.00  0.00    +0.000 S 
BRANCH  10  14
ATOM     11  C   UNL     1      87.184  64.567  90.872  0.00  0.00    +0.000 A 
ATOM     12  C   UNL     1      86.575  65.206  89.792  0.00  0.00    +0.000 A 
ATOM     13  C   UNL     1      87.132  65.104  88.516  0.00  0.00    +0.000 A 
ATOM     14  C   UNL     1      88.296  64.357  88.314  0.00  0.00    +0.000 A 
ATOM     15  C   UNL     1      88.906  63.724  89.401  0.00  0.00    +0.000 A 
ATOM     16  C   UNL     1      88.349  63.828  90.677  0.00  0.00    +0.000 A 
ENDBRANCH  10  14
ENDBRANCH   1  10
TORSDOF 3
ENDMDL
