MODEL 1
REMARK VINA RESULT:      -4.8      0.000      0.000
REMARK  Name = *****
REMARK  4 active torsions:
REMARK  status: ('A' for Active; 'I' for Inactive)
REMARK    1  A    between atoms: C_4  and  C_7
REMARK    2  A    between atoms: C_7  and  O_8
REMARK    3  A    between atoms: O_8  and  C_9
REMARK    4  A    between atoms: C_12  and  C_15
REMARK                            x       y       z     vdW  Elec       q    Type
REMARK                         _______ _______ _______ _____ _____    ______ ____
ROOT
ATOM      1  C   UNL     1     103.428 125.634  81.411  0.00  0.00    +0.000 A 
ATOM      2  C   UNL     1     103.537 125.000  82.649  0.00  0.00    +0.000 A 
ATOM      3  C   UNL     1     104.221 123.787  82.775  0.00  0.00    +0.000 A 
ATOM      4  C   UNL     1     104.799 123.178  81.657  0.00  0.00    +0.000 A 
ATOM      5  C   UNL     1     104.698 123.826  80.419  0.00  0.00    +0.000 A 
ATOM      6  C   UNL     1     104.012 125.042  80.293  0.00  0.00    +0.000 A 
ENDROOT
BRANCH   4   7
ATOM      7  C   UNL     1     105.561 121.925  81.737  0.00  0.00    +0.000 C 
ATOM      8  C   UNL     1     105.095 120.699  81.482  0.00  0.00    +0.000 C 
ATOM      9  F   UNL     1     103.818 120.493  81.097  0.00  0.00    +0.000 F 
ATOM     10  F   UNL     1     105.930 119.644  81.593  0.00  0.00    +0.000 F 
ENDBRANCH   4   7
BRANCH   1  11
ATOM     11  O   UNL     1     102.735 126.812  81.431  0.00  0.00    +0.000 OA
BRANCH  11  12
ATOM     12  C   UNL     1     102.469 127.391  82.709  0.00  0.00    +0.000 C 
BRANCH  12  16
ATOM     13  C   UNL     1      98.224 128.014  83.209  0.00  0.00    +0.000 A 
ATOM     14  C   UNL     1      98.689 126.865  82.571  0.00  0.00    +0.000 A 
ATOM     15  C   UNL     1     100.059 126.668  82.400  0.00  0.00    +0.000 A 
ATOM     16  C   UNL     1     100.982 127.621  82.857  0.00  0.00    +0.000 A 
ATOM     17  C   UNL     1     100.502 128.767  83.507  0.00  0.00    +0.000 A 
ATOM     18  C   UNL     1      99.129 128.964  83.677  0.00  0.00    +0.000 A 
ENDBRANCH  12  16
ENDBRANCH  11  12
ENDBRANCH   1  11
TORSDOF 4
ENDMDL
