MODEL 1
REMARK VINA RESULT:      -4.8      0.000      0.000
REMARK  Name = *****
REMARK  2 active torsions:
REMARK  status: ('A' for Active; 'I' for Inactive)
REMARK    1  A    between atoms: C_1  and  C_2
REMARK    2  A    between atoms: C_9  and  C_11
REMARK                            x       y       z     vdW  Elec       q    Type
REMARK                         _______ _______ _______ _____ _____    ______ ____
ROOT
ATOM      1  C   UNL     1     104.293 123.071  84.707  0.00  0.00    +0.000 C 
ATOM      2  C   UNL     1     104.425 123.516  83.287  0.00  0.00    +0.000 A 
ATOM      3  C   UNL     1     105.386 122.947  82.429  0.00  0.00    +0.000 A 
ATOM      4  C   UNL     1     105.518 123.353  81.094  0.00  0.00    +0.000 A 
ATOM      5  C   UNL     1     104.699 124.344  80.545  0.00  0.00    +0.000 A 
ATOM      6  C   UNL     1     103.735 124.923  81.378  0.00  0.00    +0.000 A 
ATOM      7  C   UNL     1     103.631 124.500  82.694  0.00  0.00    +0.000 A 
ATOM      8  O   UNL     1     102.625 125.214  83.278  0.00  0.00    +0.000 OA
ATOM      9  C   UNL     1     102.171 126.039  82.278  0.00  0.00    +0.000 A 
ATOM     10  N   UNL     1     102.805 125.899  81.126  0.00  0.00    +0.000 NA
ATOM     11 CL   UNL     1     106.718 122.612  80.104  0.00  0.00    +0.000 Cl
ENDROOT
BRANCH   9  12
ATOM     12  C   UNL     1     101.071 126.939  82.618  0.00  0.00    +0.000 A 
ATOM     13  C   UNL     1      99.738 126.638  82.297  0.00  0.00    +0.000 A 
ATOM     14  C   UNL     1      98.706 127.519  82.634  0.00  0.00    +0.000 A 
ATOM     15  C   UNL     1      98.994 128.709  83.297  0.00  0.00    +0.000 A 
ATOM     16  C   UNL     1     100.311 129.023  83.623  0.00  0.00    +0.000 A 
ATOM     17  C   UNL     1     101.341 128.143  83.286  0.00  0.00    +0.000 A 
ENDBRANCH   9  12
TORSDOF 1
ENDMDL
