MODEL 1
REMARK VINA RESULT:      -4.0      0.000      0.000
REMARK  Name = *****
REMARK  3 active torsions:
REMARK  status: ('A' for Active; 'I' for Inactive)
REMARK    1  A    between atoms: C_1  and  C_2
REMARK    2  A    between atoms: C_5  and  C_8
REMARK    3  A    between atoms: C_8  and  C_10
REMARK                            x       y       z     vdW  Elec       q    Type
REMARK                         _______ _______ _______ _____ _____    ______ ____
ROOT
ATOM      1  C   UNL     1      88.557  70.277  87.767  0.00  0.00    +0.000 C 
ATOM      2  O   UNL     1      88.832  70.443  88.950  0.00  0.00    +0.000 OA
ENDROOT
BRANCH   1   7
ATOM      3  C   UNL     1      83.746  72.744  85.657  0.00  0.00    +0.000 C 
ATOM      4  C   UNL     1      85.009  72.129  86.185  0.00  0.00    +0.000 A 
ATOM      5  C   UNL     1      86.003  71.673  85.310  0.00  0.00    +0.000 A 
ATOM      6  C   UNL     1      87.166  71.075  85.804  0.00  0.00    +0.000 A 
ATOM      7  C   UNL     1      87.340  70.909  87.184  0.00  0.00    +0.000 A 
ATOM      8  C   UNL     1      86.348  71.369  88.060  0.00  0.00    +0.000 A 
ATOM      9  C   UNL     1      85.188  71.965  87.563  0.00  0.00    +0.000 A 
ENDBRANCH   1   7
BRANCH   1  10
ATOM     10  C   UNL     1      89.335  69.360  86.893  0.00  0.00    +0.000 C 
ATOM     11  C   UNL     1      89.056  68.068  86.671  0.00  0.00    +0.000 C 
ATOM     12  S   UNL     1      87.778  67.166  87.429  0.00  0.00    +0.000 S 
ATOM     13  C   UNL     1      87.879  65.742  86.308  0.00  0.00    +0.000 C 
ATOM     14  C   UNL     1      89.346  65.529  85.977  0.00  0.00    +0.000 C 
ATOM     15  S   UNL     1      90.070  67.151  85.577  0.00  0.00    +0.000 S 
ENDBRANCH   1  10
TORSDOF 2
ENDMDL
