MODEL 1
REMARK VINA RESULT:      -4.7      0.000      0.000
REMARK  Name = *****
REMARK  3 active torsions:
REMARK  status: ('A' for Active; 'I' for Inactive)
REMARK    1  A    between atoms: C_2  and  C_3
REMARK    2  A    between atoms: C_2  and  C_10
REMARK    3  A    between atoms: C_3  and  C_4
REMARK                            x       y       z     vdW  Elec       q    Type
REMARK                         _______ _______ _______ _____ _____    ______ ____
ROOT
ATOM      1  C   UNL     1     103.448 127.408  80.404  0.00  0.00    +0.000 C 
ATOM      2  C   UNL     1     103.377 126.752  81.574  0.00  0.00    +0.000 C 
ENDROOT
BRANCH   2   3
ATOM      3  C   UNL     1     103.839 125.353  81.642  0.00  0.00    +0.000 A 
ATOM      4  C   UNL     1     104.267 124.686  80.487  0.00  0.00    +0.000 A 
ATOM      5  C   UNL     1     104.708 123.363  80.557  0.00  0.00    +0.000 A 
ATOM      6  C   UNL     1     104.728 122.697  81.782  0.00  0.00    +0.000 A 
ATOM      7  C   UNL     1     104.303 123.352  82.937  0.00  0.00    +0.000 A 
ATOM      8  C   UNL     1     103.859 124.674  82.867  0.00  0.00    +0.000 A 
ENDBRANCH   2   3
BRANCH   2   9
ATOM      9  C   UNL     1     102.900 127.395  82.856  0.00  0.00    +0.000 C 
BRANCH   9  10
ATOM     10  C   UNL     1     101.402 127.606  82.893  0.00  0.00    +0.000 A 
ATOM     11  C   UNL     1     100.858 128.761  83.472  0.00  0.00    +0.000 A 
ATOM     12  C   UNL     1      99.475 128.946  83.522  0.00  0.00    +0.000 A 
ATOM     13  C   UNL     1      98.622 127.976  82.998  0.00  0.00    +0.000 A 
ATOM     14  C   UNL     1      99.151 126.819  82.427  0.00  0.00    +0.000 A 
ATOM     15  C   UNL     1     100.534 126.633  82.378  0.00  0.00    +0.000 A 
ENDBRANCH   9  10
ENDBRANCH   2   9
TORSDOF 3
ENDMDL
