REMARK  Name = *****
REMARK  3 active torsions:
REMARK  status: ('A' for Active; 'I' for Inactive)
REMARK    1  A    between atoms: C_1  and  N_2
REMARK    2  A    between atoms: N_2  and  C_3
REMARK    3  A    between atoms: C_9  and  C_11
REMARK                            x       y       z     vdW  Elec       q    Type
REMARK                         _______ _______ _______ _____ _____    ______ ____
ROOT
ATOM      1  C   UNL     1       0.926   0.113   0.079  0.00  0.00    +0.000 C 
ATOM      2  N   UNL     1       2.384   0.012   0.067  0.00  0.00    +0.000 N 
ATOM      3  C   UNL     1       3.173   0.159   1.213  0.00  0.00    +0.000 C 
ATOM      4  O   UNL     1       4.375   0.410   1.189  0.00  0.00    +0.000 OA
ENDROOT
BRANCH   3   5
ATOM      5  C   UNL     1       2.556  -0.026   2.544  0.00  0.00    +0.000 A 
ATOM      6  C   UNL     1       1.839  -1.190   2.840  0.00  0.00    +0.000 A 
ATOM      7  C   UNL     1       1.301  -1.352   4.114  0.00  0.00    +0.000 A 
ATOM      8  C   UNL     1       1.484  -0.377   5.094  0.00  0.00    +0.000 A 
ATOM      9  C   UNL     1       2.224   0.766   4.794  0.00  0.00    +0.000 A 
ATOM     10  C   UNL     1       2.769   0.947   3.525  0.00  0.00    +0.000 A 
ATOM     11 CL   UNL     1       2.464   1.965   6.003  0.00  0.00    +0.000 Cl
ATOM     12 CL   UNL     1       0.401  -2.771   4.482  0.00  0.00    +0.000 Cl
ENDBRANCH   3   5
BRANCH   2  13
ATOM     13  C   UNL     1       3.076   0.017  -1.237  0.00  0.00    +0.000 C 
ATOM     14  C   UNL     1       3.245   1.446  -1.780  0.00  0.00    +0.000 C 
ATOM     15  C   UNL     1       3.999   1.456  -3.108  0.00  0.00    +0.000 C 
ATOM     16  C   UNL     1       3.348   0.538  -4.137  0.00  0.00    +0.000 C 
ATOM     17  C   UNL     1       3.181  -0.882  -3.601  0.00  0.00    +0.000 C 
ATOM     18  C   UNL     1       2.412  -0.895  -2.282  0.00  0.00    +0.000 C 
ENDBRANCH   2  13
TORSDOF 2
