MODEL 1
REMARK VINA RESULT:      -4.8      0.000      0.000
REMARK  Name = *****
REMARK  5 active torsions:
REMARK  status: ('A' for Active; 'I' for Inactive)
REMARK    1  A    between atoms: C_1  and  C_2
REMARK    2  A    between atoms: C_4  and  C_17
REMARK    3  A    between atoms: C_6  and  C_8
REMARK    4  A    between atoms: C_8  and  O_9
REMARK    5  A    between atoms: O_9  and  C_10
REMARK                            x       y       z     vdW  Elec       q    Type
REMARK                         _______ _______ _______ _____ _____    ______ ____
ROOT
ATOM      1  C   UNL     1      88.332  70.444  84.999  0.00  0.00    +0.000 C 
ENDROOT
BRANCH   1   7
ATOM      2  C   UNL     1      87.699  70.784  89.983  0.00  0.00    +0.000 C 
ATOM      3  C   UNL     1      87.183  71.029  88.596  0.00  0.00    +0.000 A 
ATOM      4  C   UNL     1      85.944  71.645  88.385  0.00  0.00    +0.000 A 
ATOM      5  C   UNL     1      85.469  71.876  87.089  0.00  0.00    +0.000 A 
ATOM      6  C   UNL     1      86.252  71.487  85.993  0.00  0.00    +0.000 A 
ATOM      7  C   UNL     1      87.495  70.870  86.181  0.00  0.00    +0.000 A 
ATOM      8  C   UNL     1      87.952  70.646  87.489  0.00  0.00    +0.000 A 
ATOM      9  C   UNL     1      84.142  72.537  86.861  0.00  0.00    +0.000 C 
ENDBRANCH   1   7
BRANCH   1  10
ATOM     10  O   UNL     1      89.606  70.013  85.484  0.00  0.00    +0.000 OA
BRANCH  10  11
ATOM     11  C   UNL     1      89.857  68.683  85.230  0.00  0.00    +0.000 A 
ATOM     12  N   UNL     1      89.966  68.226  83.963  0.00  0.00    +0.000 NA
ATOM     13  N   UNL     1      90.221  66.898  83.741  0.00  0.00    +0.000 NA
ATOM     14  C   UNL     1      90.357  66.067  84.795  0.00  0.00    +0.000 A 
ATOM     15  C   UNL     1      90.248  66.502  86.101  0.00  0.00    +0.000 A 
ATOM     16  C   UNL     1      89.991  67.850  86.325  0.00  0.00    +0.000 A 
ATOM     17  F   UNL     1      90.607  64.773  84.558  0.00  0.00    +0.000 F 
ENDBRANCH  10  11
ENDBRANCH   1  10
TORSDOF 3
ENDMDL
