MODEL 1
REMARK VINA RESULT:      -4.6      0.000      0.000
REMARK  Name = *****
REMARK  2 active torsions:
REMARK  status: ('A' for Active; 'I' for Inactive)
REMARK    1  A    between atoms: C_4  and  C_7
REMARK    2  A    between atoms: N_8  and  C_9
REMARK                            x       y       z     vdW  Elec       q    Type
REMARK                         _______ _______ _______ _____ _____    ______ ____
ROOT
ATOM      1  C   UNL     1     101.921 125.957  82.327  0.00  0.00    +0.000 C 
ATOM      2  N   UNL     1     102.896 126.184  81.504  0.00  0.00    +0.000 NA
ENDROOT
BRANCH   2   3
ATOM      3  C   UNL     1     103.751 125.103  81.254  0.00  0.00    +0.000 A 
ATOM      4  C   UNL     1     103.907 124.090  82.206  0.00  0.00    +0.000 A 
ATOM      5  C   UNL     1     104.745 123.004  81.949  0.00  0.00    +0.000 A 
ATOM      6  C   UNL     1     105.417 122.933  80.733  0.00  0.00    +0.000 A 
ATOM      7  C   UNL     1     105.261 123.923  79.770  0.00  0.00    +0.000 A 
ATOM      8  C   UNL     1     104.422 125.007  80.030  0.00  0.00    +0.000 A 
ATOM      9  F   UNL     1     106.222 121.892  80.485  0.00  0.00    +0.000 F 
ENDBRANCH   2   3
BRANCH   1  13
ATOM     10  C   UNL     1      99.054 128.941  83.349  0.00  0.00    +0.000 A 
ATOM     11  C   UNL     1     100.400 129.143  83.659  0.00  0.00    +0.000 A 
ATOM     12  C   UNL     1     101.346 128.173  83.328  0.00  0.00    +0.000 A 
ATOM     13  C   UNL     1     100.940 126.999  82.687  0.00  0.00    +0.000 A 
ATOM     14  C   UNL     1      99.594 126.794  82.376  0.00  0.00    +0.000 A 
ATOM     15  C   UNL     1      98.650 127.769  82.708  0.00  0.00    +0.000 A 
ENDBRANCH   1  13
TORSDOF 2
ENDMDL
