REMARK  Name = *****
REMARK  3 active torsions:
REMARK  status: ('A' for Active; 'I' for Inactive)
REMARK    1  A    between atoms: C_4  and  C_7
REMARK    2  A    between atoms: C_8  and  C_9
REMARK    3  A    between atoms: C_8  and  P_15
REMARK                            x       y       z     vdW  Elec       q    Type
REMARK                         _______ _______ _______ _____ _____    ______ ____
ROOT
ATOM      1  C   UNL     1       2.505  -0.899  -0.485  0.00  0.00    +0.000 C 
ATOM      2  C   UNL     1       3.314  -1.881  -0.038  0.00  0.00    +0.000 C 
ENDROOT
BRANCH   1   6
ATOM      3  C   UNL     1      -1.352   1.085  -0.252  0.00  0.00    +0.000 C 
ATOM      4  C   UNL     1      -1.295  -0.313  -0.859  0.00  0.00    +0.000 C 
ATOM      5  C   UNL     1       0.131  -0.702  -1.244  0.00  0.00    +0.000 C 
ATOM      6  C   UNL     1       1.092  -0.578  -0.050  0.00  0.00    +0.000 C 
ATOM      7  C   UNL     1       1.031   0.835   0.551  0.00  0.00    +0.000 C 
ATOM      8  C   UNL     1      -0.397   1.224   0.930  0.00  0.00    +0.000 C 
ENDBRANCH   1   6
BRANCH   2   9
ATOM      9  C   UNL     1       2.966  -2.887   1.055  0.00  0.00    +0.000 C 
ATOM     10  C   UNL     1       4.030  -3.008   2.166  0.00  0.00    +0.000 C 
ATOM     11  C   UNL     1       3.591  -3.992   3.251  0.00  0.00    +0.000 C 
ATOM     12  C   UNL     1       3.251  -5.359   2.665  0.00  0.00    +0.000 C 
ATOM     13  C   UNL     1       2.202  -5.253   1.561  0.00  0.00    +0.000 C 
ATOM     14  C   UNL     1       2.624  -4.270   0.470  0.00  0.00    +0.000 C 
ENDBRANCH   2   9
BRANCH   2  15
ATOM     15  P   UNL     1       4.963  -1.971  -0.853  0.00  0.00    +0.000 P 
ATOM     16  H   UNL     1       5.061  -0.975  -1.803  0.00  0.00    +0.000 HD
ATOM     17  H   UNL     1       5.109  -3.202  -1.461  0.00  0.00    +0.000 HD
ENDBRANCH   2  15
TORSDOF 3
