MODEL 1
REMARK VINA RESULT:      -4.1      0.000      0.000
REMARK  Name = *****
REMARK  2 active torsions:
REMARK  status: ('A' for Active; 'I' for Inactive)
REMARK    1  A    between atoms: C_5  and  C_6
REMARK    2  A    between atoms: C_6  and  C_7
REMARK                            x       y       z     vdW  Elec       q    Type
REMARK                         _______ _______ _______ _____ _____    ______ ____
ROOT
ATOM      1  C   UNL     1      98.127 128.976  85.450  0.00  0.00    +0.000 C 
ATOM      2  C   UNL     1      99.561 129.058  85.962  0.00  0.00    +0.000 C 
ATOM      3  S   UNL     1     100.745 129.483  84.657  0.00  0.00    +0.000 S 
ATOM      4  C   UNL     1     100.398 128.216  83.496  0.00  0.00    +0.000 C 
ATOM      5  C   UNL     1     101.439 127.501  83.032  0.00  0.00    +0.000 C 
ATOM      6  S   UNL     1      98.714 128.047  82.893  0.00  0.00    +0.000 S 
ATOM      7  O   UNL     1      98.570 126.755  82.148  0.00  0.00    +0.000 OA
ATOM      8  C   UNL     1      97.915 127.803  84.506  0.00  0.00    +0.000 C 
ENDROOT
BRANCH   5   9
ATOM      9  C   UNL     1     101.522 126.424  81.987  0.00  0.00    +0.000 C 
BRANCH   9  10
ATOM     10  C   UNL     1     102.854 126.430  81.273  0.00  0.00    +0.000 A 
ATOM     11  C   UNL     1     103.392 125.242  80.763  0.00  0.00    +0.000 A 
ATOM     12  C   UNL     1     104.633 125.241  80.124  0.00  0.00    +0.000 A 
ATOM     13  C   UNL     1     105.352 126.427  79.993  0.00  0.00    +0.000 A 
ATOM     14  C   UNL     1     104.831 127.615  80.503  0.00  0.00    +0.000 A 
ATOM     15  C   UNL     1     103.590 127.617  81.142  0.00  0.00    +0.000 A 
ENDBRANCH   9  10
ENDBRANCH   5   9
TORSDOF 2
ENDMDL
