MODEL 1
REMARK VINA RESULT:      -4.6      0.000      0.000
REMARK  Name = *****
REMARK  6 active torsions:
REMARK  status: ('A' for Active; 'I' for Inactive)
REMARK    1  A    between atoms: C_1  and  C_2
REMARK    2  A    between atoms: C_3  and  C_9
REMARK    3  A    between atoms: C_4  and  C_8
REMARK    4  A    between atoms: C_9  and  C_11
REMARK    5  A    between atoms: C_11  and  C_12
REMARK    6  A    between atoms: C_12  and  C_13
REMARK                            x       y       z     vdW  Elec       q    Type
REMARK                         _______ _______ _______ _____ _____    ______ ____
ROOT
ATOM      1  C   UNL     1      89.076  70.242  86.319  0.00  0.00    +0.000 C 
ATOM      2  O   UNL     1      89.994  71.001  86.029  0.00  0.00    +0.000 OA
ENDROOT
BRANCH   1   5
ATOM      3  C   UNL     1      88.469  70.475  89.168  0.00  0.00    +0.000 C 
ATOM      4  C   UNL     1      87.481  70.899  88.117  0.00  0.00    +0.000 A 
ATOM      5  C   UNL     1      87.774  70.811  86.741  0.00  0.00    +0.000 A 
ATOM      6  C   UNL     1      86.856  71.253  85.768  0.00  0.00    +0.000 A 
ATOM      7  C   UNL     1      85.616  71.748  86.194  0.00  0.00    +0.000 A 
ATOM      8  C   UNL     1      85.308  71.824  87.552  0.00  0.00    +0.000 A 
ATOM      9  C   UNL     1      86.236  71.409  88.507  0.00  0.00    +0.000 A 
ATOM     10  C   UNL     1      87.162  71.203  84.298  0.00  0.00    +0.000 C 
ENDBRANCH   1   5
BRANCH   1  11
ATOM     11  C   UNL     1      89.204  68.731  86.385  0.00  0.00    +0.000 C 
BRANCH  11  12
ATOM     12  C   UNL     1      87.862  68.017  86.225  0.00  0.00    +0.000 C 
BRANCH  12  13
ATOM     13  C   UNL     1      87.593  67.014  87.321  0.00  0.00    +0.000 A 
ATOM     14  C   UNL     1      86.556  67.230  88.241  0.00  0.00    +0.000 A 
ATOM     15  C   UNL     1      86.320  66.315  89.266  0.00  0.00    +0.000 A 
ATOM     16  C   UNL     1      87.119  65.183  89.371  0.00  0.00    +0.000 A 
ATOM     17  C   UNL     1      88.151  64.950  88.471  0.00  0.00    +0.000 A 
ATOM     18  C   UNL     1      88.391  65.866  87.445  0.00  0.00    +0.000 A 
ATOM     19  F   UNL     1      86.895  64.305  90.357  0.00  0.00    +0.000 F 
ENDBRANCH  12  13
ENDBRANCH  11  12
ENDBRANCH   1  11
TORSDOF 4
ENDMDL
