REMARK  Name = *****
REMARK  3 active torsions:
REMARK  status: ('A' for Active; 'I' for Inactive)
REMARK    1  A    between atoms: C_6  and  C_7
REMARK    2  A    between atoms: C_7  and  C_8
REMARK    3  A    between atoms: C_8  and  C_9
REMARK                            x       y       z     vdW  Elec       q    Type
REMARK                         _______ _______ _______ _____ _____    ______ ____
ROOT
ATOM      1  C   UNL     1      -4.027   1.403   0.095  0.00  0.00    +0.000 C 
ATOM      2  F   UNL     1      -3.664   2.269   1.092  0.00  0.00    +0.000 F 
ENDROOT
BRANCH   1   3
ATOM      3  C   UNL     1      -5.532   1.357  -0.084  0.00  0.00    +0.000 A 
ATOM      4  C   UNL     1      -6.382   1.821   0.932  0.00  0.00    +0.000 A 
ATOM      5  C   UNL     1      -7.769   1.772   0.774  0.00  0.00    +0.000 A 
ATOM      6  C   UNL     1      -8.314   1.258  -0.400  0.00  0.00    +0.000 A 
ATOM      7  C   UNL     1      -7.485   0.794  -1.418  0.00  0.00    +0.000 A 
ATOM      8  C   UNL     1      -6.097   0.844  -1.262  0.00  0.00    +0.000 A 
ATOM      9 CL   UNL     1     -10.023   1.196  -0.594  0.00  0.00    +0.000 Cl
ENDBRANCH   1   3
BRANCH   1  10
ATOM     10  C   UNL     1      -3.465   0.017   0.441  0.00  0.00    +0.000 C 
BRANCH  10  16
ATOM     11  C   UNL     1      -1.327  -0.535  -0.799  0.00  0.00    +0.000 A 
ATOM     12  C   UNL     1       0.065  -0.562  -0.885  0.00  0.00    +0.000 A 
ATOM     13  C   UNL     1       0.828  -0.082   0.173  0.00  0.00    +0.000 A 
ATOM     14  C   UNL     1       0.225   0.427   1.316  0.00  0.00    +0.000 A 
ATOM     15  C   UNL     1      -1.168   0.456   1.404  0.00  0.00    +0.000 A 
ATOM     16  C   UNL     1      -1.956  -0.029   0.349  0.00  0.00    +0.000 A 
ATOM     17  F   UNL     1       2.164  -0.109   0.088  0.00  0.00    +0.000 F 
ENDBRANCH  10  16
ENDBRANCH   1  10
TORSDOF 3
