MODEL 1
REMARK VINA RESULT:      -5.6      0.000      0.000
REMARK  Name = *****
REMARK  5 active torsions:
REMARK  status: ('A' for Active; 'I' for Inactive)
REMARK    1  A    between atoms: C_1  and  C_2
REMARK    2  A    between atoms: C_4  and  C_10
REMARK    3  A    between atoms: C_6  and  C_9
REMARK    4  A    between atoms: C_7  and  O_8
REMARK    5  A    between atoms: C_11  and  C_12
REMARK                            x       y       z     vdW  Elec       q    Type
REMARK                         _______ _______ _______ _____ _____    ______ ____
ROOT
ATOM      1  C   UNL     1     106.339 124.507  78.294  0.00  0.00    +0.000 C 
ATOM      2  C   UNL     1     105.486 124.366  79.522  0.00  0.00    +0.000 A 
ATOM      3  C   UNL     1     104.541 125.353  79.839  0.00  0.00    +0.000 A 
ATOM      4  C   UNL     1     103.735 125.238  80.977  0.00  0.00    +0.000 A 
ATOM      5  C   UNL     1     103.904 124.131  81.819  0.00  0.00    +0.000 A 
ATOM      6  C   UNL     1     104.844 123.127  81.528  0.00  0.00    +0.000 A 
ATOM      7  C   UNL     1     105.626 123.260  80.372  0.00  0.00    +0.000 A 
ATOM      8  C   UNL     1     104.976 121.958  82.462  0.00  0.00    +0.000 C 
ENDROOT
BRANCH   7   9
ATOM      9  O   UNL     1     106.562 122.324  80.023  0.00  0.00    +0.000 OA
ATOM     10  H   UNL     1     106.613 122.020  79.138  0.00  0.00    +0.000 HD
ENDBRANCH   7   9
BRANCH   4  11
ATOM     11  C   UNL     1     102.758 126.271  81.354  0.00  0.00    +0.000 C 
ATOM     12  C   UNL     1     101.925 126.164  82.402  0.00  0.00    +0.000 C 
BRANCH  12  13
ATOM     13  C   UNL     1     100.935 127.181  82.796  0.00  0.00    +0.000 A 
ATOM     14  C   UNL     1     101.376 128.337  83.454  0.00  0.00    +0.000 A 
ATOM     15  C   UNL     1     100.495 129.352  83.833  0.00  0.00    +0.000 A 
ATOM     16  C   UNL     1      99.137 129.235  83.545  0.00  0.00    +0.000 A 
ATOM     17  C   UNL     1      98.675 128.104  82.876  0.00  0.00    +0.000 A 
ATOM     18  C   UNL     1      99.569 127.096  82.503  0.00  0.00    +0.000 A 
ATOM     19  F   UNL     1      99.073 126.042  81.836  0.00  0.00    +0.000 F 
ATOM     20  F   UNL     1     102.677 128.493  83.744  0.00  0.00    +0.000 F 
ENDBRANCH  12  13
ENDBRANCH   4  11
TORSDOF 3
ENDMDL
