MODEL 1
REMARK VINA RESULT:      -5.4      0.000      0.000
REMARK  Name = *****
REMARK  5 active torsions:
REMARK  status: ('A' for Active; 'I' for Inactive)
REMARK    1  A    between atoms: C_1  and  C_2
REMARK    2  A    between atoms: C_4  and  C_8
REMARK    3  A    between atoms: N_10  and  C_11
REMARK    4  A    between atoms: N_10  and  O_21
REMARK    5  A    between atoms: C_15  and  C_17
REMARK                            x       y       z     vdW  Elec       q    Type
REMARK                         _______ _______ _______ _____ _____    ______ ____
ROOT
ATOM      1  C   UNL     1     102.526 125.799  82.482  0.00  0.00    +0.000 C 
ATOM      2  O   UNL     1     102.660 124.926  83.338  0.00  0.00    +0.000 OA
ATOM      3  N   UNL     1     103.141 125.827  81.231  0.00  0.00    +0.000 N 
ENDROOT
BRANCH   1   7
ATOM      4  C   UNL     1     101.552 130.284  84.565  0.00  0.00    +0.000 C 
ATOM      5  C   UNL     1     101.100 129.066  83.816  0.00  0.00    +0.000 A 
ATOM      6  C   UNL     1     102.013 128.050  83.497  0.00  0.00    +0.000 A 
ATOM      7  C   UNL     1     101.585 126.902  82.818  0.00  0.00    +0.000 A 
ATOM      8  C   UNL     1     100.231 126.742  82.502  0.00  0.00    +0.000 A 
ATOM      9  C   UNL     1      99.316 127.742  82.831  0.00  0.00    +0.000 A 
ATOM     10  C   UNL     1      99.750 128.898  83.485  0.00  0.00    +0.000 A 
ENDBRANCH   1   7
BRANCH   3  11
ATOM     11  C   UNL     1     104.173 124.974  80.749  0.00  0.00    +0.000 A 
ATOM     12  C   UNL     1     105.104 125.384  79.788  0.00  0.00    +0.000 A 
ATOM     13  C   UNL     1     106.110 124.521  79.337  0.00  0.00    +0.000 A 
ATOM     14  C   UNL     1     106.201 123.225  79.835  0.00  0.00    +0.000 A 
ATOM     15  C   UNL     1     105.283 122.777  80.791  0.00  0.00    +0.000 A 
ATOM     16  C   UNL     1     104.279 123.658  81.237  0.00  0.00    +0.000 A 
BRANCH  15  17
ATOM     17  C   UNL     1     105.352 121.377  81.348  0.00  0.00    +0.000 C 
ATOM     18  F   UNL     1     104.290 120.597  81.001  0.00  0.00    +0.000 F 
ATOM     19  F   UNL     1     106.460 120.707  80.927  0.00  0.00    +0.000 F 
ATOM     20  F   UNL     1     105.399 121.358  82.709  0.00  0.00    +0.000 F 
ENDBRANCH  15  17
ENDBRANCH   3  11
BRANCH   3  21
ATOM     21  O   UNL     1     102.726 126.826  80.318  0.00  0.00    +0.000 OA
ATOM     22  H   UNL     1     103.446 127.462  80.185  0.00  0.00    +0.000 HD
ENDBRANCH   3  21
TORSDOF 4
ENDMDL
