MODEL 1
REMARK VINA RESULT:      -4.9      0.000      0.000
REMARK  Name = *****
REMARK  2 active torsions:
REMARK  status: ('A' for Active; 'I' for Inactive)
REMARK    1  A    between atoms: C_4  and  C_7
REMARK    2  A    between atoms: C_8  and  C_9
REMARK                            x       y       z     vdW  Elec       q    Type
REMARK                         _______ _______ _______ _____ _____    ______ ____
ROOT
ATOM      1  C   UNL     1     102.881 125.582  81.840  0.00  0.00    +0.000 C 
ATOM      2  C   UNL     1     102.066 126.367  82.241  0.00  0.00    +0.000 C 
ENDROOT
BRANCH   2   3
ATOM      3  C   UNL     1     101.092 127.303  82.722  0.00  0.00    +0.000 A 
ATOM      4  C   UNL     1      99.739 127.053  82.471  0.00  0.00    +0.000 A 
ATOM      5  C   UNL     1      98.744 127.925  82.911  0.00  0.00    +0.000 A 
ATOM      6  C   UNL     1      99.094 129.071  83.619  0.00  0.00    +0.000 A 
ATOM      7  C   UNL     1     100.439 129.340  83.881  0.00  0.00    +0.000 A 
ATOM      8  C   UNL     1     101.436 128.460  83.435  0.00  0.00    +0.000 A 
ATOM      9  I   UNL     1     103.426 128.965  83.887  0.00  0.00    +0.000 I 
ATOM     10  F   UNL     1      99.365 125.958  81.791  0.00  0.00    +0.000 F 
ENDBRANCH   2   3
BRANCH   1  14
ATOM     11  C   UNL     1     105.772 122.837  80.445  0.00  0.00    +0.000 A 
ATOM     12  C   UNL     1     105.189 122.658  81.699  0.00  0.00    +0.000 A 
ATOM     13  C   UNL     1     104.233 123.565  82.162  0.00  0.00    +0.000 A 
ATOM     14  C   UNL     1     103.859 124.651  81.368  0.00  0.00    +0.000 A 
ATOM     15  C   UNL     1     104.442 124.829  80.112  0.00  0.00    +0.000 A 
ATOM     16  C   UNL     1     105.399 123.922  79.650  0.00  0.00    +0.000 A 
ENDBRANCH   1  14
TORSDOF 2
ENDMDL
