MODEL 1
REMARK VINA RESULT:      -4.7      0.000      0.000
REMARK  Name = *****
REMARK  3 active torsions:
REMARK  status: ('A' for Active; 'I' for Inactive)
REMARK    1  A    between atoms: C_1  and  C_2
REMARK    2  A    between atoms: C_2  and  C_10
REMARK    3  A    between atoms: N_3  and  C_4
REMARK                            x       y       z     vdW  Elec       q    Type
REMARK                         _______ _______ _______ _____ _____    ______ ____
ROOT
ATOM      1  C   UNL     1     103.407 127.211  80.641  0.00  0.00    +0.000 C 
ATOM      2  C   UNL     1     102.968 126.071  81.539  0.00  0.00    +0.000 C 
ATOM      3  N   UNL     1     101.935 126.109  82.309  0.00  0.00    +0.000 NA
ENDROOT
BRANCH   2   4
ATOM      4  C   UNL     1     103.777 124.802  81.509  0.00  0.00    +0.000 A 
ATOM      5  C   UNL     1     104.388 124.334  80.338  0.00  0.00    +0.000 A 
ATOM      6  C   UNL     1     105.128 123.146  80.354  0.00  0.00    +0.000 A 
ATOM      7  C   UNL     1     105.252 122.417  81.535  0.00  0.00    +0.000 A 
ATOM      8  C   UNL     1     104.639 122.863  82.702  0.00  0.00    +0.000 A 
ATOM      9  C   UNL     1     103.904 124.052  82.689  0.00  0.00    +0.000 A 
ATOM     10 CL   UNL     1     106.160 120.957  81.548  0.00  0.00    +0.000 Cl
ENDBRANCH   2   4
BRANCH   3  11
ATOM     11  C   UNL     1     101.055 127.271  82.389  0.00  0.00    +0.000 C 
ATOM     12  C   UNL     1     101.396 128.082  83.645  0.00  0.00    +0.000 C 
ATOM     13  C   UNL     1     100.408 129.226  83.858  0.00  0.00    +0.000 C 
ATOM     14  C   UNL     1      98.969 128.720  83.916  0.00  0.00    +0.000 C 
ATOM     15  C   UNL     1      98.614 127.889  82.687  0.00  0.00    +0.000 C 
ATOM     16  C   UNL     1      99.612 126.753  82.468  0.00  0.00    +0.000 C 
ENDBRANCH   3  11
TORSDOF 2
ENDMDL
