MODEL 1
REMARK VINA RESULT:      -4.2      0.000      0.000
REMARK  Name = *****
REMARK  4 active torsions:
REMARK  status: ('A' for Active; 'I' for Inactive)
REMARK    1  A    between atoms: C_4  and  C_7
REMARK    2  A    between atoms: C_7  and  C_8
REMARK    3  A    between atoms: C_8  and  O_10
REMARK    4  A    between atoms: O_10  and  C_11
REMARK                            x       y       z     vdW  Elec       q    Type
REMARK                         _______ _______ _______ _____ _____    ______ ____
ROOT
ATOM      1  C   UNL     1      89.191  66.555  86.531  0.00  0.00    +0.000 C 
ATOM      2  O   UNL     1      90.413  66.590  86.502  0.00  0.00    +0.000 OA
ENDROOT
BRANCH   1   3
ATOM      3  C   UNL     1      88.391  65.325  86.890  0.00  0.00    +0.000 C 
BRANCH   3   7
ATOM      4  C   UNL     1      87.086  63.756  90.761  0.00  0.00    +0.000 C 
ATOM      5  C   UNL     1      88.580  63.754  90.455  0.00  0.00    +0.000 C 
ATOM      6  C   UNL     1      88.851  63.931  88.962  0.00  0.00    +0.000 C 
ATOM      7  C   UNL     1      88.175  65.195  88.404  0.00  0.00    +0.000 C 
ATOM      8  C   UNL     1      86.671  65.184  88.721  0.00  0.00    +0.000 C 
ATOM      9  C   UNL     1      86.405  65.006  90.214  0.00  0.00    +0.000 C 
ENDBRANCH   3   7
ENDBRANCH   1   3
BRANCH   1  10
ATOM     10  O   UNL     1      88.318  67.605  86.263  0.00  0.00    +0.000 OA
BRANCH  10  11
ATOM     11  C   UNL     1      88.330  68.641  87.202  0.00  0.00    +0.000 A 
ATOM     12  C   UNL     1      89.296  69.646  87.151  0.00  0.00    +0.000 A 
ATOM     13  C   UNL     1      89.240  70.691  88.074  0.00  0.00    +0.000 A 
ATOM     14  C   UNL     1      88.213  70.729  89.019  0.00  0.00    +0.000 A 
ATOM     15  C   UNL     1      87.237  69.732  89.049  0.00  0.00    +0.000 A 
ATOM     16  C   UNL     1      87.290  68.682  88.130  0.00  0.00    +0.000 A 
ATOM     17 CL   UNL     1      88.144  72.022  90.152  0.00  0.00    +0.000 Cl
ENDBRANCH  10  11
ENDBRANCH   1  10
TORSDOF 4
ENDMDL
