MODEL 1
REMARK VINA RESULT:      -4.4      0.000      0.000
REMARK  Name = *****
REMARK  4 active torsions:
REMARK  status: ('A' for Active; 'I' for Inactive)
REMARK    1  A    between atoms: C_5  and  C_6
REMARK    2  A    between atoms: C_7  and  C_8
REMARK    3  A    between atoms: C_11  and  C_14
REMARK    4  A    between atoms: C_14  and  S_15
REMARK                            x       y       z     vdW  Elec       q    Type
REMARK                         _______ _______ _______ _____ _____    ______ ____
ROOT
ATOM      1  C   UNL     1     103.611 125.049  81.318  0.00  0.00    +0.000 A 
ATOM      2  C   UNL     1     104.300 124.936  80.104  0.00  0.00    +0.000 A 
ATOM      3  C   UNL     1     105.280 123.955  79.928  0.00  0.00    +0.000 A 
ATOM      4  C   UNL     1     105.595 123.069  80.967  0.00  0.00    +0.000 A 
ATOM      5  C   UNL     1     104.923 123.196  82.189  0.00  0.00    +0.000 A 
ATOM      6  C   UNL     1     103.944 124.180  82.362  0.00  0.00    +0.000 A 
ENDROOT
BRANCH   1   8
ATOM      7  C   UNL     1     101.666 126.022  82.514  0.00  0.00    +0.000 C 
ATOM      8  C   UNL     1     102.601 126.090  81.553  0.00  0.00    +0.000 C 
BRANCH   7  13
ATOM      9  C   UNL     1     100.927 128.364  83.426  0.00  0.00    +0.000 C 
ATOM     10  C   UNL     1      99.558 128.984  83.420  0.00  0.00    +0.000 C 
ATOM     11  C   UNL     1      98.682 128.142  82.853  0.00  0.00    +0.000 C 
ATOM     12  C   UNL     1      99.369 126.939  82.450  0.00  0.00    +0.000 C 
ATOM     13  C   UNL     1     100.671 127.031  82.766  0.00  0.00    +0.000 C 
ENDBRANCH   7  13
ENDBRANCH   1   8
BRANCH   4  14
ATOM     14  C   UNL     1     106.661 122.020  80.785  0.00  0.00    +0.000 C 
BRANCH  14  15
ATOM     15  S   UNL     1     108.134 122.683  79.960  0.00  0.00    +0.000 S 
ATOM     16  H   UNL     1     108.611 123.743  80.666  0.00  0.00    +0.000 HD
ENDBRANCH  14  15
ENDBRANCH   4  14
TORSDOF 4
ENDMDL
