MODEL 1
REMARK VINA RESULT:      -4.5      0.000      0.000
REMARK  Name = *****
REMARK  3 active torsions:
REMARK  status: ('A' for Active; 'I' for Inactive)
REMARK    1  A    between atoms: C_1  and  C_2
REMARK    2  A    between atoms: C_5  and  C_8
REMARK    3  A    between atoms: N_10  and  C_11
REMARK                            x       y       z     vdW  Elec       q    Type
REMARK                         _______ _______ _______ _____ _____    ______ ____
ROOT
ATOM      1  C   UNL     1      86.817  68.872  87.190  0.00  0.00    +0.000 C 
ATOM      2  O   UNL     1      86.015  68.551  86.322  0.00  0.00    +0.000 OA
ATOM      3  N   UNL     1      87.400  68.010  88.103  0.00  0.00    +0.000 N 
ATOM      4  H   UNL     1      87.997  68.426  88.766  0.00  0.00    +0.000 HD
ENDROOT
BRANCH   3   5
ATOM      5  C   UNL     1      87.248  66.607  88.204  0.00  0.00    +0.000 A 
ATOM      6  C   UNL     1      88.200  65.784  87.569  0.00  0.00    +0.000 A 
ATOM      7  C   UNL     1      88.108  64.392  87.624  0.00  0.00    +0.000 A 
ATOM      8  C   UNL     1      87.056  63.806  88.318  0.00  0.00    +0.000 A 
ATOM      9  C   UNL     1      86.103  64.599  88.951  0.00  0.00    +0.000 A 
ATOM     10  C   UNL     1      86.197  65.995  88.894  0.00  0.00    +0.000 A 
ATOM     11 CL   UNL     1      86.931  62.093  88.395  0.00  0.00    +0.000 Cl
ATOM     12 CL   UNL     1      89.525  66.476  86.692  0.00  0.00    +0.000 Cl
ENDBRANCH   3   5
BRANCH   1  17
ATOM     13  C   UNL     1      90.448  70.778  84.377  0.00  0.00    +0.000 C 
ATOM     14  C   UNL     1      89.470  71.081  85.512  0.00  0.00    +0.000 C 
ATOM     15  C   UNL     1      88.022  70.968  85.022  0.00  0.00    +0.000 C 
ATOM     16  C   UNL     1      87.015  71.198  86.150  0.00  0.00    +0.000 C 
ATOM     17  C   UNL     1      87.268  70.328  87.391  0.00  0.00    +0.000 C 
ATOM     18  C   UNL     1      88.733  70.421  87.839  0.00  0.00    +0.000 C 
ATOM     19  C   UNL     1      89.715  70.145  86.701  0.00  0.00    +0.000 C 
ENDBRANCH   1  17
TORSDOF 2
ENDMDL
