REMARK  Name = *****
REMARK  4 active torsions:
REMARK  status: ('A' for Active; 'I' for Inactive)
REMARK    1  A    between atoms: C_1  and  C_2
REMARK    2  A    between atoms: C_4  and  O_8
REMARK    3  A    between atoms: O_8  and  C_9
REMARK    4  A    between atoms: C_9  and  C_11
REMARK                            x       y       z     vdW  Elec       q    Type
REMARK                         _______ _______ _______ _____ _____    ______ ____
ROOT
ATOM      1  O   UNL     1      -1.580   2.600   0.003  0.00  0.00    +0.000 OA
ENDROOT
BRANCH   1   5
ATOM      2  C   UNL     1       2.117  -0.458   1.258  0.00  0.00    +0.000 C 
ATOM      3  C   UNL     1       0.883  -0.140   0.468  0.00  0.00    +0.000 A 
ATOM      4  C   UNL     1       0.260   1.107   0.600  0.00  0.00    +0.000 A 
ATOM      5  C   UNL     1      -0.894   1.385  -0.133  0.00  0.00    +0.000 A 
ATOM      6  C   UNL     1      -1.471   0.422  -0.959  0.00  0.00    +0.000 A 
ATOM      7  C   UNL     1      -0.864  -0.826  -1.079  0.00  0.00    +0.000 A 
ATOM      8  C   UNL     1       0.306  -1.107  -0.367  0.00  0.00    +0.000 A 
ENDBRANCH   1   5
BRANCH   1   9
ATOM      9  C   UNL     1      -0.856   3.769  -0.233  0.00  0.00    +0.000 C 
ATOM     10  O   UNL     1       0.314   3.844  -0.581  0.00  0.00    +0.000 OA
BRANCH   9  11
ATOM     11  C   UNL     1      -1.779   4.958  -0.025  0.00  0.00    +0.000 C 
ATOM     12  C   UNL     1      -2.542   5.248  -1.320  0.00  0.00    +0.000 C 
ATOM     13  C   UNL     1      -3.432   6.481  -1.185  0.00  0.00    +0.000 C 
ATOM     14  C   UNL     1      -2.645   7.699  -0.710  0.00  0.00    +0.000 C 
ATOM     15  C   UNL     1      -1.887   7.410   0.583  0.00  0.00    +0.000 C 
ATOM     16  C   UNL     1      -0.987   6.185   0.442  0.00  0.00    +0.000 C 
ENDBRANCH   9  11
ENDBRANCH   1   9
TORSDOF 3
