MODEL 1
REMARK VINA RESULT:      -4.1      0.000      0.000
REMARK  Name = *****
REMARK  4 active torsions:
REMARK  status: ('A' for Active; 'I' for Inactive)
REMARK    1  A    between atoms: C_4  and  S_7
REMARK    2  A    between atoms: S_7  and  C_8
REMARK    3  A    between atoms: C_8  and  C_9
REMARK    4  A    between atoms: C_9  and  C_11
REMARK                            x       y       z     vdW  Elec       q    Type
REMARK                         _______ _______ _______ _____ _____    ______ ____
ROOT
ATOM      1  C   UNL     1      89.469  67.231  86.264  0.00  0.00    +0.000 C 
ATOM      2  O   UNL     1      90.659  66.951  86.395  0.00  0.00    +0.000 OA
ENDROOT
BRANCH   1   3
ATOM      3  C   UNL     1      88.489  66.587  87.196  0.00  0.00    +0.000 A 
ATOM      4  C   UNL     1      87.369  67.263  87.699  0.00  0.00    +0.000 A 
ATOM      5  C   UNL     1      86.485  66.611  88.567  0.00  0.00    +0.000 A 
ATOM      6  C   UNL     1      86.714  65.285  88.933  0.00  0.00    +0.000 A 
ATOM      7  C   UNL     1      87.820  64.602  88.436  0.00  0.00    +0.000 A 
ATOM      8  C   UNL     1      88.704  65.251  87.570  0.00  0.00    +0.000 A 
ATOM      9 CL   UNL     1      85.624  64.492  90.000  0.00  0.00    +0.000 Cl
ENDBRANCH   1   3
BRANCH   1  10
ATOM     10  C   UNL     1      88.924  68.172  85.199  0.00  0.00    +0.000 C 
BRANCH  10  11
ATOM     11  S   UNL     1      89.576  69.865  85.374  0.00  0.00    +0.000 S 
BRANCH  11  15
ATOM     12  C   UNL     1      86.995  71.307  88.875  0.00  0.00    +0.000 A 
ATOM     13  C   UNL     1      86.457  71.276  87.590  0.00  0.00    +0.000 A 
ATOM     14  C   UNL     1      87.234  70.837  86.515  0.00  0.00    +0.000 A 
ATOM     15  C   UNL     1      88.557  70.434  86.721  0.00  0.00    +0.000 A 
ATOM     16  C   UNL     1      89.086  70.453  88.016  0.00  0.00    +0.000 A 
ATOM     17  C   UNL     1      88.309  70.893  89.089  0.00  0.00    +0.000 A 
ENDBRANCH  11  15
ENDBRANCH  10  11
ENDBRANCH   1  10
TORSDOF 4
ENDMDL
