MODEL 1
REMARK VINA RESULT:      -5.0      0.000      0.000
REMARK  Name = *****
REMARK  2 active torsions:
REMARK  status: ('A' for Active; 'I' for Inactive)
REMARK    1  A    between atoms: C_1  and  C_2
REMARK    2  A    between atoms: C_5  and  C_12
REMARK                            x       y       z     vdW  Elec       q    Type
REMARK                         _______ _______ _______ _____ _____    ______ ____
ROOT
ATOM      1  C   UNL     1     103.119 130.299  84.607  0.00  0.00    +0.000 C 
ATOM      2  C   UNL     1     101.702 129.908  84.274  0.00  0.00    +0.000 A 
ATOM      3  C   UNL     1     101.397 128.694  83.596  0.00  0.00    +0.000 A 
ATOM      4  C   UNL     1     102.372 127.764  83.182  0.00  0.00    +0.000 A 
ATOM      5  C   UNL     1     102.002 126.598  82.521  0.00  0.00    +0.000 A 
ATOM      6  N   UNL     1     100.701 126.358  82.265  0.00  0.00    +0.000 NA
ATOM      7  N   UNL     1      99.732 127.251  82.664  0.00  0.00    +0.000 NA
ATOM      8  C   UNL     1     100.056 128.379  83.308  0.00  0.00    +0.000 A 
ATOM      9  C   UNL     1      99.053 129.257  83.697  0.00  0.00    +0.000 A 
ATOM     10  C   UNL     1      99.342 130.445  84.365  0.00  0.00    +0.000 A 
ATOM     11  C   UNL     1     100.662 130.770  84.653  0.00  0.00    +0.000 A 
ENDROOT
BRANCH   5  12
ATOM     12  C   UNL     1     102.962 125.582  82.054  0.00  0.00    +0.000 A 
ATOM     13  C   UNL     1     103.379 125.511  80.711  0.00  0.00    +0.000 A 
ATOM     14  C   UNL     1     104.288 124.536  80.282  0.00  0.00    +0.000 A 
ATOM     15  C   UNL     1     104.801 123.614  81.188  0.00  0.00    +0.000 A 
ATOM     16  C   UNL     1     104.413 123.666  82.523  0.00  0.00    +0.000 A 
ATOM     17  C   UNL     1     103.505 124.642  82.949  0.00  0.00    +0.000 A 
ENDBRANCH   5  12
TORSDOF 1
ENDMDL
