MODEL 1
REMARK VINA RESULT:      -4.8      0.000      0.000
REMARK  Name = *****
REMARK  4 active torsions:
REMARK  status: ('A' for Active; 'I' for Inactive)
REMARK    1  A    between atoms: C_4  and  C_7
REMARK    2  A    between atoms: C_7  and  O_8
REMARK    3  A    between atoms: O_8  and  C_9
REMARK    4  A    between atoms: C_9  and  C_11
REMARK                            x       y       z     vdW  Elec       q    Type
REMARK                         _______ _______ _______ _____ _____    ______ ____
ROOT
ATOM      1  O   UNL     1     103.418 125.469  80.163  0.00  0.00    +0.000 OA
ENDROOT
BRANCH   1   2
ATOM      2  C   UNL     1     103.595 126.829  80.553  0.00  0.00    +0.000 C 
ATOM      3  F   UNL     1     103.220 127.567  79.464  0.00  0.00    +0.000 F 
BRANCH   2   7
ATOM      4  C   UNL     1     101.152 127.641  84.020  0.00  0.00    +0.000 A 
ATOM      5  C   UNL     1     102.219 128.482  83.708  0.00  0.00    +0.000 A 
ATOM      6  C   UNL     1     103.006 128.225  82.584  0.00  0.00    +0.000 A 
ATOM      7  C   UNL     1     102.731 127.124  81.758  0.00  0.00    +0.000 A 
ATOM      8  C   UNL     1     101.660 126.281  82.088  0.00  0.00    +0.000 A 
ATOM      9  C   UNL     1     100.873 126.540  83.212  0.00  0.00    +0.000 A 
ENDBRANCH   2   7
ENDBRANCH   1   2
BRANCH   1  10
ATOM     10  C   UNL     1     104.560 124.758  80.049  0.00  0.00    +0.000 C 
ATOM     11  O   UNL     1     105.476 124.987  79.276  0.00  0.00    +0.000 OA
BRANCH  10  12
ATOM     12  C   UNL     1     104.566 123.625  81.015  0.00  0.00    +0.000 A 
ATOM     13  C   UNL     1     104.736 122.329  80.512  0.00  0.00    +0.000 A 
ATOM     14  C   UNL     1     104.750 121.233  81.377  0.00  0.00    +0.000 A 
ATOM     15  C   UNL     1     104.596 121.426  82.749  0.00  0.00    +0.000 A 
ATOM     16  C   UNL     1     104.427 122.713  83.259  0.00  0.00    +0.000 A 
ATOM     17  C   UNL     1     104.413 123.813  82.397  0.00  0.00    +0.000 A 
ENDBRANCH  10  12
ENDBRANCH   1  10
TORSDOF 4
ENDMDL
