MODEL 1
REMARK VINA RESULT:      -5.2      0.000      0.000
REMARK  Name = *****
REMARK  2 active torsions:
REMARK  status: ('A' for Active; 'I' for Inactive)
REMARK    1  A    between atoms: C_3  and  C_8
REMARK    2  A    between atoms: C_9  and  C_10
REMARK                            x       y       z     vdW  Elec       q    Type
REMARK                         _______ _______ _______ _____ _____    ______ ____
ROOT
ATOM      1  C   UNL     1     102.407 125.972  82.267  0.00  0.00    +0.000 C 
ATOM      2  C   UNL     1     102.928 125.788  81.042  0.00  0.00    +0.000 C 
ENDROOT
BRANCH   1   5
ATOM      3  C   UNL     1     100.501 128.869  83.983  0.00  0.00    +0.000 C 
ATOM      4  C   UNL     1     101.685 128.230  83.258  0.00  0.00    +0.000 C 
ATOM      5  C   UNL     1     101.337 126.904  82.618  0.00  0.00    +0.000 C 
ATOM      6  C   UNL     1     100.062 126.552  82.372  0.00  0.00    +0.000 C 
ATOM      7  C   UNL     1      98.936 127.481  82.636  0.00  0.00    +0.000 C 
ATOM      8  O   UNL     1      97.788 127.121  82.386  0.00  0.00    +0.000 OA
ATOM      9  C   UNL     1      99.254 128.876  83.118  0.00  0.00    +0.000 C 
ENDBRANCH   1   5
BRANCH   2  10
ATOM     10  C   UNL     1     104.007 124.834  80.745  0.00  0.00    +0.000 A 
ATOM     11  C   UNL     1     104.892 125.014  79.670  0.00  0.00    +0.000 A 
ATOM     12  C   UNL     1     105.925 124.101  79.441  0.00  0.00    +0.000 A 
ATOM     13  C   UNL     1     106.082 123.015  80.294  0.00  0.00    +0.000 A 
ATOM     14  C   UNL     1     105.229 122.828  81.375  0.00  0.00    +0.000 A 
ATOM     15  C   UNL     1     104.195 123.740  81.603  0.00  0.00    +0.000 A 
ATOM     16  F   UNL     1     107.073 122.142  80.076  0.00  0.00    +0.000 F 
ENDBRANCH   2  10
TORSDOF 2
ENDMDL
