MODEL 1
REMARK VINA RESULT:      -4.0      0.000      0.000
REMARK  Name = *****
REMARK  3 active torsions:
REMARK  status: ('A' for Active; 'I' for Inactive)
REMARK    1  A    between atoms: C_1  and  P_2
REMARK    2  A    between atoms: P_2  and  C_3
REMARK    3  A    between atoms: P_2  and  C_9
REMARK                            x       y       z     vdW  Elec       q    Type
REMARK                         _______ _______ _______ _____ _____    ______ ____
ROOT
ATOM      1  C   UNL     1     103.365 127.076  84.816  0.00  0.00    +0.000 C 
ATOM      2  P   UNL     1     102.133 125.980  84.019  0.00  0.00    +0.000 P 
ENDROOT
BRANCH   2   3
ATOM      3  C   UNL     1     100.613 127.060  84.054  0.00  0.00    +0.000 C 
ATOM      4  C   UNL     1      99.840 126.935  82.727  0.00  0.00    +0.000 C 
ATOM      5  C   UNL     1      98.613 127.846  82.698  0.00  0.00    +0.000 C 
ATOM      6  C   UNL     1      98.983 129.299  82.968  0.00  0.00    +0.000 C 
ATOM      7  C   UNL     1      99.752 129.439  84.277  0.00  0.00    +0.000 C 
ATOM      8  C   UNL     1     100.980 128.532  84.312  0.00  0.00    +0.000 C 
ENDBRANCH   2   3
BRANCH   2   9
ATOM      9  C   UNL     1     102.657 126.003  82.234  0.00  0.00    +0.000 C 
ATOM     10  C   UNL     1     103.623 124.838  81.947  0.00  0.00    +0.000 C 
ATOM     11  C   UNL     1     104.005 124.772  80.469  0.00  0.00    +0.000 C 
ATOM     12  C   UNL     1     104.579 126.096  79.977  0.00  0.00    +0.000 C 
ATOM     13  C   UNL     1     103.629 127.255  80.260  0.00  0.00    +0.000 C 
ATOM     14  C   UNL     1     103.251 127.328  81.739  0.00  0.00    +0.000 C 
ENDBRANCH   2   9
TORSDOF 2
ENDMDL
