REMARK  Name = *****
REMARK  3 active torsions:
REMARK  status: ('A' for Active; 'I' for Inactive)
REMARK    1  A    between atoms: C_4  and  C_7
REMARK    2  A    between atoms: C_7  and  C_8
REMARK    3  A    between atoms: C_8  and  C_10
REMARK                            x       y       z     vdW  Elec       q    Type
REMARK                         _______ _______ _______ _____ _____    ______ ____
ROOT
ATOM      1  C   UNL     1      -3.860  -0.553  -0.327  0.00  0.00    +0.000 C 
ATOM      2  O   UNL     1      -4.362  -0.961  -1.376  0.00  0.00    +0.000 OA
ENDROOT
BRANCH   1   3
ATOM      3  C   UNL     1      -4.254  -1.203   0.961  0.00  0.00    +0.000 A 
ATOM      4  C   UNL     1      -3.806  -0.751   2.205  0.00  0.00    +0.000 A 
ATOM      5  C   UNL     1      -4.217  -1.406   3.364  0.00  0.00    +0.000 A 
ATOM      6  C   UNL     1      -5.066  -2.503   3.316  0.00  0.00    +0.000 A 
ATOM      7  C   UNL     1      -5.514  -2.952   2.079  0.00  0.00    +0.000 A 
ATOM      8  C   UNL     1      -5.115  -2.311   0.906  0.00  0.00    +0.000 A 
ATOM      9 CL   UNL     1      -6.569  -4.308   1.997  0.00  0.00    +0.000 Cl
ATOM     10  F   UNL     1      -3.784  -0.963   4.551  0.00  0.00    +0.000 F 
ENDBRANCH   1   3
BRANCH   1  11
ATOM     11  C   UNL     1      -2.858   0.586  -0.336  0.00  0.00    +0.000 C 
BRANCH  11  15
ATOM     12  C   UNL     1       1.225  -0.624   0.363  0.00  0.00    +0.000 A 
ATOM     13  C   UNL     1       0.449  -1.303  -0.573  0.00  0.00    +0.000 A 
ATOM     14  C   UNL     1      -0.872  -0.915  -0.801  0.00  0.00    +0.000 A 
ATOM     15  C   UNL     1      -1.435   0.151  -0.083  0.00  0.00    +0.000 A 
ATOM     16  C   UNL     1      -0.637   0.841   0.840  0.00  0.00    +0.000 A 
ATOM     17  C   UNL     1       0.684   0.450   1.066  0.00  0.00    +0.000 A 
ENDBRANCH  11  15
ENDBRANCH   1  11
TORSDOF 3
