MODEL 1
REMARK VINA RESULT:      -3.5      0.000      0.000
REMARK  Name = *****
REMARK  5 active torsions:
REMARK  status: ('A' for Active; 'I' for Inactive)
REMARK    1  A    between atoms: C_4  and  C_7
REMARK    2  A    between atoms: C_7  and  O_8
REMARK    3  A    between atoms: O_8  and  C_9
REMARK    4  A    between atoms: C_9  and  O_11
REMARK    5  A    between atoms: O_11  and  C_12
REMARK                            x       y       z     vdW  Elec       q    Type
REMARK                         _______ _______ _______ _____ _____    ______ ____
ROOT
ATOM      1  C   UNL     1      89.746  69.351  83.101  0.00  0.00    +0.000 C 
ATOM      2  O   UNL     1      88.988  69.794  82.250  0.00  0.00    +0.000 OA
ENDROOT
BRANCH   1   3
ATOM      3  O   UNL     1      90.500  70.094  83.953  0.00  0.00    +0.000 OA
BRANCH   3   4
ATOM      4  C   UNL     1      89.885  71.295  84.424  0.00  0.00    +0.000 C 
BRANCH   4   8
ATOM      5  C   UNL     1      87.525  70.389  87.915  0.00  0.00    +0.000 A 
ATOM      6  C   UNL     1      88.907  70.211  87.942  0.00  0.00    +0.000 A 
ATOM      7  C   UNL     1      89.672  70.507  86.814  0.00  0.00    +0.000 A 
ATOM      8  C   UNL     1      89.061  70.995  85.650  0.00  0.00    +0.000 A 
ATOM      9  C   UNL     1      87.670  71.158  85.629  0.00  0.00    +0.000 A 
ATOM     10  C   UNL     1      86.907  70.860  86.759  0.00  0.00    +0.000 A 
ENDBRANCH   4   8
ENDBRANCH   3   4
ENDBRANCH   1   3
BRANCH   1  11
ATOM     11  O   UNL     1      90.002  68.017  83.372  0.00  0.00    +0.000 OA
BRANCH  11  12
ATOM     12  C   UNL     1      89.385  67.536  84.530  0.00  0.00    +0.000 A 
ATOM     13  C   UNL     1      90.198  67.046  85.550  0.00  0.00    +0.000 A 
ATOM     14  C   UNL     1      89.613  66.609  86.737  0.00  0.00    +0.000 A 
ATOM     15  C   UNL     1      88.228  66.679  86.900  0.00  0.00    +0.000 A 
ATOM     16  C   UNL     1      87.424  67.193  85.879  0.00  0.00    +0.000 A 
ATOM     17  C   UNL     1      88.004  67.633  84.689  0.00  0.00    +0.000 A 
ENDBRANCH  11  12
ENDBRANCH   1  11
TORSDOF 5
ENDMDL
