MODEL 1
REMARK VINA RESULT:      -4.2      0.000      0.000
REMARK  Name = *****
REMARK  3 active torsions:
REMARK  status: ('A' for Active; 'I' for Inactive)
REMARK    1  A    between atoms: C_4  and  C_5
REMARK    2  A    between atoms: C_5  and  C_6
REMARK    3  A    between atoms: C_6  and  C_7
REMARK                            x       y       z     vdW  Elec       q    Type
REMARK                         _______ _______ _______ _____ _____    ______ ____
ROOT
ATOM      1  C   UNL     1      86.351  66.659  89.058  0.00  0.00    +0.000 C 
ATOM      2  C   UNL     1      86.676  67.404  87.768  0.00  0.00    +0.000 C 
ATOM      3  C   UNL     1      87.989  66.811  87.332  0.00  0.00    +0.000 C 
ATOM      4  C   UNL     1      88.935  67.393  86.577  0.00  0.00    +0.000 C 
ATOM      5 CL   UNL     1      90.435  66.605  86.192  0.00  0.00    +0.000 Cl
ATOM      6  C   UNL     1      88.025  65.438  87.940  0.00  0.00    +0.000 C 
ATOM      7  O   UNL     1      88.845  64.569  87.695  0.00  0.00    +0.000 OA
ATOM      8  C   UNL     1      86.846  65.236  88.849  0.00  0.00    +0.000 C 
ENDROOT
BRANCH   4   9
ATOM      9  C   UNL     1      88.835  68.784  85.997  0.00  0.00    +0.000 C 
BRANCH   9  10
ATOM     10  C   UNL     1      89.411  69.838  86.948  0.00  0.00    +0.000 C 
BRANCH  10  11
ATOM     11  C   UNL     1      88.330  70.474  87.788  0.00  0.00    +0.000 A 
ATOM     12  C   UNL     1      88.476  70.566  89.179  0.00  0.00    +0.000 A 
ATOM     13  C   UNL     1      87.469  71.137  89.959  0.00  0.00    +0.000 A 
ATOM     14  C   UNL     1      86.307  71.616  89.357  0.00  0.00    +0.000 A 
ATOM     15  C   UNL     1      86.150  71.523  87.975  0.00  0.00    +0.000 A 
ATOM     16  C   UNL     1      87.155  70.954  87.193  0.00  0.00    +0.000 A 
ENDBRANCH  10  11
ENDBRANCH   9  10
ENDBRANCH   4   9
TORSDOF 3
ENDMDL
