MODEL 1
REMARK VINA RESULT:      -3.9      0.000      0.000
REMARK  Name = *****
REMARK  3 active torsions:
REMARK  status: ('A' for Active; 'I' for Inactive)
REMARK    1  A    between atoms: C_4  and  C_6
REMARK    2  A    between atoms: C_6  and  S_8
REMARK    3  A    between atoms: S_8  and  C_9
REMARK                            x       y       z     vdW  Elec       q    Type
REMARK                         _______ _______ _______ _____ _____    ______ ____
ROOT
ATOM      1  S   UNL     1     103.496 128.043  81.958  0.00  0.00    +0.000 S 
ENDROOT
BRANCH   1   2
ATOM      2  C   UNL     1     103.887 126.329  81.687  0.00  0.00    +0.000 A 
ATOM      3  C   UNL     1     103.944 125.438  82.765  0.00  0.00    +0.000 A 
ATOM      4  C   UNL     1     104.229 124.086  82.548  0.00  0.00    +0.000 A 
ATOM      5  C   UNL     1     104.451 123.626  81.252  0.00  0.00    +0.000 A 
ATOM      6  C   UNL     1     104.387 124.502  80.170  0.00  0.00    +0.000 A 
ATOM      7  C   UNL     1     104.101 125.853  80.389  0.00  0.00    +0.000 A 
ATOM      8 BR   UNL     1     104.837 121.799  80.958  0.00  0.00    +0.000 Br
ENDBRANCH   1   2
BRANCH   1   9
ATOM      9  C   UNL     1     102.457 127.954  83.393  0.00  0.00    +0.000 C 
ATOM     10  O   UNL     1     102.924 128.099  84.517  0.00  0.00    +0.000 OA
BRANCH   9  14
ATOM     11  C   UNL     1      99.001 126.813  82.376  0.00  0.00    +0.000 A 
ATOM     12  C   UNL     1      98.589 127.993  82.948  0.00  0.00    +0.000 A 
ATOM     13  S   UNL     1      99.897 128.889  83.578  0.00  0.00    +0.000 S 
ATOM     14  C   UNL     1     101.051 127.705  83.092  0.00  0.00    +0.000 A 
ATOM     15  C   UNL     1     100.416 126.645  82.458  0.00  0.00    +0.000 A 
ENDBRANCH   9  14
ENDBRANCH   1   9
TORSDOF 3
ENDMDL
