MODEL 1
REMARK VINA RESULT:      -4.5      0.000      0.000
REMARK  Name = *****
REMARK  4 active torsions:
REMARK  status: ('A' for Active; 'I' for Inactive)
REMARK    1  A    between atoms: C_4  and  S_7
REMARK    2  A    between atoms: S_7  and  C_8
REMARK    3  A    between atoms: C_8  and  C_10
REMARK    4  A    between atoms: C_13  and  C_16
REMARK                            x       y       z     vdW  Elec       q    Type
REMARK                         _______ _______ _______ _____ _____    ______ ____
ROOT
ATOM      1  C   UNL     1     103.434 126.911  81.517  0.00  0.00    +0.000 C 
ATOM      2  O   UNL     1     103.328 127.527  80.463  0.00  0.00    +0.000 OA
ENDROOT
BRANCH   1   3
ATOM      3  C   UNL     1     103.882 125.487  81.503  0.00  0.00    +0.000 A 
ATOM      4  C   UNL     1     104.317 124.825  80.345  0.00  0.00    +0.000 A 
ATOM      5  C   UNL     1     104.728 123.488  80.407  0.00  0.00    +0.000 A 
ATOM      6  C   UNL     1     104.708 122.798  81.623  0.00  0.00    +0.000 A 
ATOM      7  C   UNL     1     104.265 123.448  82.778  0.00  0.00    +0.000 A 
ATOM      8  C   UNL     1     103.851 124.783  82.717  0.00  0.00    +0.000 A 
BRANCH   6   9
ATOM      9  C   UNL     1     105.137 121.430  81.683  0.00  0.00    +0.000 C 
ATOM     10  N   UNL     1     105.482 120.323  81.730  0.00  0.00    +0.000 NA
ENDBRANCH   6   9
ENDBRANCH   1   3
BRANCH   1  11
ATOM     11  S   UNL     1     103.038 127.621  83.078  0.00  0.00    +0.000 S 
BRANCH  11  15
ATOM     12  C   UNL     1      98.462 127.902  82.876  0.00  0.00    +0.000 A 
ATOM     13  C   UNL     1      99.184 128.948  83.448  0.00  0.00    +0.000 A 
ATOM     14  C   UNL     1     100.578 128.875  83.529  0.00  0.00    +0.000 A 
ATOM     15  C   UNL     1     101.259 127.748  83.056  0.00  0.00    +0.000 A 
ATOM     16  C   UNL     1     100.524 126.708  82.474  0.00  0.00    +0.000 A 
ATOM     17  C   UNL     1      99.131 126.783  82.386  0.00  0.00    +0.000 A 
ENDBRANCH  11  15
ENDBRANCH   1  11
TORSDOF 4
ENDMDL
