MODEL 1
REMARK VINA RESULT:      -4.4      0.000      0.000
REMARK  Name = *****
REMARK  3 active torsions:
REMARK  status: ('A' for Active; 'I' for Inactive)
REMARK    1  A    between atoms: C_4  and  C_7
REMARK    2  A    between atoms: C_7  and  S_8
REMARK    3  A    between atoms: S_8  and  C_9
REMARK                            x       y       z     vdW  Elec       q    Type
REMARK                         _______ _______ _______ _____ _____    ______ ____
ROOT
ATOM      1  S   UNL     1     103.616 127.894  81.810  0.00  0.00    +0.000 S 
ENDROOT
BRANCH   1   2
ATOM      2  C   UNL     1     103.974 126.170  81.527  0.00  0.00    +0.000 A 
ATOM      3  C   UNL     1     104.347 125.759  80.243  0.00  0.00    +0.000 A 
ATOM      4  C   UNL     1     104.644 124.417  79.988  0.00  0.00    +0.000 A 
ATOM      5  C   UNL     1     104.578 123.486  81.021  0.00  0.00    +0.000 A 
ATOM      6  C   UNL     1     104.222 123.887  82.308  0.00  0.00    +0.000 A 
ATOM      7  C   UNL     1     103.925 125.229  82.561  0.00  0.00    +0.000 A 
ATOM      8 CL   UNL     1     104.943 121.835  80.711  0.00  0.00    +0.000 Cl
ENDBRANCH   1   2
BRANCH   1   9
ATOM      9  C   UNL     1     102.725 127.777  83.397  0.00  0.00    +0.000 C 
BRANCH   9  13
ATOM     10  C   UNL     1      98.456 127.950  82.797  0.00  0.00    +0.000 A 
ATOM     11  C   UNL     1      99.172 126.828  82.387  0.00  0.00    +0.000 A 
ATOM     12  C   UNL     1     100.554 126.771  82.581  0.00  0.00    +0.000 A 
ATOM     13  C   UNL     1     101.231 127.835  83.194  0.00  0.00    +0.000 A 
ATOM     14  C   UNL     1     100.500 128.962  83.595  0.00  0.00    +0.000 A 
ATOM     15  C   UNL     1      99.119 129.018  83.399  0.00  0.00    +0.000 A 
ENDBRANCH   9  13
ENDBRANCH   1   9
TORSDOF 3
ENDMDL
