MODEL 1
REMARK VINA RESULT:      -4.7      0.000      0.000
REMARK  Name = *****
REMARK  4 active torsions:
REMARK  status: ('A' for Active; 'I' for Inactive)
REMARK    1  A    between atoms: C_4  and  C_7
REMARK    2  A    between atoms: C_4  and  C_16
REMARK    3  A    between atoms: C_7  and  C_8
REMARK    4  A    between atoms: C_9  and  C_10
REMARK                            x       y       z     vdW  Elec       q    Type
REMARK                         _______ _______ _______ _____ _____    ______ ____
ROOT
ATOM      1  C   UNL     1     100.300 127.665  84.590  0.00  0.00    +0.000 C 
ENDROOT
BRANCH   1   5
ATOM      2  C   UNL     1      98.817 131.100  85.208  0.00  0.00    +0.000 C 
ATOM      3  C   UNL     1      98.569 129.896  86.110  0.00  0.00    +0.000 C 
ATOM      4  C   UNL     1      98.039 128.705  85.316  0.00  0.00    +0.000 C 
ATOM      5  C   UNL     1      98.957 128.301  84.142  0.00  0.00    +0.000 C 
ATOM      6  C   UNL     1      99.225 129.544  83.257  0.00  0.00    +0.000 C 
ATOM      7  C   UNL     1      99.733 130.753  84.041  0.00  0.00    +0.000 C 
BRANCH   5   8
ATOM      8  C   UNL     1      98.216 127.255  83.310  0.00  0.00    +0.000 C 
ATOM      9  O   UNL     1      98.188 127.237  82.082  0.00  0.00    +0.000 OA
ENDBRANCH   5   8
ENDBRANCH   1   5
BRANCH   1  10
ATOM     10  C   UNL     1     101.323 127.495  83.497  0.00  0.00    +0.000 C 
ATOM     11  C   UNL     1     101.710 126.300  83.023  0.00  0.00    +0.000 C 
BRANCH  11  12
ATOM     12  C   UNL     1     102.715 126.170  81.967  0.00  0.00    +0.000 A 
ATOM     13  C   UNL     1     103.336 124.935  81.757  0.00  0.00    +0.000 A 
ATOM     14  C   UNL     1     104.296 124.791  80.751  0.00  0.00    +0.000 A 
ATOM     15  C   UNL     1     104.630 125.878  79.946  0.00  0.00    +0.000 A 
ATOM     16  C   UNL     1     104.007 127.110  80.143  0.00  0.00    +0.000 A 
ATOM     17  C   UNL     1     103.053 127.256  81.151  0.00  0.00    +0.000 A 
ENDBRANCH  11  12
ENDBRANCH   1  10
TORSDOF 4
ENDMDL
