MODEL 1
REMARK VINA RESULT:      -4.2      0.000      0.000
REMARK  Name = *****
REMARK  7 active torsions:
REMARK  status: ('A' for Active; 'I' for Inactive)
REMARK    1  A    between atoms: C_1  and  C_2
REMARK    2  A    between atoms: C_4  and  C_18
REMARK    3  A    between atoms: C_5  and  N_9
REMARK    4  A    between atoms: C_6  and  C_8
REMARK    5  A    between atoms: C_10  and  C_11
REMARK    6  A    between atoms: C_10  and  O_16
REMARK    7  A    between atoms: O_16  and  C_17
REMARK                            x       y       z     vdW  Elec       q    Type
REMARK                         _______ _______ _______ _____ _____    ______ ____
ROOT
ATOM      1  C   UNL     1      84.234  72.445  87.160  0.00  0.00    +0.000 C 
ATOM      2  C   UNL     1      85.324  71.415  87.174  0.00  0.00    +0.000 A 
ATOM      3  C   UNL     1      85.248  70.288  86.351  0.00  0.00    +0.000 A 
ATOM      4  C   UNL     1      86.251  69.308  86.378  0.00  0.00    +0.000 A 
ATOM      5  C   UNL     1      87.359  69.462  87.236  0.00  0.00    +0.000 A 
ATOM      6  C   UNL     1      87.404  70.558  88.121  0.00  0.00    +0.000 A 
ATOM      7  C   UNL     1      86.395  71.534  88.064  0.00  0.00    +0.000 A 
ATOM      8  C   UNL     1      88.529  70.733  89.104  0.00  0.00    +0.000 C 
ATOM      9  C   UNL     1      86.138  68.104  85.482  0.00  0.00    +0.000 C 
ENDROOT
BRANCH   5  10
ATOM     10  N   UNL     1      88.355  68.474  87.250  0.00  0.00    +0.000 NA
ATOM     11  C   UNL     1      89.375  68.521  86.449  0.00  0.00    +0.000 C 
BRANCH  11  12
ATOM     12  C   UNL     1      89.680  69.484  85.401  0.00  0.00    +0.000 A 
ATOM     13  C   UNL     1      90.047  70.814  85.500  0.00  0.00    +0.000 A 
ATOM     14  C   UNL     1      90.283  71.424  84.233  0.00  0.00    +0.000 A 
ATOM     15  C   UNL     1      90.086  70.544  83.196  0.00  0.00    +0.000 A 
ATOM     16  S   UNL     1      89.620  68.998  83.750  0.00  0.00    +0.000 S 
ENDBRANCH  11  12
BRANCH  11  17
ATOM     17  O   UNL     1      90.344  67.560  86.513  0.00  0.00    +0.000 OA
ATOM     18  C   UNL     1      89.913  66.207  86.338  0.00  0.00    +0.000 C 
ENDBRANCH  11  17
ENDBRANCH   5  10
TORSDOF 3
ENDMDL
