REMARK  Name = *****
REMARK  5 active torsions:
REMARK  status: ('A' for Active; 'I' for Inactive)
REMARK    1  A    between atoms: C_1  and  C_2
REMARK    2  A    between atoms: C_5  and  C_8
REMARK    3  A    between atoms: C_9  and  C_10
REMARK    4  A    between atoms: N_15  and  C_16
REMARK    5  A    between atoms: N_15  and  C_17
REMARK                            x       y       z     vdW  Elec       q    Type
REMARK                         _______ _______ _______ _____ _____    ______ ____
ROOT
ATOM      1  C   UNL     1      -3.367   0.094   0.055  0.00  0.00    +0.000 C 
ATOM      2  C   UNL     1      -4.125   1.186  -0.143  0.00  0.00    +0.000 C 
ENDROOT
BRANCH   2   3
ATOM      3  C   UNL     1      -5.552   1.203  -0.099  0.00  0.00    +0.000 A 
ATOM      4  C   UNL     1      -6.322   2.321  -0.315  0.00  0.00    +0.000 A 
ATOM      5  S   UNL     1      -7.974   1.910  -0.162  0.00  0.00    +0.000 S 
ATOM      6  C   UNL     1      -7.549   0.258   0.176  0.00  0.00    +0.000 A 
ATOM      7  N   UNL     1      -6.248   0.046   0.178  0.00  0.00    +0.000 NA
ATOM      8  N   UNL     1      -8.470  -0.723   0.440  0.00  0.00    +0.000 N 
ATOM      9  C   UNL     1      -9.835  -0.590  -0.047  0.00  0.00    +0.000 C 
ATOM     10  C   UNL     1      -7.952  -2.085   0.516  0.00  0.00    +0.000 C 
ENDBRANCH   2   3
BRANCH   1  15
ATOM     11  C   UNL     1       2.414  -0.098  -0.125  0.00  0.00    +0.000 C 
ATOM     12  C   UNL     1       0.917  -0.020  -0.103  0.00  0.00    +0.000 A 
ATOM     13  C   UNL     1       0.269   1.048   0.528  0.00  0.00    +0.000 A 
ATOM     14  C   UNL     1      -1.128   1.101   0.577  0.00  0.00    +0.000 A 
ATOM     15  C   UNL     1      -1.901   0.088  -0.003  0.00  0.00    +0.000 A 
ATOM     16  C   UNL     1      -1.250  -0.995  -0.604  0.00  0.00    +0.000 A 
ATOM     17  C   UNL     1       0.146  -1.049  -0.655  0.00  0.00    +0.000 A 
ENDBRANCH   1  15
TORSDOF 2
