MODEL 1
REMARK VINA RESULT:      -4.6      0.000      0.000
REMARK  Name = *****
REMARK  3 active torsions:
REMARK  status: ('A' for Active; 'I' for Inactive)
REMARK    1  A    between atoms: C_4  and  N_7
REMARK    2  A    between atoms: N_7  and  S_8
REMARK    3  A    between atoms: S_8  and  C_10
REMARK                            x       y       z     vdW  Elec       q    Type
REMARK                         _______ _______ _______ _____ _____    ______ ____
ROOT
ATOM      1  S   UNL     1     103.073 125.620  83.328  0.00  0.00    +0.000 S 
ATOM      2  O   UNL     1     103.016 124.520  84.343  0.00  0.00    +0.000 OA
ENDROOT
BRANCH   1   3
ATOM      3  C   UNL     1     103.936 124.946  81.884  0.00  0.00    +0.000 A 
ATOM      4  C   UNL     1     104.338 123.601  81.888  0.00  0.00    +0.000 A 
ATOM      5  C   UNL     1     105.019 123.055  80.798  0.00  0.00    +0.000 A 
ATOM      6  C   UNL     1     105.307 123.848  79.691  0.00  0.00    +0.000 A 
ATOM      7  C   UNL     1     104.917 125.186  79.673  0.00  0.00    +0.000 A 
ATOM      8  C   UNL     1     104.235 125.737  80.764  0.00  0.00    +0.000 A 
ATOM      9 CL   UNL     1     103.775 127.401  80.656  0.00  0.00    +0.000 Cl
ENDBRANCH   1   3
BRANCH   1  10
ATOM     10  N   UNL     1     101.609 125.763  82.524  0.00  0.00    +0.000 N 
ATOM     11  H   UNL     1     101.379 125.094  81.838  0.00  0.00    +0.000 HD
BRANCH  10  15
ATOM     12  C   UNL     1      98.998 129.018  83.265  0.00  0.00    +0.000 A 
ATOM     13  C   UNL     1      98.500 127.872  82.652  0.00  0.00    +0.000 A 
ATOM     14  C   UNL     1      99.342 126.782  82.407  0.00  0.00    +0.000 A 
ATOM     15  C   UNL     1     100.690 126.805  82.789  0.00  0.00    +0.000 A 
ATOM     16  C   UNL     1     101.180 127.988  83.371  0.00  0.00    +0.000 A 
ATOM     17  C   UNL     1     100.342 129.079  83.619  0.00  0.00    +0.000 A 
ENDBRANCH  10  15
ENDBRANCH   1  10
TORSDOF 3
ENDMDL
