MODEL 1
REMARK VINA RESULT:      -4.7      0.000      0.000
REMARK  Name = *****
REMARK  4 active torsions:
REMARK  status: ('A' for Active; 'I' for Inactive)
REMARK    1  A    between atoms: C_1  and  C_2
REMARK    2  A    between atoms: C_2  and  C_3
REMARK    3  A    between atoms: C_2  and  C_11
REMARK    4  A    between atoms: C_4  and  C_5
REMARK                            x       y       z     vdW  Elec       q    Type
REMARK                         _______ _______ _______ _____ _____    ______ ____
ROOT
ATOM      1  C   UNL     1      86.086  67.669  89.157  0.00  0.00    +0.000 C 
ATOM      2  C   UNL     1      86.854  68.572  88.183  0.00  0.00    +0.000 C 
ENDROOT
BRANCH   2   3
ATOM      3  C   UNL     1      87.978  67.844  87.460  0.00  0.00    +0.000 A 
ATOM      4  C   UNL     1      88.980  68.592  86.817  0.00  0.00    +0.000 A 
ATOM      5  C   UNL     1      90.034  67.957  86.157  0.00  0.00    +0.000 A 
ATOM      6  C   UNL     1      90.109  66.567  86.137  0.00  0.00    +0.000 A 
ATOM      7  C   UNL     1      89.132  65.811  86.780  0.00  0.00    +0.000 A 
ATOM      8  C   UNL     1      88.076  66.444  87.441  0.00  0.00    +0.000 A 
ENDBRANCH   2   3
BRANCH   2   9
ATOM      9  C   UNL     1      87.381  69.792  88.912  0.00  0.00    +0.000 C 
ATOM     10  C   UNL     1      87.070  71.077  88.676  0.00  0.00    +0.000 C 
BRANCH  10  11
ATOM     11  C   UNL     1      86.145  71.529  87.637  0.00  0.00    +0.000 A 
ATOM     12  C   UNL     1      86.497  71.429  86.287  0.00  0.00    +0.000 A 
ATOM     13  C   UNL     1      85.616  71.874  85.299  0.00  0.00    +0.000 A 
ATOM     14  C   UNL     1      84.384  72.420  85.657  0.00  0.00    +0.000 A 
ATOM     15  C   UNL     1      84.030  72.522  87.003  0.00  0.00    +0.000 A 
ATOM     16  C   UNL     1      84.910  72.079  87.992  0.00  0.00    +0.000 A 
ENDBRANCH  10  11
ENDBRANCH   2   9
TORSDOF 3
ENDMDL
