MODEL 1
REMARK VINA RESULT:      -4.3      0.000      0.000
REMARK  Name = *****
REMARK  4 active torsions:
REMARK  status: ('A' for Active; 'I' for Inactive)
REMARK    1  A    between atoms: C_4  and  C_7
REMARK    2  A    between atoms: C_7  and  C_8
REMARK    3  A    between atoms: C_9  and  S_10
REMARK    4  A    between atoms: S_10  and  C_11
REMARK                            x       y       z     vdW  Elec       q    Type
REMARK                         _______ _______ _______ _____ _____    ______ ____
ROOT
ATOM      1  C   UNL     1      87.182  71.640  84.062  0.00  0.00    +0.000 C 
ATOM      2  C   UNL     1      88.225  72.475  83.948  0.00  0.00    +0.000 C 
ENDROOT
BRANCH   1   3
ATOM      3  C   UNL     1      85.766  72.098  84.264  0.00  0.00    +0.000 C 
BRANCH   3   7
ATOM      4  C   UNL     1      84.636  72.078  88.428  0.00  0.00    +0.000 A 
ATOM      5  C   UNL     1      83.786  72.641  87.478  0.00  0.00    +0.000 A 
ATOM      6  C   UNL     1      84.147  72.646  86.130  0.00  0.00    +0.000 A 
ATOM      7  C   UNL     1      85.361  72.080  85.718  0.00  0.00    +0.000 A 
ATOM      8  C   UNL     1      86.214  71.524  86.684  0.00  0.00    +0.000 A 
ATOM      9  C   UNL     1      85.850  71.521  88.031  0.00  0.00    +0.000 A 
ENDBRANCH   3   7
ENDBRANCH   1   3
BRANCH   2  10
ATOM     10  S   UNL     1      89.834  71.874  83.721  0.00  0.00    +0.000 S 
BRANCH  10  11
ATOM     11  C   UNL     1      89.776  70.485  84.837  0.00  0.00    +0.000 A 
ATOM     12  C   UNL     1      89.850  69.180  84.339  0.00  0.00    +0.000 A 
ATOM     13  C   UNL     1      89.808  68.092  85.212  0.00  0.00    +0.000 A 
ATOM     14  C   UNL     1      89.696  68.303  86.586  0.00  0.00    +0.000 A 
ATOM     15  C   UNL     1      89.629  69.602  87.089  0.00  0.00    +0.000 A 
ATOM     16  C   UNL     1      89.671  70.691  86.216  0.00  0.00    +0.000 A 
ENDBRANCH  10  11
ENDBRANCH   2  10
TORSDOF 4
ENDMDL
