MODEL 1
REMARK VINA RESULT:      -4.0      0.000      0.000
REMARK  Name = *****
REMARK  3 active torsions:
REMARK  status: ('A' for Active; 'I' for Inactive)
REMARK    1  A    between atoms: C_1  and  C_2
REMARK    2  A    between atoms: C_5  and  C_8
REMARK    3  A    between atoms: C_9  and  C_10
REMARK                            x       y       z     vdW  Elec       q    Type
REMARK                         _______ _______ _______ _____ _____    ______ ____
ROOT
ATOM      1  C   UNL     1      99.246 129.505  83.957  0.00  0.00    +0.000 C 
ATOM      2  C   UNL     1     100.235 128.494  83.458  0.00  0.00    +0.000 A 
ATOM      3  C   UNL     1     101.610 128.740  83.549  0.00  0.00    +0.000 A 
ATOM      4  C   UNL     1     102.531 127.811  83.054  0.00  0.00    +0.000 A 
ATOM      5  C   UNL     1     102.094 126.621  82.459  0.00  0.00    +0.000 A 
ATOM      6  C   UNL     1     100.718 126.393  82.341  0.00  0.00    +0.000 A 
ATOM      7  C   UNL     1      99.797 127.320  82.837  0.00  0.00    +0.000 A 
ENDROOT
BRANCH   5   8
ATOM      8  C   UNL     1     103.030 125.639  81.898  0.00  0.00    +0.000 C 
ATOM      9  C   UNL     1     103.451 125.650  80.621  0.00  0.00    +0.000 C 
BRANCH   9  10
ATOM     10  C   UNL     1     104.408 124.649  80.049  0.00  0.00    +0.000 C 
ATOM     11  S   UNL     1     104.670 123.316  81.257  0.00  0.00    +0.000 S 
ATOM     12  C   UNL     1     106.480 123.345  81.226  0.00  0.00    +0.000 C 
ATOM     13  C   UNL     1     106.917 124.786  81.058  0.00  0.00    +0.000 C 
ATOM     14  S   UNL     1     105.983 125.474  79.671  0.00  0.00    +0.000 S 
ENDBRANCH   9  10
ENDBRANCH   5   8
TORSDOF 2
ENDMDL
