REMARK  Name = *****
REMARK  1 active torsions:
REMARK  status: ('A' for Active; 'I' for Inactive)
REMARK    1  A    between atoms: N_9  and  C_10
REMARK                            x       y       z     vdW  Elec       q    Type
REMARK                         _______ _______ _______ _____ _____    ______ ____
ROOT
ATOM      1  C   UNL     1      -1.015   1.203  -0.279  0.00  0.00    +0.000 C 
ATOM      2  C   UNL     1      -1.645  -0.025   0.380  0.00  0.00    +0.000 C 
ATOM      3  C   UNL     1      -0.944  -1.350   0.085  0.00  0.00    +0.000 C 
ATOM      4  C   UNL     1       0.536  -1.363   0.456  0.00  0.00    +0.000 C 
ATOM      5  N   UNL     1       1.311  -0.663  -0.559  0.00  0.00    +0.000 N 
ATOM      6  C   UNL     1       1.509   0.781  -0.443  0.00  0.00    +0.000 C 
ATOM      7  C   UNL     1       0.377   1.528   0.261  0.00  0.00    +0.000 C 
ATOM      8  C   UNL     1       1.964  -1.361  -1.552  0.00  0.00    +0.000 C 
ATOM      9  N   UNL     1       2.753  -0.861  -2.446  0.00  0.00    +0.000 NA
ENDROOT
BRANCH   9  10
ATOM     10  C   UNL     1       3.300  -1.770  -3.359  0.00  0.00    +0.000 A 
ATOM     11  C   UNL     1       2.590  -2.139  -4.506  0.00  0.00    +0.000 A 
ATOM     12  C   UNL     1       3.146  -3.032  -5.425  0.00  0.00    +0.000 A 
ATOM     13  C   UNL     1       4.421  -3.549  -5.200  0.00  0.00    +0.000 A 
ATOM     14  C   UNL     1       5.145  -3.175  -4.068  0.00  0.00    +0.000 A 
ATOM     15  C   UNL     1       4.583  -2.282  -3.152  0.00  0.00    +0.000 A 
ATOM     16 CL   UNL     1       5.110  -4.649  -6.329  0.00  0.00    +0.000 Cl
ENDBRANCH   9  10
TORSDOF 1
