MODEL 1
REMARK VINA RESULT:      -5.0      0.000      0.000
REMARK  Name = *****
REMARK  1 active torsions:
REMARK  status: ('A' for Active; 'I' for Inactive)
REMARK    1  A    between atoms: N_3  and  C_11
REMARK                            x       y       z     vdW  Elec       q    Type
REMARK                         _______ _______ _______ _____ _____    ______ ____
ROOT
ATOM      1  C   UNL     1     102.773 128.239  83.469  0.00  0.00    +0.000 C 
ATOM      2  C   UNL     1     103.387 126.855  83.688  0.00  0.00    +0.000 C 
ATOM      3  N   UNL     1     102.823 125.845  82.724  0.00  0.00    +0.000 N 
ATOM      4  C   UNL     1     101.605 125.946  82.291  0.00  0.00    +0.000 C 
ATOM      5  C   UNL     1     100.721 127.053  82.686  0.00  0.00    +0.000 A 
ATOM      6  C   UNL     1      99.350 126.977  82.436  0.00  0.00    +0.000 A 
ATOM      7  C   UNL     1      98.531 128.039  82.814  0.00  0.00    +0.000 A 
ATOM      8  C   UNL     1      99.083 129.165  83.427  0.00  0.00    +0.000 A 
ATOM      9  C   UNL     1     100.457 129.240  83.665  0.00  0.00    +0.000 A 
ATOM     10  C   UNL     1     101.284 128.174  83.304  0.00  0.00    +0.000 A 
ENDROOT
BRANCH   3  11
ATOM     11  C   UNL     1     103.669 124.759  82.285  0.00  0.00    +0.000 A 
ATOM     12  C   UNL     1     104.173 123.824  83.213  0.00  0.00    +0.000 A 
ATOM     13  C   UNL     1     104.995 122.762  82.804  0.00  0.00    +0.000 A 
ATOM     14  C   UNL     1     105.327 122.611  81.465  0.00  0.00    +0.000 A 
ATOM     15  C   UNL     1     104.842 123.516  80.528  0.00  0.00    +0.000 A 
ATOM     16  C   UNL     1     104.020 124.579  80.932  0.00  0.00    +0.000 A 
ATOM     17 CL   UNL     1     106.331 121.311  80.968  0.00  0.00    +0.000 Cl
ENDBRANCH   3  11
TORSDOF 1
ENDMDL
