MODEL 1
REMARK VINA RESULT:      -4.8      0.000      0.000
REMARK  Name = *****
REMARK  2 active torsions:
REMARK  status: ('A' for Active; 'I' for Inactive)
REMARK    1  A    between atoms: C_5  and  C_8
REMARK    2  A    between atoms: C_9  and  C_10
REMARK                            x       y       z     vdW  Elec       q    Type
REMARK                         _______ _______ _______ _____ _____    ______ ____
ROOT
ATOM      1  C   UNL     1     102.942 125.317  82.071  0.00  0.00    +0.000 C 
ATOM      2  C   UNL     1     102.102 126.137  82.322  0.00  0.00    +0.000 C 
ENDROOT
BRANCH   1   7
ATOM      3  C   UNL     1     104.703 121.807  80.895  0.00  0.00    +0.000 C 
ATOM      4  C   UNL     1     104.840 121.994  82.410  0.00  0.00    +0.000 C 
ATOM      5  C   UNL     1     104.502 123.406  82.815  0.00  0.00    +0.000 C 
ATOM      6  C   UNL     1     105.316 124.561  82.229  0.00  0.00    +0.000 C 
ATOM      7  C   UNL     1     103.882 124.289  81.814  0.00  0.00    +0.000 C 
ATOM      8  C   UNL     1     104.923 124.301  80.773  0.00  0.00    +0.000 C 
ATOM      9  C   UNL     1     105.310 122.991  80.135  0.00  0.00    +0.000 C 
ENDBRANCH   1   7
BRANCH   2  10
ATOM     10  C   UNL     1     101.065 127.064  82.653  0.00  0.00    +0.000 A 
ATOM     11  C   UNL     1     101.375 128.255  83.312  0.00  0.00    +0.000 A 
ATOM     12  C   UNL     1     100.356 129.139  83.675  0.00  0.00    +0.000 A 
ATOM     13  C   UNL     1      99.029 128.833  83.377  0.00  0.00    +0.000 A 
ATOM     14  C   UNL     1      98.718 127.647  82.712  0.00  0.00    +0.000 A 
ATOM     15  C   UNL     1      99.735 126.763  82.348  0.00  0.00    +0.000 A 
ENDBRANCH   2  10
TORSDOF 2
ENDMDL
