MODEL 1
REMARK VINA RESULT:      -4.7      0.000      0.000
REMARK  Name = *****
REMARK  4 active torsions:
REMARK  status: ('A' for Active; 'I' for Inactive)
REMARK    1  A    between atoms: C_1  and  O_2
REMARK    2  A    between atoms: O_2  and  C_3
REMARK    3  A    between atoms: C_6  and  C_9
REMARK    4  A    between atoms: C_10  and  C_11
REMARK                            x       y       z     vdW  Elec       q    Type
REMARK                         _______ _______ _______ _____ _____    ______ ____
ROOT
ATOM      1  C   UNL     1     103.437 126.163  81.026  0.00  0.00    +0.000 C 
ATOM      2  C   UNL     1     102.681 126.002  82.127  0.00  0.00    +0.000 C 
ATOM      3  F   UNL     1     102.942 124.969  82.965  0.00  0.00    +0.000 F 
ATOM      4  F   UNL     1     103.177 127.196  80.186  0.00  0.00    +0.000 F 
ENDROOT
BRANCH   2   5
ATOM      5  C   UNL     1     101.567 126.879  82.538  0.00  0.00    +0.000 A 
ATOM      6  C   UNL     1     100.218 126.562  82.320  0.00  0.00    +0.000 A 
ATOM      7  C   UNL     1      99.202 127.419  82.755  0.00  0.00    +0.000 A 
ATOM      8  C   UNL     1      99.532 128.593  83.420  0.00  0.00    +0.000 A 
ATOM      9  C   UNL     1     100.858 128.922  83.664  0.00  0.00    +0.000 A 
ATOM     10  C   UNL     1     101.871 128.065  83.229  0.00  0.00    +0.000 A 
ATOM     11  F   UNL     1      98.558 129.411  83.838  0.00  0.00    +0.000 F 
ENDBRANCH   2   5
BRANCH   1  15
ATOM     12  C   UNL     1     106.761 123.693  79.859  0.00  0.00    +0.000 A 
ATOM     13  C   UNL     1     106.890 125.078  79.950  0.00  0.00    +0.000 A 
ATOM     14  C   UNL     1     105.792 125.862  80.328  0.00  0.00    +0.000 A 
ATOM     15  C   UNL     1     104.546 125.283  80.614  0.00  0.00    +0.000 A 
ATOM     16  C   UNL     1     104.436 123.890  80.538  0.00  0.00    +0.000 A 
ATOM     17  C   UNL     1     105.532 123.106  80.160  0.00  0.00    +0.000 A 
BRANCH  12  19
ATOM     18  C   UNL     1     108.098 121.821  80.457  0.00  0.00    +0.000 C 
ATOM     19  O   UNL     1     107.744 122.814  79.501  0.00  0.00    +0.000 OA
ENDBRANCH  12  19
ENDBRANCH   1  15
TORSDOF 3
ENDMDL
