MODEL 1
REMARK VINA RESULT:      -4.4      0.000      0.000
REMARK  Name = *****
REMARK  3 active torsions:
REMARK  status: ('A' for Active; 'I' for Inactive)
REMARK    1  A    between atoms: C_1  and  C_2
REMARK    2  A    between atoms: C_5  and  C_8
REMARK    3  A    between atoms: C_10  and  C_11
REMARK                            x       y       z     vdW  Elec       q    Type
REMARK                         _______ _______ _______ _____ _____    ______ ____
ROOT
ATOM      1  C   UNL     1      87.533  63.801  86.596  0.00  0.00    +0.000 C 
ATOM      2  C   UNL     1      86.158  63.412  87.072  0.00  0.00    +0.000 C 
ATOM      3  C   UNL     1      87.367  62.908  87.820  0.00  0.00    +0.000 C 
ENDROOT
BRANCH   1   8
ATOM      4  C   UNL     1      89.577  69.286  86.846  0.00  0.00    +0.000 C 
ATOM      5  C   UNL     1      89.054  67.881  86.814  0.00  0.00    +0.000 A 
ATOM      6  C   UNL     1      89.871  66.828  86.400  0.00  0.00    +0.000 A 
ATOM      7  C   UNL     1      89.369  65.524  86.343  0.00  0.00    +0.000 A 
ATOM      8  C   UNL     1      88.042  65.223  86.695  0.00  0.00    +0.000 A 
ATOM      9  C   UNL     1      87.228  66.303  87.074  0.00  0.00    +0.000 A 
ATOM     10  C   UNL     1      87.722  67.612  87.134  0.00  0.00    +0.000 A 
ENDBRANCH   1   8
BRANCH   3  11
ATOM     11  C   UNL     1      87.644  63.382  89.231  0.00  0.00    +0.000 A 
ATOM     12  C   UNL     1      88.952  63.506  89.732  0.00  0.00    +0.000 A 
ATOM     13  C   UNL     1      89.200  63.971  91.027  0.00  0.00    +0.000 A 
ATOM     14  C   UNL     1      88.141  64.336  91.851  0.00  0.00    +0.000 A 
ATOM     15  C   UNL     1      86.836  64.243  91.376  0.00  0.00    +0.000 A 
ATOM     16  C   UNL     1      86.597  63.780  90.079  0.00  0.00    +0.000 A 
ENDBRANCH   3  11
TORSDOF 2
ENDMDL
