MODEL 1
REMARK VINA RESULT:      -3.9      0.000      0.000
REMARK  Name = *****
REMARK  3 active torsions:
REMARK  status: ('A' for Active; 'I' for Inactive)
REMARK    1  A    between atoms: C_5  and  C_7
REMARK    2  A    between atoms: C_7  and  S_8
REMARK    3  A    between atoms: S_8  and  C_9
REMARK                            x       y       z     vdW  Elec       q    Type
REMARK                         _______ _______ _______ _____ _____    ______ ____
ROOT
ATOM      1  C   UNL     1     103.698 128.577  82.651  0.00  0.00    +0.000 C 
ENDROOT
BRANCH   1   6
ATOM      2  C   UNL     1     103.798 125.176  81.740  0.00  0.00    +0.000 C 
ATOM      3  C   UNL     1     103.469 125.680  80.333  0.00  0.00    +0.000 C 
ATOM      4  C   UNL     1     103.491 127.175  80.469  0.00  0.00    +0.000 C 
ATOM      5  C   UNL     1     104.774 127.948  80.353  0.00  0.00    +0.000 C 
ATOM      6  C   UNL     1     104.257 127.536  81.717  0.00  0.00    +0.000 C 
ATOM      7  C   UNL     1     104.736 126.234  82.331  0.00  0.00    +0.000 C 
ENDBRANCH   1   6
BRANCH   1   8
ATOM      8  S   UNL     1     102.895 127.736  84.052  0.00  0.00    +0.000 S 
BRANCH   8   9
ATOM      9  C   UNL     1     101.198 127.778  83.503  0.00  0.00    +0.000 A 
ATOM     10  C   UNL     1     100.439 128.929  83.733  0.00  0.00    +0.000 A 
ATOM     11  C   UNL     1      99.111 128.996  83.309  0.00  0.00    +0.000 A 
ATOM     12  C   UNL     1      98.536 127.915  82.643  0.00  0.00    +0.000 A 
ATOM     13  C   UNL     1      99.292 126.770  82.395  0.00  0.00    +0.000 A 
ATOM     14  C   UNL     1     100.620 126.703  82.819  0.00  0.00    +0.000 A 
ENDBRANCH   8   9
ENDBRANCH   1   8
TORSDOF 3
ENDMDL
