MODEL 1
REMARK VINA RESULT:      -4.6      0.000      0.000
REMARK  Name = *****
REMARK  5 active torsions:
REMARK  status: ('A' for Active; 'I' for Inactive)
REMARK    1  A    between atoms: C_6  and  C_7
REMARK    2  A    between atoms: C_7  and  C_8
REMARK    3  A    between atoms: C_7  and  O_11
REMARK    4  A    between atoms: C_8  and  C_9
REMARK    5  A    between atoms: O_11  and  C_12
REMARK                            x       y       z     vdW  Elec       q    Type
REMARK                         _______ _______ _______ _____ _____    ______ ____
ROOT
ATOM      1  C   UNL     1     103.236 126.062  81.668  0.00  0.00    +0.000 C 
ENDROOT
BRANCH   1   7
ATOM      2  C   UNL     1     104.010 123.939  82.891  0.00  0.00    +0.000 A 
ATOM      3  C   UNL     1     104.600 122.674  82.884  0.00  0.00    +0.000 A 
ATOM      4  C   UNL     1     105.074 122.143  81.692  0.00  0.00    +0.000 A 
ATOM      5  C   UNL     1     104.969 122.854  80.504  0.00  0.00    +0.000 A 
ATOM      6  C   UNL     1     104.379 124.120  80.507  0.00  0.00    +0.000 A 
ATOM      7  C   UNL     1     103.891 124.681  81.703  0.00  0.00    +0.000 A 
ATOM      8  F   UNL     1     105.640 120.929  81.687  0.00  0.00    +0.000 F 
ENDBRANCH   1   7
BRANCH   1   9
ATOM      9  C   UNL     1     103.447 126.742  80.303  0.00  0.00    +0.000 C 
BRANCH   9  10
ATOM     10  C   UNL     1     104.186 128.072  80.401  0.00  0.00    +0.000 C 
ATOM     11 CL   UNL     1     105.111 128.145  81.924  0.00  0.00    +0.000 Cl
ENDBRANCH   9  10
ENDBRANCH   1   9
BRANCH   1  12
ATOM     12  O   UNL     1     101.838 125.934  81.959  0.00  0.00    +0.000 OA
BRANCH  12  13
ATOM     13  C   UNL     1     101.170 126.963  82.559  0.00  0.00    +0.000 A 
ATOM     14  C   UNL     1     101.736 128.031  83.258  0.00  0.00    +0.000 A 
ATOM     15  C   UNL     1     100.915 129.018  83.814  0.00  0.00    +0.000 A 
ATOM     16  C   UNL     1      99.537 128.934  83.669  0.00  0.00    +0.000 A 
ATOM     17  C   UNL     1      98.958 127.880  82.976  0.00  0.00    +0.000 A 
ATOM     18  C   UNL     1      99.778 126.897  82.421  0.00  0.00    +0.000 A 
ATOM     19  F   UNL     1      98.757 129.883  84.203  0.00  0.00    +0.000 F 
ENDBRANCH  12  13
ENDBRANCH   1  12
TORSDOF 5
ENDMDL
