MODEL 1
REMARK VINA RESULT:      -4.5      0.000      0.000
REMARK  Name = *****
REMARK  6 active torsions:
REMARK  status: ('A' for Active; 'I' for Inactive)
REMARK    1  A    between atoms: C_1  and  C_2
REMARK    2  A    between atoms: C_2  and  C_3
REMARK    3  A    between atoms: C_3  and  C_15
REMARK    4  A    between atoms: C_5  and  C_7
REMARK    5  A    between atoms: C_7  and  C_8
REMARK    6  A    between atoms: C_8  and  C_9
REMARK                            x       y       z     vdW  Elec       q    Type
REMARK                         _______ _______ _______ _____ _____    ______ ____
ROOT
ATOM      1  C   UNL     1     103.425 127.867  81.888  0.00  0.00    +0.000 C 
ENDROOT
BRANCH   1   4
ATOM      2  C   UNL     1     104.687 124.714  80.579  0.00  0.00    +0.000 C 
ATOM      3  C   UNL     1     103.362 125.512  80.387  0.00  0.00    +0.000 C 
ATOM      4  C   UNL     1     103.943 126.544  81.338  0.00  0.00    +0.000 C 
ATOM      5  C   UNL     1     105.087 125.855  81.517  0.00  0.00    +0.000 C 
ATOM      6  C   UNL     1     105.566 124.637  79.328  0.00  0.00    +0.000 C 
BRANCH   2   8
ATOM      7  C   UNL     1     105.014 122.193  80.449  0.00  0.00    +0.000 C 
ATOM      8  C   UNL     1     104.544 123.363  81.302  0.00  0.00    +0.000 C 
ENDBRANCH   2   8
ENDBRANCH   1   4
BRANCH   1   9
ATOM      9  C   UNL     1     102.715 127.733  83.227  0.00  0.00    +0.000 C 
BRANCH   9  10
ATOM     10  C   UNL     1     101.216 127.783  83.078  0.00  0.00    +0.000 A 
ATOM     11  C   UNL     1     100.491 128.892  83.537  0.00  0.00    +0.000 A 
ATOM     12  C   UNL     1      99.102 128.929  83.412  0.00  0.00    +0.000 A 
ATOM     13  C   UNL     1      98.423 127.858  82.834  0.00  0.00    +0.000 A 
ATOM     14  C   UNL     1      99.133 126.747  82.381  0.00  0.00    +0.000 A 
ATOM     15  C   UNL     1     100.523 126.709  82.503  0.00  0.00    +0.000 A 
ENDBRANCH   9  10
ENDBRANCH   1   9
TORSDOF 4
ENDMDL
