MODEL 1
REMARK VINA RESULT:      -4.6      0.000      0.000
REMARK  Name = *****
REMARK  4 active torsions:
REMARK  status: ('A' for Active; 'I' for Inactive)
REMARK    1  A    between atoms: C_4  and  C_7
REMARK    2  A    between atoms: C_7  and  C_8
REMARK    3  A    between atoms: C_8  and  C_12
REMARK    4  A    between atoms: C_12  and  C_13
REMARK                            x       y       z     vdW  Elec       q    Type
REMARK                         _______ _______ _______ _____ _____    ______ ____
ROOT
ATOM      1  C   UNL     1     103.710 127.570  82.160  0.00  0.00    +0.000 C 
ATOM      2  C   UNL     1     104.486 128.870  82.235  0.00  0.00    +0.000 C 
ATOM      3  O   UNL     1     105.115 127.613  82.489  0.00  0.00    +0.000 OA
ATOM      4 CL   UNL     1     104.282 130.002  83.540  0.00  0.00    +0.000 Cl
ENDROOT
BRANCH   1   5
ATOM      5  C   UNL     1     103.429 127.017  80.782  0.00  0.00    +0.000 C 
BRANCH   5   9
ATOM      6  C   UNL     1     105.570 123.347  79.999  0.00  0.00    +0.000 A 
ATOM      7  C   UNL     1     104.534 123.361  80.930  0.00  0.00    +0.000 A 
ATOM      8  C   UNL     1     103.836 124.542  81.185  0.00  0.00    +0.000 A 
ATOM      9  C   UNL     1     104.174 125.729  80.518  0.00  0.00    +0.000 A 
ATOM     10  C   UNL     1     105.211 125.698  79.574  0.00  0.00    +0.000 A 
ATOM     11  C   UNL     1     105.907 124.516  79.319  0.00  0.00    +0.000 A 
ENDBRANCH   5   9
ENDBRANCH   1   5
BRANCH   1  12
ATOM     12  C   UNL     1     102.838 127.132  83.319  0.00  0.00    +0.000 C 
BRANCH  12  13
ATOM     13  C   UNL     1     101.378 127.480  83.133  0.00  0.00    +0.000 A 
ATOM     14  C   UNL     1     100.490 126.564  82.551  0.00  0.00    +0.000 A 
ATOM     15  C   UNL     1      99.142 126.888  82.387  0.00  0.00    +0.000 A 
ATOM     16  C   UNL     1      98.666 128.128  82.811  0.00  0.00    +0.000 A 
ATOM     17  C   UNL     1      99.536 129.042  83.403  0.00  0.00    +0.000 A 
ATOM     18  C   UNL     1     100.883 128.718  83.567  0.00  0.00    +0.000 A 
ENDBRANCH  12  13
ENDBRANCH   1  12
TORSDOF 4
ENDMDL
