MODEL 1
REMARK VINA RESULT:      -4.6      0.000      0.000
REMARK  Name = *****
REMARK  3 active torsions:
REMARK  status: ('A' for Active; 'I' for Inactive)
REMARK    1  A    between atoms: C_5  and  C_7
REMARK    2  A    between atoms: C_7  and  N_8
REMARK    3  A    between atoms: C_9  and  C_10
REMARK                            x       y       z     vdW  Elec       q    Type
REMARK                         _______ _______ _______ _____ _____    ______ ____
ROOT
ATOM      1  N   UNL     1      88.817  68.999  85.796  0.00  0.00    +0.000 NA
ATOM      2  C   UNL     1      89.694  68.305  86.440  0.00  0.00    +0.000 C 
ENDROOT
BRANCH   2   3
ATOM      3  C   UNL     1      89.775  66.833  86.291  0.00  0.00    +0.000 A 
ATOM      4  C   UNL     1      90.790  66.292  85.487  0.00  0.00    +0.000 A 
ATOM      5  C   UNL     1      90.911  64.911  85.334  0.00  0.00    +0.000 A 
ATOM      6  C   UNL     1      90.020  64.058  85.982  0.00  0.00    +0.000 A 
ATOM      7  C   UNL     1      89.005  64.589  86.780  0.00  0.00    +0.000 A 
ATOM      8  C   UNL     1      88.879  65.974  86.939  0.00  0.00    +0.000 A 
ATOM      9 CL   UNL     1      87.588  66.537  87.940  0.00  0.00    +0.000 Cl
ENDBRANCH   2   3
BRANCH   1  10
ATOM     10  C   UNL     1      88.875  70.452  86.023  0.00  0.00    +0.000 C 
BRANCH  10  15
ATOM     11  C   UNL     1      85.377  71.953  86.135  0.00  0.00    +0.000 A 
ATOM     12  C   UNL     1      85.084  71.945  87.495  0.00  0.00    +0.000 A 
ATOM     13  C   UNL     1      86.024  71.456  88.402  0.00  0.00    +0.000 A 
ATOM     14  C   UNL     1      87.261  70.975  87.954  0.00  0.00    +0.000 A 
ATOM     15  C   UNL     1      87.575  70.981  86.586  0.00  0.00    +0.000 A 
ATOM     16  C   UNL     1      86.609  71.474  85.686  0.00  0.00    +0.000 A 
ATOM     17 CL   UNL     1      88.355  70.383  89.153  0.00  0.00    +0.000 Cl
ENDBRANCH  10  15
ENDBRANCH   1  10
TORSDOF 3
ENDMDL
