MODEL 1
REMARK VINA RESULT:      -4.8      0.000      0.000
REMARK  Name = *****
REMARK  2 active torsions:
REMARK  status: ('A' for Active; 'I' for Inactive)
REMARK    1  A    between atoms: C_3  and  N_8
REMARK    2  A    between atoms: C_9  and  C_10
REMARK                            x       y       z     vdW  Elec       q    Type
REMARK                         _______ _______ _______ _____ _____    ______ ____
ROOT
ATOM      1  N   UNL     1     101.907 125.975  82.713  0.00  0.00    +0.000 NA
ATOM      2  C   UNL     1     102.593 126.049  81.616  0.00  0.00    +0.000 C 
ENDROOT
BRANCH   2   3
ATOM      3  C   UNL     1     103.677 125.095  81.315  0.00  0.00    +0.000 A 
ATOM      4  C   UNL     1     104.350 125.200  80.096  0.00  0.00    +0.000 A 
ATOM      5  C   UNL     1     105.381 124.304  79.792  0.00  0.00    +0.000 A 
ATOM      6  C   UNL     1     105.736 123.305  80.709  0.00  0.00    +0.000 A 
ATOM      7  C   UNL     1     105.057 123.205  81.928  0.00  0.00    +0.000 A 
ATOM      8  C   UNL     1     104.028 124.098  82.232  0.00  0.00    +0.000 A 
ATOM      9 CL   UNL     1     106.999 122.168  80.397  0.00  0.00    +0.000 Cl
ATOM     10 CL   UNL     1     106.176 124.486  78.269  0.00  0.00    +0.000 Cl
ENDBRANCH   2   3
BRANCH   1  13
ATOM     11  C   UNL     1      98.604 127.651  82.549  0.00  0.00    +0.000 A 
ATOM     12  C   UNL     1      99.610 126.690  82.409  0.00  0.00    +0.000 A 
ATOM     13  C   UNL     1     100.905 126.942  82.876  0.00  0.00    +0.000 A 
ATOM     14  C   UNL     1     101.195 128.174  83.462  0.00  0.00    +0.000 A 
ATOM     15  C   UNL     1     100.189 129.124  83.597  0.00  0.00    +0.000 A 
ATOM     16  C   UNL     1      98.897 128.874  83.150  0.00  0.00    +0.000 A 
ATOM     17  F   UNL     1     100.470 130.303  84.169  0.00  0.00    +0.000 F 
ENDBRANCH   1  13
TORSDOF 2
ENDMDL
