MODEL 1
REMARK VINA RESULT:      -4.5      0.000      0.000
REMARK  Name = *****
REMARK  6 active torsions:
REMARK  status: ('A' for Active; 'I' for Inactive)
REMARK    1  A    between atoms: C_1  and  C_2
REMARK    2  A    between atoms: C_4  and  C_18
REMARK    3  A    between atoms: C_5  and  C_9
REMARK    4  A    between atoms: C_6  and  C_8
REMARK    5  A    between atoms: C_9  and  S_11
REMARK    6  A    between atoms: S_11  and  C_12
REMARK                            x       y       z     vdW  Elec       q    Type
REMARK                         _______ _______ _______ _____ _____    ______ ____
ROOT
ATOM      1  C   UNL     1      84.523  72.038  89.106  0.00  0.00    +0.000 C 
ATOM      2  C   UNL     1      85.519  71.686  88.038  0.00  0.00    +0.000 A 
ATOM      3  C   UNL     1      85.256  71.992  86.698  0.00  0.00    +0.000 A 
ATOM      4  C   UNL     1      86.191  71.703  85.692  0.00  0.00    +0.000 A 
ATOM      5  C   UNL     1      87.402  71.079  86.056  0.00  0.00    +0.000 A 
ATOM      6  C   UNL     1      87.703  70.802  87.404  0.00  0.00    +0.000 A 
ATOM      7  C   UNL     1      86.747  71.110  88.384  0.00  0.00    +0.000 A 
ATOM      8  C   UNL     1      89.007  70.177  87.814  0.00  0.00    +0.000 C 
ATOM      9  C   UNL     1      85.864  72.043  84.264  0.00  0.00    +0.000 C 
ENDROOT
BRANCH   5  10
ATOM     10  C   UNL     1      88.390  70.739  85.010  0.00  0.00    +0.000 C 
ATOM     11  O   UNL     1      89.415  71.393  84.876  0.00  0.00    +0.000 OA
BRANCH  10  12
ATOM     12  S   UNL     1      87.990  69.313  84.060  0.00  0.00    +0.000 S 
BRANCH  12  13
ATOM     13  C   UNL     1      88.483  67.997  85.154  0.00  0.00    +0.000 A 
ATOM     14  C   UNL     1      89.824  67.625  85.288  0.00  0.00    +0.000 A 
ATOM     15  C   UNL     1      90.191  66.609  86.172  0.00  0.00    +0.000 A 
ATOM     16  C   UNL     1      89.220  65.965  86.936  0.00  0.00    +0.000 A 
ATOM     17  C   UNL     1      87.882  66.337  86.817  0.00  0.00    +0.000 A 
ATOM     18  C   UNL     1      87.514  67.352  85.931  0.00  0.00    +0.000 A 
ENDBRANCH  12  13
ENDBRANCH  10  12
ENDBRANCH   5  10
TORSDOF 3
ENDMDL
