MODEL 1
REMARK VINA RESULT:      -4.9      0.000      0.000
REMARK  Name = *****
REMARK  3 active torsions:
REMARK  status: ('A' for Active; 'I' for Inactive)
REMARK    1  A    between atoms: C_1  and  C_2
REMARK    2  A    between atoms: C_3  and  N_9
REMARK    3  A    between atoms: C_10  and  C_12
REMARK                            x       y       z     vdW  Elec       q    Type
REMARK                         _______ _______ _______ _____ _____    ______ ____
ROOT
ATOM      1  N   UNL     1     103.007 125.309  81.759  0.00  0.00    +0.000 N 
ATOM      2  C   UNL     1     103.087 126.508  82.442  0.00  0.00    +0.000 C 
ATOM      3  O   UNL     1     104.101 127.024  82.894  0.00  0.00    +0.000 OA
ATOM      4  H   UNL     1     102.100 124.973  81.573  0.00  0.00    +0.000 HD
ENDROOT
BRANCH   1   7
ATOM      5  C   UNL     1     104.321 123.025  83.393  0.00  0.00    +0.000 C 
ATOM      6  C   UNL     1     104.673 123.438  81.990  0.00  0.00    +0.000 A 
ATOM      7  C   UNL     1     104.078 124.509  81.295  0.00  0.00    +0.000 A 
ATOM      8  C   UNL     1     104.602 124.884  80.045  0.00  0.00    +0.000 A 
ATOM      9  C   UNL     1     105.641 124.163  79.458  0.00  0.00    +0.000 A 
ATOM     10  C   UNL     1     106.188 123.066  80.105  0.00  0.00    +0.000 A 
ATOM     11  C   UNL     1     105.706 122.709  81.363  0.00  0.00    +0.000 A 
ATOM     12 CL   UNL     1     106.243 124.634  77.915  0.00  0.00    +0.000 Cl
ENDBRANCH   1   7
BRANCH   2  13
ATOM     13  C   UNL     1     101.775 127.162  82.719  0.00  0.00    +0.000 A 
ATOM     14  C   UNL     1     100.605 126.502  82.329  0.00  0.00    +0.000 A 
ATOM     15  C   UNL     1      99.372 127.089  82.583  0.00  0.00    +0.000 A 
ATOM     16  C   UNL     1      99.279 128.320  83.225  0.00  0.00    +0.000 A 
ATOM     17  C   UNL     1     100.440 128.975  83.631  0.00  0.00    +0.000 A 
ATOM     18  C   UNL     1     101.689 128.397  83.384  0.00  0.00    +0.000 A 
ATOM     19  F   UNL     1      98.251 126.460  82.205  0.00  0.00    +0.000 F 
ENDBRANCH   2  13
TORSDOF 2
ENDMDL
