MODEL 1
REMARK VINA RESULT:      -4.0      0.000      0.000
REMARK  Name = *****
REMARK  3 active torsions:
REMARK  status: ('A' for Active; 'I' for Inactive)
REMARK    1  A    between atoms: S_4  and  C_6
REMARK    2  A    between atoms: C_6  and  C_7
REMARK    3  A    between atoms: C_8  and  C_9
REMARK                            x       y       z     vdW  Elec       q    Type
REMARK                         _______ _______ _______ _____ _____    ______ ____
ROOT
ATOM      1  C   UNL     1     103.520 127.979  82.044  0.00  0.00    +0.000 C 
ATOM      2  C   UNL     1     102.722 127.822  83.112  0.00  0.00    +0.000 C 
ENDROOT
BRANCH   2   3
ATOM      3  C   UNL     1     101.252 127.843  83.067  0.00  0.00    +0.000 A 
ATOM      4  C   UNL     1     100.498 128.918  83.552  0.00  0.00    +0.000 A 
ATOM      5  C   UNL     1      99.103 128.909  83.462  0.00  0.00    +0.000 A 
ATOM      6  C   UNL     1      98.449 127.829  82.874  0.00  0.00    +0.000 A 
ATOM      7  C   UNL     1      99.188 126.760  82.372  0.00  0.00    +0.000 A 
ATOM      8  C   UNL     1     100.582 126.769  82.464  0.00  0.00    +0.000 A 
ENDBRANCH   2   3
BRANCH   1   9
ATOM      9  C   UNL     1     105.011 127.958  82.119  0.00  0.00    +0.000 C 
BRANCH   9  13
ATOM     10  C   UNL     1     104.114 124.492  80.507  0.00  0.00    +0.000 C 
ATOM     11  C   UNL     1     104.150 124.390  82.035  0.00  0.00    +0.000 C 
ATOM     12  C   UNL     1     105.423 125.102  82.489  0.00  0.00    +0.000 C 
ATOM     13  S   UNL     1     105.588 126.465  81.370  0.00  0.00    +0.000 S 
ATOM     14  C   UNL     1     104.399 125.952  80.161  0.00  0.00    +0.000 C 
ATOM     15 BR   UNL     1     107.539 126.606  80.531  0.00  0.00    +0.000 Br
ENDBRANCH   9  13
ENDBRANCH   1   9
TORSDOF 3
ENDMDL
