MODEL 1
REMARK VINA RESULT:      -4.6      0.000      0.000
REMARK  Name = *****
REMARK  3 active torsions:
REMARK  status: ('A' for Active; 'I' for Inactive)
REMARK    1  A    between atoms: C_4  and  C_7
REMARK    2  A    between atoms: C_7  and  C_8
REMARK    3  A    between atoms: C_8  and  C_9
REMARK                            x       y       z     vdW  Elec       q    Type
REMARK                         _______ _______ _______ _____ _____    ______ ____
ROOT
ATOM      1  C   UNL     1      88.663  70.274  86.610  0.00  0.00    +0.000 C 
ATOM      2  F   UNL     1      89.752  71.008  87.008  0.00  0.00    +0.000 F 
ENDROOT
BRANCH   1   6
ATOM      3  C   UNL     1      85.036  72.050  88.156  0.00  0.00    +0.000 A 
ATOM      4  C   UNL     1      86.018  71.602  89.037  0.00  0.00    +0.000 A 
ATOM      5  C   UNL     1      87.194  71.032  88.543  0.00  0.00    +0.000 A 
ATOM      6  C   UNL     1      87.395  70.899  87.161  0.00  0.00    +0.000 A 
ATOM      7  C   UNL     1      86.401  71.366  86.286  0.00  0.00    +0.000 A 
ATOM      8  C   UNL     1      85.228  71.936  86.781  0.00  0.00    +0.000 A 
ENDBRANCH   1   6
BRANCH   1   9
ATOM      9  C   UNL     1      88.681  70.191  85.062  0.00  0.00    +0.000 C 
ATOM     10  I   UNL     1      89.441  68.231  84.377  0.00  0.00    +0.000 I 
BRANCH   9  11
ATOM     11  C   UNL     1      89.534  71.247  84.371  0.00  0.00    +0.000 A 
ATOM     12  C   UNL     1      90.862  71.007  83.983  0.00  0.00    +0.000 A 
ATOM     13  C   UNL     1      91.607  71.997  83.338  0.00  0.00    +0.000 A 
ATOM     14  C   UNL     1      91.037  73.238  83.067  0.00  0.00    +0.000 A 
ATOM     15  C   UNL     1      89.719  73.491  83.438  0.00  0.00    +0.000 A 
ATOM     16  C   UNL     1      88.972  72.504  84.082  0.00  0.00    +0.000 A 
ENDBRANCH   9  11
ENDBRANCH   1   9
TORSDOF 3
ENDMDL
