MODEL 1
REMARK VINA RESULT:      -4.8      0.000      0.000
REMARK  Name = *****
REMARK  4 active torsions:
REMARK  status: ('A' for Active; 'I' for Inactive)
REMARK    1  A    between atoms: C_4  and  C_7
REMARK    2  A    between atoms: C_7  and  C_16
REMARK    3  A    between atoms: C_8  and  C_9
REMARK    4  A    between atoms: C_16  and  O_17
REMARK                            x       y       z     vdW  Elec       q    Type
REMARK                         _______ _______ _______ _____ _____    ______ ____
ROOT
ATOM      1  C   UNL     1     100.241 127.915  83.271  0.00  0.00    +0.000 C 
ATOM      2  C   UNL     1     101.587 127.848  83.239  0.00  0.00    +0.000 C 
ENDROOT
BRANCH   2   3
ATOM      3  C   UNL     1     102.376 126.841  82.513  0.00  0.00    +0.000 A 
ATOM      4  C   UNL     1     102.750 127.096  81.184  0.00  0.00    +0.000 A 
ATOM      5  C   UNL     1     103.516 126.173  80.468  0.00  0.00    +0.000 A 
ATOM      6  C   UNL     1     103.925 124.987  81.074  0.00  0.00    +0.000 A 
ATOM      7  C   UNL     1     103.569 124.724  82.396  0.00  0.00    +0.000 A 
ATOM      8  C   UNL     1     102.800 125.645  83.115  0.00  0.00    +0.000 A 
ATOM      9 CL   UNL     1     102.389 125.249  84.748  0.00  0.00    +0.000 Cl
ENDBRANCH   2   3
BRANCH   1  13
ATOM     10  C   UNL     1      98.475 131.060  85.579  0.00  0.00    +0.000 A 
ATOM     11  C   UNL     1      98.234 129.729  85.913  0.00  0.00    +0.000 A 
ATOM     12  C   UNL     1      98.807 128.704  85.157  0.00  0.00    +0.000 A 
ATOM     13  C   UNL     1      99.627 129.003  84.061  0.00  0.00    +0.000 A 
ATOM     14  C   UNL     1      99.860 130.345  83.730  0.00  0.00    +0.000 A 
ATOM     15  C   UNL     1      99.286 131.368  84.487  0.00  0.00    +0.000 A 
ENDBRANCH   1  13
BRANCH   1  16
ATOM     16  C   UNL     1      99.291 126.937  82.629  0.00  0.00    +0.000 C 
BRANCH  16  17
ATOM     17  O   UNL     1      98.265 127.649  81.945  0.00  0.00    +0.000 OA
ATOM     18  H   UNL     1      97.427 127.168  82.029  0.00  0.00    +0.000 HD
ENDBRANCH  16  17
ENDBRANCH   1  16
TORSDOF 4
ENDMDL
