MODEL 1
REMARK VINA RESULT:      -3.9      0.000      0.000
REMARK  Name = *****
REMARK  3 active torsions:
REMARK  status: ('A' for Active; 'I' for Inactive)
REMARK    1  A    between atoms: C_5  and  O_8
REMARK    2  A    between atoms: O_8  and  O_9
REMARK    3  A    between atoms: O_9  and  C_10
REMARK                            x       y       z     vdW  Elec       q    Type
REMARK                         _______ _______ _______ _____ _____    ______ ____
ROOT
ATOM      1  O   UNL     1     102.491 127.926  84.365  0.00  0.00    +0.000 OA
ENDROOT
BRANCH   1   6
ATOM      2  C   UNL     1      99.001 129.024  82.944  0.00  0.00    +0.000 C 
ATOM      3  C   UNL     1      98.913 127.532  82.641  0.00  0.00    +0.000 C 
ATOM      4  C   UNL     1     100.249 126.799  82.574  0.00  0.00    +0.000 C 
ATOM      5  C   UNL     1     100.719 126.314  83.946  0.00  0.00    +0.000 C 
ATOM      6  C   UNL     1     101.262 127.397  84.880  0.00  0.00    +0.000 C 
ATOM      7  C   UNL     1     100.297 128.565  85.128  0.00  0.00    +0.000 C 
ATOM      8  C   UNL     1     100.078 129.479  83.923  0.00  0.00    +0.000 C 
ENDBRANCH   1   6
BRANCH   1   9
ATOM      9  O   UNL     1     103.470 126.846  84.451  0.00  0.00    +0.000 OA
BRANCH   9  10
ATOM     10  C   UNL     1     104.356 127.019  83.332  0.00  0.00    +0.000 C 
ATOM     11  C   UNL     1     103.747 128.121  82.463  0.00  0.00    +0.000 C 
ATOM     12  C   UNL     1     104.258 128.172  81.028  0.00  0.00    +0.000 C 
ATOM     13  C   UNL     1     103.459 127.268  80.091  0.00  0.00    +0.000 C 
ATOM     14  C   UNL     1     103.695 125.771  80.272  0.00  0.00    +0.000 C 
ATOM     15  C   UNL     1     103.472 125.238  81.687  0.00  0.00    +0.000 C 
ATOM     16  C   UNL     1     104.575 125.662  82.656  0.00  0.00    +0.000 C 
ENDBRANCH   9  10
ENDBRANCH   1   9
TORSDOF 3
ENDMDL
