MODEL 1
REMARK VINA RESULT:      -4.5      0.000      0.000
REMARK  Name = *****
REMARK  4 active torsions:
REMARK  status: ('A' for Active; 'I' for Inactive)
REMARK    1  A    between atoms: C_4  and  C_7
REMARK    2  A    between atoms: C_7  and  O_9
REMARK    3  A    between atoms: O_9  and  C_10
REMARK    4  A    between atoms: C_10  and  C_11
REMARK                            x       y       z     vdW  Elec       q    Type
REMARK                         _______ _______ _______ _____ _____    ______ ____
ROOT
ATOM      1  O   UNL     1     100.257 126.651  83.351  0.00  0.00    +0.000 OA
ENDROOT
BRANCH   1   2
ATOM      2  C   UNL     1      99.172 127.361  82.956  0.00  0.00    +0.000 C 
ATOM      3  O   UNL     1      98.422 127.077  82.036  0.00  0.00    +0.000 OA
BRANCH   2   7
ATOM      4  C   UNL     1      98.727 130.897  85.340  0.00  0.00    +0.000 A 
ATOM      5  C   UNL     1      98.246 129.683  85.828  0.00  0.00    +0.000 A 
ATOM      6  C   UNL     1      98.382 128.519  85.067  0.00  0.00    +0.000 A 
ATOM      7  C   UNL     1      99.000 128.568  83.809  0.00  0.00    +0.000 A 
ATOM      8  C   UNL     1      99.481 129.793  83.327  0.00  0.00    +0.000 A 
ATOM      9  C   UNL     1      99.344 130.954  84.091  0.00  0.00    +0.000 A 
ENDBRANCH   2   7
ENDBRANCH   1   2
BRANCH   1  10
ATOM     10  C   UNL     1     101.165 126.275  82.310  0.00  0.00    +0.000 C 
BRANCH  10  11
ATOM     11  C   UNL     1     102.312 127.252  82.272  0.00  0.00    +0.000 A 
ATOM     12  C   UNL     1     103.075 127.411  81.107  0.00  0.00    +0.000 A 
ATOM     13  C   UNL     1     104.145 128.299  81.095  0.00  0.00    +0.000 A 
ATOM     14  C   UNL     1     104.482 129.032  82.227  0.00  0.00    +0.000 A 
ATOM     15  C   UNL     1     103.739 128.872  83.394  0.00  0.00    +0.000 A 
ATOM     16  C   UNL     1     102.661 127.984  83.418  0.00  0.00    +0.000 A 
ATOM     17  F   UNL     1     104.865 128.446  79.975  0.00  0.00    +0.000 F 
ENDBRANCH  10  11
ENDBRANCH   1  10
TORSDOF 4
ENDMDL
