REMARK  Name = *****
REMARK  1 active torsions:
REMARK  status: ('A' for Active; 'I' for Inactive)
REMARK    1  A    between atoms: C_4  and  N_7
REMARK                            x       y       z     vdW  Elec       q    Type
REMARK                         _______ _______ _______ _____ _____    ______ ____
ROOT
ATOM      1  N   UNL     1      -1.356  -1.273   0.109  0.00  0.00    +0.000 N 
ATOM      2  C   UNL     1      -1.710  -1.343   1.443  0.00  0.00    +0.000 A 
ATOM      3  N   UNL     1      -2.567  -2.158   1.967  0.00  0.00    +0.000 NA
ATOM      4  C   UNL     1      -3.214  -3.052   1.114  0.00  0.00    +0.000 A 
ATOM      5  C   UNL     1      -2.964  -3.083  -0.256  0.00  0.00    +0.000 A 
ATOM      6  C   UNL     1      -1.959  -2.148  -0.803  0.00  0.00    +0.000 A 
ATOM      7  O   UNL     1      -1.701  -2.248  -2.002  0.00  0.00    +0.000 OA
ATOM      8  C   UNL     1      -3.635  -3.989  -1.089  0.00  0.00    +0.000 A 
ATOM      9  C   UNL     1      -4.565  -4.865  -0.537  0.00  0.00    +0.000 A 
ATOM     10  C   UNL     1      -4.827  -4.844   0.832  0.00  0.00    +0.000 A 
ATOM     11  C   UNL     1      -4.151  -3.938   1.653  0.00  0.00    +0.000 A 
ATOM     12 CL   UNL     1      -5.396  -5.981  -1.547  0.00  0.00    +0.000 Cl
ENDROOT
BRANCH   1  16
ATOM     13  C   UNL     1       1.568   1.583  -1.143  0.00  0.00    +0.000 A 
ATOM     14  C   UNL     1       0.583   1.158  -2.026  0.00  0.00    +0.000 A 
ATOM     15  C   UNL     1      -0.371   0.218  -1.619  0.00  0.00    +0.000 A 
ATOM     16  C   UNL     1      -0.365  -0.316  -0.320  0.00  0.00    +0.000 A 
ATOM     17  C   UNL     1       0.645   0.129   0.554  0.00  0.00    +0.000 A 
ATOM     18  C   UNL     1       1.601   1.068   0.147  0.00  0.00    +0.000 A 
ENDBRANCH   1  16
TORSDOF 1
