MODEL 1
REMARK VINA RESULT:      -4.3      0.000      0.000
REMARK  Name = *****
REMARK  3 active torsions:
REMARK  status: ('A' for Active; 'I' for Inactive)
REMARK    1  A    between atoms: C_5  and  O_7
REMARK    2  A    between atoms: O_7  and  C_8
REMARK    3  A    between atoms: C_8  and  C_10
REMARK                            x       y       z     vdW  Elec       q    Type
REMARK                         _______ _______ _______ _____ _____    ______ ____
ROOT
ATOM      1  C   UNL     1     101.803 125.943  83.174  0.00  0.00    +0.000 C 
ATOM      2  O   UNL     1     102.155 125.341  84.176  0.00  0.00    +0.000 OA
ENDROOT
BRANCH   1   3
ATOM      3  C   UNL     1     100.863 127.097  83.198  0.00  0.00    +0.000 A 
ATOM      4  C   UNL     1      99.580 126.915  82.663  0.00  0.00    +0.000 A 
ATOM      5  C   UNL     1      98.661 127.967  82.662  0.00  0.00    +0.000 A 
ATOM      6  C   UNL     1      99.019 129.205  83.195  0.00  0.00    +0.000 A 
ATOM      7  C   UNL     1     100.292 129.393  83.731  0.00  0.00    +0.000 A 
ATOM      8  C   UNL     1     101.214 128.343  83.733  0.00  0.00    +0.000 A 
ENDBRANCH   1   3
BRANCH   1   9
ATOM      9  O   UNL     1     102.190 125.673  81.904  0.00  0.00    +0.000 OA
BRANCH   9  14
ATOM     10  C   UNL     1     105.306 126.384  79.925  0.00  0.00    +0.000 C 
ATOM     11  C   UNL     1     105.434 124.946  79.416  0.00  0.00    +0.000 C 
ATOM     12  C   UNL     1     104.826 123.938  80.349  0.00  0.00    +0.000 C 
ATOM     13  C   UNL     1     104.017 124.277  81.365  0.00  0.00    +0.000 C 
ATOM     14  C   UNL     1     103.607 125.693  81.668  0.00  0.00    +0.000 C 
ATOM     15  C   UNL     1     103.919 126.646  80.504  0.00  0.00    +0.000 C 
ENDBRANCH   9  14
ENDBRANCH   1   9
TORSDOF 3
ENDMDL
