MODEL 1
REMARK VINA RESULT:      -4.7      0.000      0.000
REMARK  Name = *****
REMARK  3 active torsions:
REMARK  status: ('A' for Active; 'I' for Inactive)
REMARK    1  A    between atoms: C_2  and  C_3
REMARK    2  A    between atoms: C_6  and  C_9
REMARK    3  A    between atoms: C_10  and  C_11
REMARK                            x       y       z     vdW  Elec       q    Type
REMARK                         _______ _______ _______ _____ _____    ______ ____
ROOT
ATOM      1  C   UNL     1     102.559 125.926  82.558  0.00  0.00    +0.000 C 
ATOM      2  C   UNL     1     103.279 125.011  82.260  0.00  0.00    +0.000 C 
ENDROOT
BRANCH   2   3
ATOM      3  C   UNL     1     104.138 123.924  81.907  0.00  0.00    +0.000 A 
ATOM      4  C   UNL     1     104.520 122.990  82.876  0.00  0.00    +0.000 A 
ATOM      5  C   UNL     1     105.356 121.928  82.529  0.00  0.00    +0.000 A 
ATOM      6  C   UNL     1     105.804 121.808  81.219  0.00  0.00    +0.000 A 
ATOM      7  C   UNL     1     105.432 122.730  80.247  0.00  0.00    +0.000 A 
ATOM      8  C   UNL     1     104.595 123.793  80.591  0.00  0.00    +0.000 A 
ATOM      9  F   UNL     1     106.607 120.788  80.886  0.00  0.00    +0.000 F 
ENDBRANCH   2   3
BRANCH   1  13
ATOM     10  C   UNL     1     100.026 129.161  83.622  0.00  0.00    +0.000 A 
ATOM     11  C   UNL     1      99.497 128.002  83.038  0.00  0.00    +0.000 A 
ATOM     12  C   UNL     1     100.332 126.934  82.690  0.00  0.00    +0.000 A 
ATOM     13  C   UNL     1     101.706 127.018  82.912  0.00  0.00    +0.000 A 
ATOM     14  C   UNL     1     102.246 128.173  83.477  0.00  0.00    +0.000 A 
ATOM     15  C   UNL     1     101.410 129.240  83.824  0.00  0.00    +0.000 A 
BRANCH  10  17
ATOM     16  C   UNL     1      99.660 131.541  84.238  0.00  0.00    +0.000 C 
ATOM     17  C   UNL     1      99.190 130.315  83.975  0.00  0.00    +0.000 C 
ENDBRANCH  10  17
ENDBRANCH   1  13
TORSDOF 3
ENDMDL
