MODEL 1
REMARK VINA RESULT:      -5.0      0.000      0.000
REMARK  Name = *****
REMARK  2 active torsions:
REMARK  status: ('A' for Active; 'I' for Inactive)
REMARK    1  A    between atoms: C_2  and  C_11
REMARK    2  A    between atoms: C_11  and  C_12
REMARK                            x       y       z     vdW  Elec       q    Type
REMARK                         _______ _______ _______ _____ _____    ______ ____
ROOT
ATOM      1  C   UNL     1     103.424 128.902  83.313  0.00  0.00    +0.000 C 
ATOM      2  C   UNL     1     103.121 127.442  82.946  0.00  0.00    +0.000 C 
ATOM      3  C   UNL     1     101.633 127.541  82.893  0.00  0.00    +0.000 A 
ATOM      4  C   UNL     1     101.235 128.700  83.547  0.00  0.00    +0.000 A 
ATOM      5  O   UNL     1     102.279 129.458  84.005  0.00  0.00    +0.000 OA
ATOM      6  C   UNL     1      99.904 129.027  83.724  0.00  0.00    +0.000 A 
ATOM      7  C   UNL     1      98.945 128.155  83.207  0.00  0.00    +0.000 A 
ATOM      8  C   UNL     1      99.345 126.987  82.547  0.00  0.00    +0.000 A 
ATOM      9  C   UNL     1     100.690 126.660  82.389  0.00  0.00    +0.000 A 
ATOM     10  F   UNL     1      98.409 126.158  82.066  0.00  0.00    +0.000 F 
ENDROOT
BRANCH   2  11
ATOM     11  C   UNL     1     103.802 126.973  81.657  0.00  0.00    +0.000 C 
ATOM     12  F   UNL     1     102.968 127.278  80.612  0.00  0.00    +0.000 F 
BRANCH  11  13
ATOM     13  C   UNL     1     104.114 125.491  81.674  0.00  0.00    +0.000 A 
ATOM     14  C   UNL     1     104.409 124.818  80.480  0.00  0.00    +0.000 A 
ATOM     15  C   UNL     1     104.677 123.449  80.485  0.00  0.00    +0.000 A 
ATOM     16  C   UNL     1     104.657 122.739  81.684  0.00  0.00    +0.000 A 
ATOM     17  C   UNL     1     104.372 123.398  82.878  0.00  0.00    +0.000 A 
ATOM     18  C   UNL     1     104.102 124.768  82.876  0.00  0.00    +0.000 A 
ENDBRANCH  11  13
ENDBRANCH   2  11
TORSDOF 2
ENDMDL
