REMARK  Name = *****
REMARK  3 active torsions:
REMARK  status: ('A' for Active; 'I' for Inactive)
REMARK    1  A    between atoms: C_4  and  C_7
REMARK    2  A    between atoms: C_7  and  C_14
REMARK    3  A    between atoms: C_8  and  C_9
REMARK                            x       y       z     vdW  Elec       q    Type
REMARK                         _______ _______ _______ _____ _____    ______ ____
ROOT
ATOM      1  C   UNL     1      -2.891   0.266  -0.341  0.00  0.00    +0.000 C 
ATOM      2  C   UNL     1      -3.454   1.467  -0.100  0.00  0.00    +0.000 C 
ENDROOT
BRANCH   1   6
ATOM      3  C   UNL     1       1.347  -0.124   0.170  0.00  0.00    +0.000 A 
ATOM      4  C   UNL     1       0.476  -0.886   0.947  0.00  0.00    +0.000 A 
ATOM      5  C   UNL     1      -0.905  -0.758   0.780  0.00  0.00    +0.000 A 
ATOM      6  C   UNL     1      -1.427   0.137  -0.165  0.00  0.00    +0.000 A 
ATOM      7  C   UNL     1      -0.540   0.895  -0.944  0.00  0.00    +0.000 A 
ATOM      8  C   UNL     1       0.840   0.765  -0.775  0.00  0.00    +0.000 A 
ENDBRANCH   1   6
BRANCH   2   9
ATOM      9  C   UNL     1      -4.842   1.776  -0.224  0.00  0.00    +0.000 A 
ATOM     10  C   UNL     1      -5.979   1.028   0.040  0.00  0.00    +0.000 A 
ATOM     11  C   UNL     1      -7.191   1.733  -0.219  0.00  0.00    +0.000 A 
ATOM     12  C   UNL     1      -6.956   3.014  -0.658  0.00  0.00    +0.000 A 
ATOM     13  S   UNL     1      -5.288   3.362  -0.746  0.00  0.00    +0.000 S 
ENDBRANCH   2   9
BRANCH   1  14
ATOM     14  C   UNL     1      -3.618  -0.890  -0.764  0.00  0.00    +0.000 C 
ATOM     15  N   UNL     1      -4.202  -1.840  -1.088  0.00  0.00    +0.000 NA
ENDBRANCH   1  14
TORSDOF 3
