REMARK  Name = *****
REMARK  3 active torsions:
REMARK  status: ('A' for Active; 'I' for Inactive)
REMARK    1  A    between atoms: C_4  and  C_6
REMARK    2  A    between atoms: C_6  and  N_8
REMARK    3  A    between atoms: N_8  and  C_9
REMARK                            x       y       z     vdW  Elec       q    Type
REMARK                         _______ _______ _______ _____ _____    ______ ____
ROOT
ATOM      1  N   UNL     1       0.338  -3.691  -0.332  0.00  0.00    +0.000 N 
ATOM      2  H   UNL     1       1.260  -3.347  -0.306  0.00  0.00    +0.000 HD
ENDROOT
BRANCH   1   3
ATOM      3  C   UNL     1       0.270  -5.093  -0.174  0.00  0.00    +0.000 A 
ATOM      4  C   UNL     1      -0.872  -5.882  -0.314  0.00  0.00    +0.000 A 
ATOM      5  C   UNL     1      -0.811  -7.272  -0.140  0.00  0.00    +0.000 A 
ATOM      6  C   UNL     1       0.398  -7.886   0.170  0.00  0.00    +0.000 A 
ATOM      7  C   UNL     1       1.550  -7.121   0.303  0.00  0.00    +0.000 A 
ATOM      8  C   UNL     1       1.484  -5.735   0.128  0.00  0.00    +0.000 A 
ATOM      9 CL   UNL     1       0.469  -9.590   0.381  0.00  0.00    +0.000 Cl
ENDBRANCH   1   3
BRANCH   1  10
ATOM     10  C   UNL     1      -0.607  -2.689  -0.516  0.00  0.00    +0.000 C 
ATOM     11  S   UNL     1      -2.278  -2.838  -0.498  0.00  0.00    +0.000 S 
BRANCH  10  15
ATOM     12  C   UNL     1       0.237   0.984  -1.000  0.00  0.00    +0.000 A 
ATOM     13  C   UNL     1       1.542   0.560  -1.051  0.00  0.00    +0.000 A 
ATOM     14  S   UNL     1       1.672  -1.129  -0.866  0.00  0.00    +0.000 S 
ATOM     15  C   UNL     1      -0.041  -1.337  -0.712  0.00  0.00    +0.000 A 
ATOM     16  C   UNL     1      -0.668  -0.100  -0.808  0.00  0.00    +0.000 A 
ENDBRANCH  10  15
ENDBRANCH   1  10
TORSDOF 3
