MODEL 1
REMARK VINA RESULT:      -4.7      0.000      0.000
REMARK  Name = *****
REMARK  3 active torsions:
REMARK  status: ('A' for Active; 'I' for Inactive)
REMARK    1  A    between atoms: C_5  and  C_17
REMARK    2  A    between atoms: C_6  and  C_11
REMARK    3  A    between atoms: C_17  and  S_18
REMARK                            x       y       z     vdW  Elec       q    Type
REMARK                         _______ _______ _______ _____ _____    ______ ____
ROOT
ATOM      1  C   UNL     1      99.446 130.223  84.948  0.00  0.00    +0.000 C 
ATOM      2  C   UNL     1     100.729 130.931  84.541  0.00  0.00    +0.000 C 
ATOM      3  C   UNL     1     101.879 129.933  84.418  0.00  0.00    +0.000 C 
ATOM      4  C   UNL     1     101.531 128.669  83.656  0.00  0.00    +0.000 A 
ATOM      5  C   UNL     1     102.541 127.778  83.207  0.00  0.00    +0.000 A 
ATOM      6  C   UNL     1     102.134 126.611  82.529  0.00  0.00    +0.000 A 
ATOM      7  N   UNL     1     100.834 126.312  82.291  0.00  0.00    +0.000 NA
ATOM      8  C   UNL     1      99.901 127.166  82.746  0.00  0.00    +0.000 A 
ATOM      9  C   UNL     1     100.182 128.335  83.441  0.00  0.00    +0.000 A 
ATOM     10  C   UNL     1      99.043 129.219  83.874  0.00  0.00    +0.000 C 
ENDROOT
BRANCH   6  11
ATOM     11  C   UNL     1     103.061 125.602  81.996  0.00  0.00    +0.000 A 
ATOM     12  C   UNL     1     103.566 124.573  82.810  0.00  0.00    +0.000 A 
ATOM     13  C   UNL     1     104.449 123.620  82.296  0.00  0.00    +0.000 A 
ATOM     14  C   UNL     1     104.829 123.674  80.956  0.00  0.00    +0.000 A 
ATOM     15  C   UNL     1     104.320 124.671  80.128  0.00  0.00    +0.000 A 
ATOM     16  C   UNL     1     103.439 125.625  80.645  0.00  0.00    +0.000 A 
ENDBRANCH   6  11
BRANCH   5  17
ATOM     17  C   UNL     1     104.008 128.088  83.403  0.00  0.00    +0.000 C 
BRANCH  17  18
ATOM     18  S   UNL     1     104.723 128.981  81.991  0.00  0.00    +0.000 S 
ATOM     19  H   UNL     1     104.707 130.317  82.244  0.00  0.00    +0.000 HD
ENDBRANCH  17  18
ENDBRANCH   5  17
TORSDOF 3
ENDMDL
