MODEL 1
REMARK VINA RESULT:      -4.1      0.000      0.000
REMARK  Name = *****
REMARK  6 active torsions:
REMARK  status: ('A' for Active; 'I' for Inactive)
REMARK    1  A    between atoms: C_1  and  C_2
REMARK    2  A    between atoms: C_6  and  C_16
REMARK    3  A    between atoms: C_7  and  C_8
REMARK    4  A    between atoms: C_7  and  C_9
REMARK    5  A    between atoms: C_9  and  C_10
REMARK    6  A    between atoms: C_10  and  C_11
REMARK                            x       y       z     vdW  Elec       q    Type
REMARK                         _______ _______ _______ _____ _____    ______ ____
ROOT
ATOM      1  C   UNL     1      89.967  70.300  85.260  0.00  0.00    +0.000 C 
ATOM      2  C   UNL     1      89.030  70.797  86.369  0.00  0.00    +0.000 C 
ATOM      3  C   UNL     1      89.368  70.051  87.672  0.00  0.00    +0.000 C 
ATOM      4  C   UNL     1      88.578  70.581  88.862  0.00  0.00    +0.000 C 
ATOM      5  C   UNL     1      87.210  71.083  88.524  0.00  0.00    +0.000 C 
ATOM      6  C   UNL     1      86.693  71.178  87.283  0.00  0.00    +0.000 C 
ATOM      7  C   UNL     1      87.482  70.721  86.034  0.00  0.00    +0.000 C 
ATOM      8  C   UNL     1      87.211  71.673  84.841  0.00  0.00    +0.000 C 
ATOM      9  C   UNL     1      85.337  71.823  87.119  0.00  0.00    +0.000 C 
ENDROOT
BRANCH   7  10
ATOM     10  C   UNL     1      87.096  69.259  85.625  0.00  0.00    +0.000 C 
BRANCH  10  11
ATOM     11  C   UNL     1      86.369  68.404  86.670  0.00  0.00    +0.000 C 
BRANCH  11  12
ATOM     12  C   UNL     1      87.199  67.243  87.116  0.00  0.00    +0.000 A 
ATOM     13  C   UNL     1      87.012  66.467  88.243  0.00  0.00    +0.000 A 
ATOM     14  O   UNL     1      87.962  65.502  88.329  0.00  0.00    +0.000 OA
ATOM     15  C   UNL     1      88.771  65.649  87.250  0.00  0.00    +0.000 A 
ATOM     16  C   UNL     1      88.347  66.702  86.473  0.00  0.00    +0.000 A 
ENDBRANCH  11  12
ENDBRANCH  10  11
ENDBRANCH   7  10
TORSDOF 3
ENDMDL
