MODEL 1
REMARK VINA RESULT:      -4.2      0.000      0.000
REMARK  Name = *****
REMARK  3 active torsions:
REMARK  status: ('A' for Active; 'I' for Inactive)
REMARK    1  A    between atoms: C_3  and  C_7
REMARK    2  A    between atoms: C_7  and  C_8
REMARK    3  A    between atoms: C_8  and  C_9
REMARK                            x       y       z     vdW  Elec       q    Type
REMARK                         _______ _______ _______ _____ _____    ______ ____
ROOT
ATOM      1  C   UNL     1      88.327  69.846  86.405  0.00  0.00    +0.000 C 
ATOM      2 CL   UNL     1      86.788  69.994  87.422  0.00  0.00    +0.000 Cl
ATOM      3 CL   UNL     1      89.581  70.808  87.366  0.00  0.00    +0.000 Cl
ENDROOT
BRANCH   1   6
ATOM      4  C   UNL     1      90.253  66.488  86.176  0.00  0.00    +0.000 A 
ATOM      5  C   UNL     1      89.977  67.854  86.085  0.00  0.00    +0.000 A 
ATOM      6  C   UNL     1      88.728  68.363  86.472  0.00  0.00    +0.000 A 
ATOM      7  C   UNL     1      87.810  67.405  86.924  0.00  0.00    +0.000 A 
ATOM      8  N   UNL     1      88.052  66.076  87.028  0.00  0.00    +0.000 NA
ATOM      9  C   UNL     1      89.268  65.645  86.649  0.00  0.00    +0.000 A 
ENDBRANCH   1   6
BRANCH   1  10
ATOM     10  C   UNL     1      88.107  70.535  84.980  0.00  0.00    +0.000 C 
ATOM     11 CL   UNL     1      87.567  69.255  83.758  0.00  0.00    +0.000 Cl
ATOM     12 CL   UNL     1      86.674  71.703  85.056  0.00  0.00    +0.000 Cl
BRANCH  10  13
ATOM     13  C   UNL     1      89.258  71.332  84.341  0.00  0.00    +0.000 A 
ATOM     14  C   UNL     1      89.126  72.710  84.126  0.00  0.00    +0.000 A 
ATOM     15  N   UNL     1      90.067  73.509  83.569  0.00  0.00    +0.000 NA
ATOM     16  C   UNL     1      91.227  72.931  83.212  0.00  0.00    +0.000 A 
ATOM     17  C   UNL     1      91.483  71.586  83.385  0.00  0.00    +0.000 A 
ATOM     18  C   UNL     1      90.491  70.784  83.955  0.00  0.00    +0.000 A 
ENDBRANCH  10  13
ENDBRANCH   1  10
TORSDOF 3
ENDMDL
