MODEL 1
REMARK VINA RESULT:      -4.3      0.000      0.000
REMARK  Name = *****
REMARK  5 active torsions:
REMARK  status: ('A' for Active; 'I' for Inactive)
REMARK    1  A    between atoms: C_1  and  C_2
REMARK    2  A    between atoms: C_2  and  C_3
REMARK    3  A    between atoms: C_2  and  C_10
REMARK    4  A    between atoms: C_3  and  C_4
REMARK    5  A    between atoms: C_10  and  C_11
REMARK                            x       y       z     vdW  Elec       q    Type
REMARK                         _______ _______ _______ _____ _____    ______ ____
ROOT
ATOM      1  C   UNL     1      90.071  67.874  86.165  0.00  0.00    +0.000 C 
ATOM      2  C   UNL     1      88.942  68.906  86.282  0.00  0.00    +0.000 C 
ATOM      3 CL   UNL     1      87.500  68.035  86.977  0.00  0.00    +0.000 Cl
ENDROOT
BRANCH   2   4
ATOM      4  C   UNL     1      89.323  70.096  87.205  0.00  0.00    +0.000 C 
BRANCH   4   5
ATOM      5  C   UNL     1      88.243  70.644  88.115  0.00  0.00    +0.000 A 
ATOM      6  C   UNL     1      88.434  70.677  89.504  0.00  0.00    +0.000 A 
ATOM      7  C   UNL     1      87.442  71.185  90.345  0.00  0.00    +0.000 A 
ATOM      8  C   UNL     1      86.251  71.669  89.808  0.00  0.00    +0.000 A 
ATOM      9  C   UNL     1      86.054  71.648  88.429  0.00  0.00    +0.000 A 
ATOM     10  C   UNL     1      87.044  71.142  87.586  0.00  0.00    +0.000 A 
ENDBRANCH   4   5
ENDBRANCH   2   4
BRANCH   2  11
ATOM     11  C   UNL     1      88.488  69.410  84.882  0.00  0.00    +0.000 C 
BRANCH  11  12
ATOM     12  C   UNL     1      89.148  70.672  84.368  0.00  0.00    +0.000 A 
ATOM     13  C   UNL     1      90.498  70.669  83.992  0.00  0.00    +0.000 A 
ATOM     14  C   UNL     1      91.106  71.835  83.521  0.00  0.00    +0.000 A 
ATOM     15  C   UNL     1      90.370  73.011  83.414  0.00  0.00    +0.000 A 
ATOM     16  C   UNL     1      89.024  73.024  83.773  0.00  0.00    +0.000 A 
ATOM     17  C   UNL     1      88.415  71.860  84.244  0.00  0.00    +0.000 A 
ENDBRANCH  11  12
ENDBRANCH   2  11
TORSDOF 4
ENDMDL
