REMARK  Name = *****
REMARK  5 active torsions:
REMARK  status: ('A' for Active; 'I' for Inactive)
REMARK    1  A    between atoms: C_1  and  C_2
REMARK    2  A    between atoms: C_5  and  C_7
REMARK    3  A    between atoms: C_7  and  O_8
REMARK    4  A    between atoms: O_8  and  C_9
REMARK    5  A    between atoms: C_9  and  C_11
REMARK                            x       y       z     vdW  Elec       q    Type
REMARK                         _______ _______ _______ _____ _____    ______ ____
ROOT
ATOM      1  O   UNL     1      -3.913  -0.315  -0.145  0.00  0.00    +0.000 OA
ENDROOT
BRANCH   1   2
ATOM      2  C   UNL     1      -5.182   0.104   0.066  0.00  0.00    +0.000 C 
ATOM      3  O   UNL     1      -5.545   1.260   0.216  0.00  0.00    +0.000 OA
BRANCH   2   4
ATOM      4  C   UNL     1      -6.115  -1.055   0.082  0.00  0.00    +0.000 A 
ATOM      5  C   UNL     1      -7.492  -0.797   0.143  0.00  0.00    +0.000 A 
ATOM      6  C   UNL     1      -8.406  -1.852   0.162  0.00  0.00    +0.000 A 
ATOM      7  C   UNL     1      -7.952  -3.169   0.124  0.00  0.00    +0.000 A 
ATOM      8  C   UNL     1      -6.584  -3.435   0.068  0.00  0.00    +0.000 A 
ATOM      9  C   UNL     1      -5.665  -2.383   0.048  0.00  0.00    +0.000 A 
ENDBRANCH   2   4
ENDBRANCH   1   2
BRANCH   1  10
ATOM     10  C   UNL     1      -2.908   0.708  -0.152  0.00  0.00    +0.000 C 
BRANCH  10  15
ATOM     11  C   UNL     1       0.336  -0.224   3.985  0.00  0.00    +0.000 C 
ATOM     12  C   UNL     1      -0.765   0.274   3.114  0.00  0.00    +0.000 A 
ATOM     13  C   UNL     1      -1.798   1.128   3.440  0.00  0.00    +0.000 A 
ATOM     14  C   UNL     1      -2.661   1.375   2.334  0.00  0.00    +0.000 A 
ATOM     15  C   UNL     1      -2.262   0.702   1.197  0.00  0.00    +0.000 A 
ATOM     16  S   UNL     1      -0.850  -0.223   1.480  0.00  0.00    +0.000 S 
ENDBRANCH  10  15
ENDBRANCH   1  10
TORSDOF 4
