MODEL 1
REMARK VINA RESULT:      -4.6      0.000      0.000
REMARK  Name = *****
REMARK  6 active torsions:
REMARK  status: ('A' for Active; 'I' for Inactive)
REMARK    1  A    between atoms: C_1  and  C_2
REMARK    2  A    between atoms: C_2  and  C_3
REMARK    3  A    between atoms: C_2  and  O_9
REMARK    4  A    between atoms: O_9  and  C_10
REMARK    5  A    between atoms: C_10  and  C_11
REMARK    6  A    between atoms: C_10  and  C_12
REMARK                            x       y       z     vdW  Elec       q    Type
REMARK                         _______ _______ _______ _____ _____    ______ ____
ROOT
ATOM      1  O   UNL     1      88.269  69.120  87.141  0.00  0.00    +0.000 OA
ENDROOT
BRANCH   1   3
ATOM      2  C   UNL     1      89.773  69.432  85.315  0.00  0.00    +0.000 C 
ATOM      3  C   UNL     1      89.552  68.712  86.644  0.00  0.00    +0.000 C 
BRANCH   3   4
ATOM      4  C   UNL     1      89.608  67.208  86.446  0.00  0.00    +0.000 A 
ATOM      5  C   UNL     1      88.650  66.362  87.026  0.00  0.00    +0.000 A 
ATOM      6  C   UNL     1      88.712  64.982  86.831  0.00  0.00    +0.000 A 
ATOM      7  C   UNL     1      89.727  64.431  86.052  0.00  0.00    +0.000 A 
ATOM      8  C   UNL     1      90.682  65.260  85.466  0.00  0.00    +0.000 A 
ATOM      9  C   UNL     1      90.623  66.642  85.661  0.00  0.00    +0.000 A 
ENDBRANCH   3   4
ENDBRANCH   1   3
BRANCH   1  10
ATOM     10  C   UNL     1      88.233  70.485  87.583  0.00  0.00    +0.000 C 
ATOM     11  C   UNL     1      88.432  70.476  89.097  0.00  0.00    +0.000 C 
BRANCH  10  12
ATOM     12  C   UNL     1      86.911  71.141  87.227  0.00  0.00    +0.000 A 
ATOM     13  C   UNL     1      86.592  71.394  85.886  0.00  0.00    +0.000 A 
ATOM     14  C   UNL     1      85.381  72.002  85.546  0.00  0.00    +0.000 A 
ATOM     15  C   UNL     1      84.479  72.367  86.545  0.00  0.00    +0.000 A 
ATOM     16  C   UNL     1      84.787  72.126  87.882  0.00  0.00    +0.000 A 
ATOM     17  C   UNL     1      85.995  71.518  88.222  0.00  0.00    +0.000 A 
ENDBRANCH  10  12
ENDBRANCH   1  10
TORSDOF 4
ENDMDL
