REMARK  Name = *****
REMARK  3 active torsions:
REMARK  status: ('A' for Active; 'I' for Inactive)
REMARK    1  A    between atoms: C_4  and  C_7
REMARK    2  A    between atoms: C_7  and  C_16
REMARK    3  A    between atoms: C_8  and  C_9
REMARK                            x       y       z     vdW  Elec       q    Type
REMARK                         _______ _______ _______ _____ _____    ______ ____
ROOT
ATOM      1  C   UNL     1      -2.861   0.315  -0.465  0.00  0.00    +0.000 C 
ATOM      2  C   UNL     1      -3.441   1.480  -0.108  0.00  0.00    +0.000 C 
ENDROOT
BRANCH   2   3
ATOM      3  C   UNL     1      -4.866   1.799  -0.250  0.00  0.00    +0.000 A 
ATOM      4  C   UNL     1      -5.447   1.966  -1.511  0.00  0.00    +0.000 A 
ATOM      5  C   UNL     1      -6.799   2.283  -1.607  0.00  0.00    +0.000 A 
ATOM      6  C   UNL     1      -7.584   2.440  -0.471  0.00  0.00    +0.000 A 
ATOM      7  C   UNL     1      -7.009   2.281   0.788  0.00  0.00    +0.000 A 
ATOM      8  C   UNL     1      -5.652   1.964   0.898  0.00  0.00    +0.000 A 
ATOM      9  F   UNL     1      -7.351   2.447  -2.817  0.00  0.00    +0.000 F 
ENDBRANCH   2   3
BRANCH   1  13
ATOM     10  C   UNL     1       1.347  -0.191   0.180  0.00  0.00    +0.000 A 
ATOM     11  C   UNL     1       0.440  -1.081   0.752  0.00  0.00    +0.000 A 
ATOM     12  C   UNL     1      -0.931  -0.915   0.543  0.00  0.00    +0.000 A 
ATOM     13  C   UNL     1      -1.409   0.146  -0.240  0.00  0.00    +0.000 A 
ATOM     14  C   UNL     1      -0.484   1.032  -0.815  0.00  0.00    +0.000 A 
ATOM     15  C   UNL     1       0.886   0.864  -0.604  0.00  0.00    +0.000 A 
ENDBRANCH   1  13
BRANCH   1  16
ATOM     16  C   UNL     1      -3.607  -0.778  -1.010  0.00  0.00    +0.000 C 
ATOM     17  N   UNL     1      -4.204  -1.672  -1.447  0.00  0.00    +0.000 NA
ENDBRANCH   1  16
TORSDOF 3
