MODEL 1
REMARK VINA RESULT:      -3.7      0.000      0.000
REMARK  Name = *****
REMARK  2 active torsions:
REMARK  status: ('A' for Active; 'I' for Inactive)
REMARK    1  A    between atoms: N_5  and  C_6
REMARK    2  A    between atoms: C_6  and  C_7
REMARK                            x       y       z     vdW  Elec       q    Type
REMARK                         _______ _______ _______ _____ _____    ______ ____
ROOT
ATOM      1  C   UNL     1     102.812 127.303  83.011  0.00  0.00    +0.000 C 
ENDROOT
BRANCH   1   6
ATOM      2  C   UNL     1     104.583 123.179  80.882  0.00  0.00    +0.000 C 
ATOM      3  C   UNL     1     105.029 123.261  82.326  0.00  0.00    +0.000 C 
ATOM      4  S   UNL     1     103.964 124.472  83.150  0.00  0.00    +0.000 S 
ATOM      5  C   UNL     1     103.815 125.547  81.779  0.00  0.00    +0.000 C 
ATOM      6  N   UNL     1     103.325 126.729  81.767  0.00  0.00    +0.000 NA
ATOM      7  S   UNL     1     104.417 124.875  80.277  0.00  0.00    +0.000 S 
ENDBRANCH   1   6
BRANCH   1   8
ATOM      8  C   UNL     1     101.324 127.581  82.956  0.00  0.00    +0.000 A 
ATOM      9  C   UNL     1     100.422 126.648  82.426  0.00  0.00    +0.000 A 
ATOM     10  C   UNL     1      99.049 126.905  82.423  0.00  0.00    +0.000 A 
ATOM     11  C   UNL     1      98.560 128.092  82.962  0.00  0.00    +0.000 A 
ATOM     12  C   UNL     1      99.443 129.023  83.508  0.00  0.00    +0.000 A 
ATOM     13  C   UNL     1     100.816 128.766  83.509  0.00  0.00    +0.000 A 
ENDBRANCH   1   8
TORSDOF 2
ENDMDL
