MODEL 1
REMARK VINA RESULT:      -4.5      0.000      0.000
REMARK  Name = *****
REMARK  3 active torsions:
REMARK  status: ('A' for Active; 'I' for Inactive)
REMARK    1  A    between atoms: C_4  and  C_7
REMARK    2  A    between atoms: C_7  and  O_8
REMARK    3  A    between atoms: O_8  and  C_9
REMARK                            x       y       z     vdW  Elec       q    Type
REMARK                         _______ _______ _______ _____ _____    ______ ____
ROOT
ATOM      1  O   UNL     1     101.394 125.942  82.313  0.00  0.00    +0.000 OA
ENDROOT
BRANCH   1   2
ATOM      2  C   UNL     1     100.774 127.084  82.745  0.00  0.00    +0.000 A 
ATOM      3  C   UNL     1     101.400 128.160  83.378  0.00  0.00    +0.000 A 
ATOM      4  C   UNL     1     100.651 129.274  83.779  0.00  0.00    +0.000 A 
ATOM      5  C   UNL     1      99.276 129.321  83.551  0.00  0.00    +0.000 A 
ATOM      6  C   UNL     1      98.645 128.251  82.923  0.00  0.00    +0.000 A 
ATOM      7  C   UNL     1      99.394 127.145  82.527  0.00  0.00    +0.000 A 
ATOM      8  F   UNL     1      98.762 126.128  81.921  0.00  0.00    +0.000 F 
ENDBRANCH   1   2
BRANCH   1   9
ATOM      9  C   UNL     1     102.605 125.564  82.967  0.00  0.00    +0.000 C 
BRANCH   9  13
ATOM     10  C   UNL     1     105.349 123.577  80.283  0.00  0.00    +0.000 A 
ATOM     11  C   UNL     1     104.671 124.718  79.858  0.00  0.00    +0.000 A 
ATOM     12  C   UNL     1     103.775 125.359  80.716  0.00  0.00    +0.000 A 
ATOM     13  C   UNL     1     103.534 124.860  82.004  0.00  0.00    +0.000 A 
ATOM     14  C   UNL     1     104.235 123.717  82.423  0.00  0.00    +0.000 A 
ATOM     15  C   UNL     1     105.132 123.078  81.565  0.00  0.00    +0.000 A 
ENDBRANCH   9  13
ENDBRANCH   1   9
TORSDOF 3
ENDMDL
