MODEL 1
REMARK VINA RESULT:      -4.7      0.000      0.000
REMARK  Name = *****
REMARK  2 active torsions:
REMARK  status: ('A' for Active; 'I' for Inactive)
REMARK    1  A    between atoms: C_4  and  C_7
REMARK    2  A    between atoms: C_7  and  P_9
REMARK                            x       y       z     vdW  Elec       q    Type
REMARK                         _______ _______ _______ _____ _____    ______ ____
ROOT
ATOM      1  C   UNL     1     102.013 126.114  82.007  0.00  0.00    +0.000 C 
ATOM      2  C   UNL     1     102.946 125.318  81.533  0.00  0.00    +0.000 C 
ATOM      3  C   UNL     1     104.077 124.538  81.084  0.00  0.00    +0.000 C 
ATOM      4  C   UNL     1     104.441 123.371  81.768  0.00  0.00    +0.000 C 
ATOM      5  C   UNL     1     105.511 122.593  81.319  0.00  0.00    +0.000 C 
ATOM      6  C   UNL     1     106.216 122.969  80.176  0.00  0.00    +0.000 C 
ATOM      7  C   UNL     1     105.849 124.116  79.475  0.00  0.00    +0.000 C 
ATOM      8  C   UNL     1     104.778 124.893  79.922  0.00  0.00    +0.000 C 
ENDROOT
BRANCH   1  12
ATOM      9  C   UNL     1      99.194 128.869  83.580  0.00  0.00    +0.000 A 
ATOM     10  C   UNL     1     100.559 129.089  83.754  0.00  0.00    +0.000 A 
ATOM     11  C   UNL     1     101.484 128.178  83.241  0.00  0.00    +0.000 A 
ATOM     12  C   UNL     1     101.049 127.030  82.562  0.00  0.00    +0.000 A 
ATOM     13  C   UNL     1      99.675 126.829  82.376  0.00  0.00    +0.000 A 
ATOM     14  C   UNL     1      98.751 127.743  82.889  0.00  0.00    +0.000 A 
ENDBRANCH   1  12
BRANCH   1  15
ATOM     15  P   UNL     1     103.675 126.688  82.548  0.00  0.00    +0.000 P 
ATOM     16  H   UNL     1     104.839 126.292  81.921  0.00  0.00    +0.000 HD
ENDBRANCH   1  15
TORSDOF 2
ENDMDL
