MODEL 1
REMARK VINA RESULT:      -4.3      0.000      0.000
REMARK  Name = *****
REMARK  3 active torsions:
REMARK  status: ('A' for Active; 'I' for Inactive)
REMARK    1  A    between atoms: C_2  and  C_3
REMARK    2  A    between atoms: C_2  and  S_9
REMARK    3  A    between atoms: S_9  and  C_10
REMARK                            x       y       z     vdW  Elec       q    Type
REMARK                         _______ _______ _______ _____ _____    ______ ____
ROOT
ATOM      1  C   UNL     1      87.824  70.432  84.708  0.00  0.00    +0.000 C 
ATOM      2  C   UNL     1      87.679  70.691  86.015  0.00  0.00    +0.000 C 
ENDROOT
BRANCH   2   3
ATOM      3  C   UNL     1      86.457  71.328  86.532  0.00  0.00    +0.000 A 
ATOM      4  C   UNL     1      86.248  71.440  87.914  0.00  0.00    +0.000 A 
ATOM      5  C   UNL     1      85.091  72.043  88.410  0.00  0.00    +0.000 A 
ATOM      6  C   UNL     1      84.128  72.535  87.530  0.00  0.00    +0.000 A 
ATOM      7  C   UNL     1      84.322  72.424  86.154  0.00  0.00    +0.000 A 
ATOM      8  C   UNL     1      85.480  71.823  85.656  0.00  0.00    +0.000 A 
ENDBRANCH   2   3
BRANCH   2   9
ATOM      9  S   UNL     1      88.938  70.335  87.154  0.00  0.00    +0.000 S 
BRANCH   9  10
ATOM     10  C   UNL     1      88.961  68.558  86.988  0.00  0.00    +0.000 A 
ATOM     11  C   UNL     1      90.029  67.938  86.329  0.00  0.00    +0.000 A 
ATOM     12  C   UNL     1      90.061  66.547  86.187  0.00  0.00    +0.000 A 
ATOM     13  C   UNL     1      89.022  65.767  86.695  0.00  0.00    +0.000 A 
ATOM     14  C   UNL     1      87.950  66.377  87.346  0.00  0.00    +0.000 A 
ATOM     15  C   UNL     1      87.924  67.763  87.486  0.00  0.00    +0.000 A 
ATOM     16  F   UNL     1      86.878  68.319  88.117  0.00  0.00    +0.000 F 
ENDBRANCH   9  10
ENDBRANCH   2   9
TORSDOF 3
ENDMDL
