MODEL 1
REMARK VINA RESULT:      -5.3      0.000      0.000
REMARK  Name = *****
REMARK  2 active torsions:
REMARK  status: ('A' for Active; 'I' for Inactive)
REMARK    1  A    between atoms: C_2  and  C_9
REMARK    2  A    between atoms: C_10  and  C_11
REMARK                            x       y       z     vdW  Elec       q    Type
REMARK                         _______ _______ _______ _____ _____    ______ ____
ROOT
ATOM      1  C   UNL     1     103.065 126.231  81.302  0.00  0.00    +0.000 C 
ATOM      2  C   UNL     1     102.036 125.942  82.116  0.00  0.00    +0.000 C 
ENDROOT
BRANCH   1   4
ATOM      3  C   UNL     1     104.106 123.940  81.348  0.00  0.00    +0.000 A 
ATOM      4  C   UNL     1     104.028 125.233  80.814  0.00  0.00    +0.000 A 
ATOM      5  C   UNL     1     104.859 125.565  79.736  0.00  0.00    +0.000 A 
ATOM      6  C   UNL     1     105.761 124.629  79.232  0.00  0.00    +0.000 A 
ATOM      7  C   UNL     1     105.851 123.356  79.771  0.00  0.00    +0.000 A 
ATOM      8  C   UNL     1     105.017 123.022  80.827  0.00  0.00    +0.000 A 
ATOM      9  F   UNL     1     105.080 121.792  81.353  0.00  0.00    +0.000 F 
ATOM     10  F   UNL     1     106.554 124.968  78.207  0.00  0.00    +0.000 F 
ENDBRANCH   1   4
BRANCH   2  11
ATOM     11  C   UNL     1     101.073 126.939  82.606  0.00  0.00    +0.000 A 
ATOM     12  C   UNL     1     101.555 128.101  83.221  0.00  0.00    +0.000 A 
ATOM     13  C   UNL     1     100.666 129.077  83.669  0.00  0.00    +0.000 A 
ATOM     14  C   UNL     1      99.296 128.930  83.512  0.00  0.00    +0.000 A 
ATOM     15  C   UNL     1      98.821 127.786  82.888  0.00  0.00    +0.000 A 
ATOM     16  C   UNL     1      99.689 126.796  82.431  0.00  0.00    +0.000 A 
ATOM     17  F   UNL     1      97.502 127.630  82.716  0.00  0.00    +0.000 F 
ATOM     18  F   UNL     1     101.145 130.178  84.262  0.00  0.00    +0.000 F 
ENDBRANCH   2  11
TORSDOF 2
ENDMDL
