MODEL 1
REMARK VINA RESULT:      -4.9      0.000      0.000
REMARK  Name = *****
REMARK  3 active torsions:
REMARK  status: ('A' for Active; 'I' for Inactive)
REMARK    1  A    between atoms: C_6  and  N_7
REMARK    2  A    between atoms: N_9  and  C_10
REMARK    3  A    between atoms: N_9  and  O_17
REMARK                            x       y       z     vdW  Elec       q    Type
REMARK                         _______ _______ _______ _____ _____    ______ ____
ROOT
ATOM      1  N   UNL     1      89.971  66.160  85.894  0.00  0.00    +0.000 NA
ATOM      2  C   UNL     1      89.122  65.684  86.757  0.00  0.00    +0.000 C 
ATOM      3  N   UNL     1      89.116  64.377  87.195  0.00  0.00    +0.000 N 
ENDROOT
BRANCH   1   9
ATOM      4  C   UNL     1      89.855  67.957  84.253  0.00  0.00    +0.000 A 
ATOM      5  C   UNL     1      89.728  69.316  83.955  0.00  0.00    +0.000 A 
ATOM      6  C   UNL     1      89.588  70.240  84.989  0.00  0.00    +0.000 A 
ATOM      7  C   UNL     1      89.579  69.816  86.317  0.00  0.00    +0.000 A 
ATOM      8  C   UNL     1      89.704  68.455  86.610  0.00  0.00    +0.000 A 
ATOM      9  C   UNL     1      89.829  67.518  85.581  0.00  0.00    +0.000 A 
ATOM     10 CL   UNL     1      89.433  71.913  84.626  0.00  0.00    +0.000 Cl
ENDBRANCH   1   9
BRANCH   3  11
ATOM     11  C   UNL     1      88.199  63.769  88.089  0.00  0.00    +0.000 A 
ATOM     12  C   UNL     1      87.277  62.788  87.689  0.00  0.00    +0.000 A 
ATOM     13  C   UNL     1      86.391  62.207  88.607  0.00  0.00    +0.000 A 
ATOM     14  C   UNL     1      86.416  62.597  89.942  0.00  0.00    +0.000 A 
ATOM     15  C   UNL     1      87.320  63.561  90.369  0.00  0.00    +0.000 A 
ATOM     16  C   UNL     1      88.204  64.136  89.449  0.00  0.00    +0.000 A 
ATOM     17 CL   UNL     1      85.328  61.882  91.066  0.00  0.00    +0.000 Cl
ENDBRANCH   3  11
BRANCH   3  18
ATOM     18  O   UNL     1      90.202  63.633  86.696  0.00  0.00    +0.000 OA
ATOM     19  H   UNL     1      90.813  64.225  86.230  0.00  0.00    +0.000 HD
ENDBRANCH   3  18
TORSDOF 3
ENDMDL
