REMARK  Name = *****
REMARK  2 active torsions:
REMARK  status: ('A' for Active; 'I' for Inactive)
REMARK    1  A    between atoms: C_4  and  C_7
REMARK    2  A    between atoms: C_8  and  C_10
REMARK                            x       y       z     vdW  Elec       q    Type
REMARK                         _______ _______ _______ _____ _____    ______ ____
ROOT
ATOM      1  C   UNL     1      -2.835   0.577  -0.149  0.00  0.00    +0.000 C 
ATOM      2  C   UNL     1      -3.786   0.005   0.893  0.00  0.00    +0.000 C 
ATOM      3  O   UNL     1      -3.728  -0.509  -0.447  0.00  0.00    +0.000 OA
ENDROOT
BRANCH   2   4
ATOM      4  C   UNL     1      -5.011   0.785   1.292  0.00  0.00    +0.000 A 
ATOM      5  C   UNL     1      -6.301   0.361   0.927  0.00  0.00    +0.000 A 
ATOM      6  C   UNL     1      -7.439   1.078   1.305  0.00  0.00    +0.000 A 
ATOM      7  C   UNL     1      -7.303   2.238   2.062  0.00  0.00    +0.000 A 
ATOM      8  C   UNL     1      -6.041   2.681   2.443  0.00  0.00    +0.000 A 
ATOM      9  C   UNL     1      -4.907   1.957   2.061  0.00  0.00    +0.000 A 
ATOM     10 CL   UNL     1      -8.700   3.125   2.530  0.00  0.00    +0.000 Cl
ENDBRANCH   2   4
BRANCH   1  14
ATOM     11  C   UNL     1       1.404  -0.271   0.111  0.00  0.00    +0.000 A 
ATOM     12  C   UNL     1       0.638  -0.850  -0.897  0.00  0.00    +0.000 A 
ATOM     13  C   UNL     1      -0.730  -0.577  -0.977  0.00  0.00    +0.000 A 
ATOM     14  C   UNL     1      -1.363   0.273  -0.056  0.00  0.00    +0.000 A 
ATOM     15  C   UNL     1      -0.565   0.849   0.948  0.00  0.00    +0.000 A 
ATOM     16  C   UNL     1       0.803   0.580   1.034  0.00  0.00    +0.000 A 
ENDBRANCH   1  14
TORSDOF 2
