MODEL 1
REMARK VINA RESULT:      -4.8      0.000      0.000
REMARK  Name = *****
REMARK  2 active torsions:
REMARK  status: ('A' for Active; 'I' for Inactive)
REMARK    1  A    between atoms: C_6  and  C_7
REMARK    2  A    between atoms: N_9  and  C_10
REMARK                            x       y       z     vdW  Elec       q    Type
REMARK                         _______ _______ _______ _____ _____    ______ ____
ROOT
ATOM      1  C   UNL     1     102.973 126.224  81.772  0.00  0.00    +0.000 C 
ATOM      2  O   UNL     1     103.124 127.017  80.852  0.00  0.00    +0.000 OA
ATOM      3  N   UNL     1     102.216 126.411  82.910  0.00  0.00    +0.000 N 
ATOM      4  H   UNL     1     102.252 125.693  83.582  0.00  0.00    +0.000 HD
ENDROOT
BRANCH   1  10
ATOM      5  C   UNL     1     104.216 124.507  80.479  0.00  0.00    +0.000 A 
ATOM      6  C   UNL     1     104.904 123.295  80.386  0.00  0.00    +0.000 A 
ATOM      7  C   UNL     1     105.073 122.494  81.520  0.00  0.00    +0.000 A 
ATOM      8  C   UNL     1     104.544 122.908  82.749  0.00  0.00    +0.000 A 
ATOM      9  C   UNL     1     103.859 124.125  82.846  0.00  0.00    +0.000 A 
ATOM     10  C   UNL     1     103.705 124.930  81.712  0.00  0.00    +0.000 A 
ATOM     11 CL   UNL     1     104.697 121.962  84.187  0.00  0.00    +0.000 Cl
ATOM     12 CL   UNL     1     105.935 121.009  81.334  0.00  0.00    +0.000 Cl
ENDBRANCH   1  10
BRANCH   3  13
ATOM     13  C   UNL     1     101.396 127.519  83.219  0.00  0.00    +0.000 A 
ATOM     14  C   UNL     1     100.057 127.457  82.802  0.00  0.00    +0.000 A 
ATOM     15  C   UNL     1      99.163 128.491  83.050  0.00  0.00    +0.000 A 
ATOM     16  C   UNL     1      99.618 129.614  83.723  0.00  0.00    +0.000 A 
ATOM     17  C   UNL     1     100.942 129.711  84.142  0.00  0.00    +0.000 A 
ATOM     18  C   UNL     1     101.834 128.661  83.890  0.00  0.00    +0.000 A 
ATOM     19  F   UNL     1      98.774 130.622  83.970  0.00  0.00    +0.000 F 
ATOM     20  F   UNL     1      99.623 126.367  82.149  0.00  0.00    +0.000 F 
ENDBRANCH   3  13
TORSDOF 2
ENDMDL
