MODEL 1
REMARK VINA RESULT:      -4.7      0.000      0.000
REMARK  Name = *****
REMARK  4 active torsions:
REMARK  status: ('A' for Active; 'I' for Inactive)
REMARK    1  A    between atoms: C_1  and  C_2
REMARK    2  A    between atoms: C_5  and  C_8
REMARK    3  A    between atoms: C_8  and  O_9
REMARK    4  A    between atoms: O_9  and  C_10
REMARK                            x       y       z     vdW  Elec       q    Type
REMARK                         _______ _______ _______ _____ _____    ______ ____
ROOT
ATOM      1  O   UNL     1      88.676  69.713  86.533  0.00  0.00    +0.000 OA
ENDROOT
BRANCH   1   2
ATOM      2  C   UNL     1      88.748  68.357  86.691  0.00  0.00    +0.000 A 
ATOM      3  C   UNL     1      89.858  67.762  86.083  0.00  0.00    +0.000 A 
ATOM      4  C   UNL     1      90.052  66.384  86.167  0.00  0.00    +0.000 A 
ATOM      5  C   UNL     1      89.146  65.584  86.857  0.00  0.00    +0.000 A 
ATOM      6  C   UNL     1      88.043  66.180  87.462  0.00  0.00    +0.000 A 
ATOM      7  C   UNL     1      87.837  67.560  87.384  0.00  0.00    +0.000 A 
ATOM      8 CL   UNL     1      86.915  65.201  88.319  0.00  0.00    +0.000 Cl
ATOM      9 CL   UNL     1      91.421  65.666  85.413  0.00  0.00    +0.000 Cl
ENDBRANCH   1   2
BRANCH   1  10
ATOM     10  C   UNL     1      88.321  70.490  87.676  0.00  0.00    +0.000 C 
BRANCH  10  15
ATOM     11  C   UNL     1      83.142  72.973  86.691  0.00  0.00    +0.000 C 
ATOM     12  C   UNL     1      84.487  72.360  86.946  0.00  0.00    +0.000 A 
ATOM     13  C   UNL     1      84.905  72.079  88.252  0.00  0.00    +0.000 A 
ATOM     14  C   UNL     1      86.144  71.478  88.484  0.00  0.00    +0.000 A 
ATOM     15  C   UNL     1      86.983  71.137  87.415  0.00  0.00    +0.000 A 
ATOM     16  C   UNL     1      86.553  71.399  86.108  0.00  0.00    +0.000 A 
ATOM     17  C   UNL     1      85.315  72.003  85.877  0.00  0.00    +0.000 A 
ENDBRANCH  10  15
ENDBRANCH   1  10
TORSDOF 3
ENDMDL
