MODEL 1
REMARK VINA RESULT:      -4.6      0.000      0.000
REMARK  Name = *****
REMARK  6 active torsions:
REMARK  status: ('A' for Active; 'I' for Inactive)
REMARK    1  A    between atoms: C_1  and  C_2
REMARK    2  A    between atoms: C_4  and  C_17
REMARK    3  A    between atoms: C_5  and  P_9
REMARK    4  A    between atoms: C_6  and  C_8
REMARK    5  A    between atoms: P_9  and  N_10
REMARK    6  A    between atoms: N_10  and  C_11
REMARK                            x       y       z     vdW  Elec       q    Type
REMARK                         _______ _______ _______ _____ _____    ______ ____
ROOT
ATOM      1  C   UNL     1      89.327  70.464  87.121  0.00  0.00    +0.000 C 
ATOM      2  C   UNL     1      89.070  68.995  86.972  0.00  0.00    +0.000 A 
ATOM      3  C   UNL     1      87.847  68.442  87.362  0.00  0.00    +0.000 A 
ATOM      4  C   UNL     1      87.575  67.069  87.202  0.00  0.00    +0.000 A 
ATOM      5  C   UNL     1      88.554  66.244  86.597  0.00  0.00    +0.000 A 
ATOM      6  C   UNL     1      89.796  66.790  86.195  0.00  0.00    +0.000 A 
ATOM      7  C   UNL     1      90.030  68.166  86.385  0.00  0.00    +0.000 A 
ATOM      8  C   UNL     1      90.889  65.978  85.544  0.00  0.00    +0.000 C 
ATOM      9  C   UNL     1      86.229  66.568  87.665  0.00  0.00    +0.000 C 
ENDROOT
BRANCH   5  10
ATOM     10  P   UNL     1      88.275  64.487  86.399  0.00  0.00    +0.000 P 
BRANCH  10  11
ATOM     11  N   UNL     1      88.681  64.056  87.804  0.00  0.00    +0.000 NA
BRANCH  11  12
ATOM     12  C   UNL     1      87.808  63.501  88.683  0.00  0.00    +0.000 A 
ATOM     13  C   UNL     1      87.545  63.887  90.017  0.00  0.00    +0.000 A 
ATOM     14  C   UNL     1      86.608  63.222  90.820  0.00  0.00    +0.000 A 
ATOM     15  C   UNL     1      85.898  62.139  90.318  0.00  0.00    +0.000 A 
ATOM     16  C   UNL     1      86.127  61.724  89.012  0.00  0.00    +0.000 A 
ATOM     17  C   UNL     1      87.065  62.397  88.218  0.00  0.00    +0.000 A 
ENDBRANCH  11  12
ENDBRANCH  10  11
ENDBRANCH   5  10
TORSDOF 3
ENDMDL
