MODEL 1
REMARK VINA RESULT:      -4.7      0.000      0.000
REMARK  Name = *****
REMARK  3 active torsions:
REMARK  status: ('A' for Active; 'I' for Inactive)
REMARK    1  A    between atoms: C_5  and  C_7
REMARK    2  A    between atoms: C_7  and  O_8
REMARK    3  A    between atoms: O_8  and  C_9
REMARK                            x       y       z     vdW  Elec       q    Type
REMARK                         _______ _______ _______ _____ _____    ______ ____
ROOT
ATOM      1  O   UNL     1     102.691 127.964  83.519  0.00  0.00    +0.000 OA
ENDROOT
BRANCH   1   2
ATOM      2  C   UNL     1     101.344 127.982  83.279  0.00  0.00    +0.000 A 
ATOM      3  C   UNL     1     100.687 129.161  83.655  0.00  0.00    +0.000 A 
ATOM      4  C   UNL     1      99.314 129.331  83.472  0.00  0.00    +0.000 A 
ATOM      5  C   UNL     1      98.565 128.304  82.906  0.00  0.00    +0.000 A 
ATOM      6  C   UNL     1      99.204 127.126  82.534  0.00  0.00    +0.000 A 
ATOM      7  C   UNL     1     100.578 126.962  82.716  0.00  0.00    +0.000 A 
ATOM      8  F   UNL     1     101.130 125.797  82.342  0.00  0.00    +0.000 F 
ATOM      9  F   UNL     1      98.480 126.136  81.992  0.00  0.00    +0.000 F 
ATOM     10  F   UNL     1     101.383 130.168  84.206  0.00  0.00    +0.000 F 
ENDBRANCH   1   2
BRANCH   1  11
ATOM     11  C   UNL     1     103.569 128.183  82.412  0.00  0.00    +0.000 C 
BRANCH  11  16
ATOM     12  C   UNL     1     104.825 124.587  82.056  0.00  0.00    +0.000 A 
ATOM     13  C   UNL     1     104.637 124.366  80.693  0.00  0.00    +0.000 A 
ATOM     14  C   UNL     1     104.111 125.379  79.894  0.00  0.00    +0.000 A 
ATOM     15  C   UNL     1     103.781 126.606  80.464  0.00  0.00    +0.000 A 
ATOM     16  C   UNL     1     103.976 126.855  81.825  0.00  0.00    +0.000 A 
ATOM     17  C   UNL     1     104.492 125.821  82.622  0.00  0.00    +0.000 A 
ATOM     18  F   UNL     1     103.261 127.560  79.677  0.00  0.00    +0.000 F 
ENDBRANCH  11  16
ENDBRANCH   1  11
TORSDOF 3
ENDMDL
