REMARK  Name = *****
REMARK  2 active torsions:
REMARK  status: ('A' for Active; 'I' for Inactive)
REMARK    1  A    between atoms: C_4  and  C_7
REMARK    2  A    between atoms: C_8  and  C_9
REMARK                            x       y       z     vdW  Elec       q    Type
REMARK                         _______ _______ _______ _____ _____    ______ ____
ROOT
ATOM      1  C   UNL     1      -0.859  -2.765  -0.002  0.00  0.00    +0.000 C 
ATOM      2  C   UNL     1      -1.219  -3.911   0.002  0.00  0.00    +0.000 C 
ENDROOT
BRANCH   1   6
ATOM      3  C   UNL     1       0.415   1.331   0.314  0.00  0.00    +0.000 C 
ATOM      4  C   UNL     1       1.398   0.336  -0.294  0.00  0.00    +0.000 C 
ATOM      5  C   UNL     1       1.043  -1.100   0.103  0.00  0.00    +0.000 C 
ATOM      6  C   UNL     1      -0.431  -1.403  -0.006  0.00  0.00    +0.000 C 
ATOM      7  C   UNL     1      -1.350  -0.429  -0.126  0.00  0.00    +0.000 C 
ATOM      8  C   UNL     1      -1.017   1.034  -0.131  0.00  0.00    +0.000 C 
ENDBRANCH   1   6
BRANCH   2   9
ATOM      9  C   UNL     1      -1.649  -5.270   0.005  0.00  0.00    +0.000 A 
ATOM     10  C   UNL     1      -0.810  -6.363  -0.006  0.00  0.00    +0.000 A 
ATOM     11  C   UNL     1      -1.529  -7.595  -0.000  0.00  0.00    +0.000 A 
ATOM     12  C   UNL     1      -2.892  -7.395   0.014  0.00  0.00    +0.000 A 
ATOM     13  S   UNL     1      -3.294  -5.732   0.021  0.00  0.00    +0.000 S 
ENDBRANCH   2   9
TORSDOF 2
