MODEL 1
REMARK VINA RESULT:      -4.1      0.000      0.000
REMARK  Name = *****
REMARK  2 active torsions:
REMARK  status: ('A' for Active; 'I' for Inactive)
REMARK    1  A    between atoms: C_4  and  C_6
REMARK    2  A    between atoms: C_7  and  C_8
REMARK                            x       y       z     vdW  Elec       q    Type
REMARK                         _______ _______ _______ _____ _____    ______ ____
ROOT
ATOM      1  C   UNL     1     101.649 126.235  82.346  0.00  0.00    +0.000 C 
ATOM      2  C   UNL     1     102.589 125.541  82.067  0.00  0.00    +0.000 C 
ENDROOT
BRANCH   2   3
ATOM      3  C   UNL     1     103.701 124.707  81.735  0.00  0.00    +0.000 A 
ATOM      4  C   UNL     1     104.197 124.687  80.428  0.00  0.00    +0.000 A 
ATOM      5  C   UNL     1     105.284 123.871  80.104  0.00  0.00    +0.000 A 
ATOM      6  C   UNL     1     105.869 123.077  81.088  0.00  0.00    +0.000 A 
ATOM      7  C   UNL     1     105.380 123.092  82.394  0.00  0.00    +0.000 A 
ATOM      8  C   UNL     1     104.293 123.908  82.717  0.00  0.00    +0.000 A 
ATOM      9 BR   UNL     1     107.339 121.971  80.650  0.00  0.00    +0.000 Br
ENDBRANCH   2   3
BRANCH   1  13
ATOM     10  C   UNL     1      98.319 127.772  82.822  0.00  0.00    +0.000 A 
ATOM     11  C   UNL     1      98.977 128.786  83.482  0.00  0.00    +0.000 A 
ATOM     12  S   UNL     1     100.668 128.525  83.537  0.00  0.00    +0.000 S 
ATOM     13  C   UNL     1     100.530 127.054  82.678  0.00  0.00    +0.000 A 
ATOM     14  C   UNL     1      99.220 126.768  82.356  0.00  0.00    +0.000 A 
ENDBRANCH   1  13
TORSDOF 2
ENDMDL
