MODEL 1
REMARK VINA RESULT:      -5.0      0.000      0.000
REMARK  Name = *****
REMARK  3 active torsions:
REMARK  status: ('A' for Active; 'I' for Inactive)
REMARK    1  A    between atoms: C_3  and  O_9
REMARK    2  A    between atoms: O_9  and  C_10
REMARK    3  A    between atoms: C_10  and  C_12
REMARK                            x       y       z     vdW  Elec       q    Type
REMARK                         _______ _______ _______ _____ _____    ______ ____
ROOT
ATOM      1  C   UNL     1     102.702 125.641  83.551  0.00  0.00    +0.000 C 
ATOM      2  O   UNL     1     102.235 125.199  84.590  0.00  0.00    +0.000 OA
ENDROOT
BRANCH   1   3
ATOM      3  C   UNL     1     103.466 124.801  82.595  0.00  0.00    +0.000 A 
ATOM      4  C   UNL     1     104.128 123.626  82.967  0.00  0.00    +0.000 A 
ATOM      5  C   UNL     1     104.861 122.892  82.038  0.00  0.00    +0.000 A 
ATOM      6  C   UNL     1     104.925 123.333  80.723  0.00  0.00    +0.000 A 
ATOM      7  C   UNL     1     104.262 124.487  80.321  0.00  0.00    +0.000 A 
ATOM      8  C   UNL     1     103.529 125.222  81.255  0.00  0.00    +0.000 A 
ATOM      9  F   UNL     1     105.633 122.633  79.826  0.00  0.00    +0.000 F 
ATOM     10  F   UNL     1     104.068 123.154  84.220  0.00  0.00    +0.000 F 
ENDBRANCH   1   3
BRANCH   1  11
ATOM     11  O   UNL     1     102.556 126.920  83.056  0.00  0.00    +0.000 OA
BRANCH  11  14
ATOM     12  C   UNL     1      98.918 127.158  82.427  0.00  0.00    +0.000 A 
ATOM     13  C   UNL     1     100.221 126.662  82.434  0.00  0.00    +0.000 A 
ATOM     14  C   UNL     1     101.248 127.435  82.982  0.00  0.00    +0.000 A 
ATOM     15  C   UNL     1     100.988 128.687  83.557  0.00  0.00    +0.000 A 
ATOM     16  C   UNL     1      99.675 129.171  83.553  0.00  0.00    +0.000 A 
ATOM     17  C   UNL     1      98.646 128.409  82.986  0.00  0.00    +0.000 A 
ATOM     18 CL   UNL     1      99.248 130.701  84.238  0.00  0.00    +0.000 Cl
ATOM     19 CL   UNL     1     102.290 129.594  84.253  0.00  0.00    +0.000 Cl
ENDBRANCH  11  14
ENDBRANCH   1  11
TORSDOF 3
ENDMDL
