MODEL 1
REMARK VINA RESULT:      -4.5      0.000      0.000
REMARK  Name = *****
REMARK  3 active torsions:
REMARK  status: ('A' for Active; 'I' for Inactive)
REMARK    1  A    between atoms: C_4  and  C_7
REMARK    2  A    between atoms: C_7  and  S_9
REMARK    3  A    between atoms: S_9  and  C_10
REMARK                            x       y       z     vdW  Elec       q    Type
REMARK                         _______ _______ _______ _____ _____    ______ ____
ROOT
ATOM      1  C   UNL     1     103.129 126.236  83.406  0.00  0.00    +0.000 A 
ATOM      2  C   UNL     1     103.036 127.095  82.307  0.00  0.00    +0.000 A 
ATOM      3  C   UNL     1     103.338 126.644  81.025  0.00  0.00    +0.000 A 
ATOM      4  C   UNL     1     103.741 125.332  80.823  0.00  0.00    +0.000 A 
ATOM      5  C   UNL     1     103.843 124.468  81.904  0.00  0.00    +0.000 A 
ATOM      6  C   UNL     1     103.542 124.916  83.185  0.00  0.00    +0.000 A 
ATOM      7  F   UNL     1     103.656 124.066  84.218  0.00  0.00    +0.000 F 
ATOM      8  F   UNL     1     104.242 123.202  81.715  0.00  0.00    +0.000 F 
ATOM      9  F   UNL     1     104.038 124.901  79.589  0.00  0.00    +0.000 F 
ATOM     10  F   UNL     1     103.248 127.483  79.983  0.00  0.00    +0.000 F 
ATOM     11  F   UNL     1     102.655 128.371  82.474  0.00  0.00    +0.000 F 
ENDROOT
BRANCH   1  12
ATOM     12  S   UNL     1     102.735 126.808  85.050  0.00  0.00    +0.000 S 
BRANCH  12  13
ATOM     13  C   UNL     1     101.064 126.239  85.159  0.00  0.00    +0.000 C 
ATOM     14  O   UNL     1     100.810 125.095  85.518  0.00  0.00    +0.000 OA
BRANCH  13  18
ATOM     15  C   UNL     1      99.121 129.521  83.074  0.00  0.00    +0.000 C 
ATOM     16  C   UNL     1      98.583 128.109  82.858  0.00  0.00    +0.000 C 
ATOM     17  C   UNL     1      99.589 127.053  83.307  0.00  0.00    +0.000 C 
ATOM     18  C   UNL     1     100.015 127.267  84.765  0.00  0.00    +0.000 C 
ATOM     19  C   UNL     1     100.562 128.683  84.975  0.00  0.00    +0.000 C 
ATOM     20  C   UNL     1      99.561 129.741  84.518  0.00  0.00    +0.000 C 
ENDBRANCH  13  18
ENDBRANCH  12  13
ENDBRANCH   1  12
TORSDOF 3
ENDMDL
