REMARK  Name = *****
REMARK  3 active torsions:
REMARK  status: ('A' for Active; 'I' for Inactive)
REMARK    1  A    between atoms: C_5  and  C_7
REMARK    2  A    between atoms: C_7  and  N_9
REMARK    3  A    between atoms: N_9  and  C_10
REMARK                            x       y       z     vdW  Elec       q    Type
REMARK                         _______ _______ _______ _____ _____    ______ ____
ROOT
ATOM      1  C   UNL     1       0.493  -2.691  -0.086  0.00  0.00    +0.000 C 
ATOM      2  S   UNL     1      -0.553  -3.961   0.264  0.00  0.00    +0.000 S 
ENDROOT
BRANCH   1   7
ATOM      3  C   UNL     1      -1.615   0.452  -0.474  0.00  0.00    +0.000 A 
ATOM      4  C   UNL     1      -0.893   1.365   0.296  0.00  0.00    +0.000 A 
ATOM      5  C   UNL     1       0.277   0.962   0.939  0.00  0.00    +0.000 A 
ATOM      6  C   UNL     1       0.717  -0.353   0.812  0.00  0.00    +0.000 A 
ATOM      7  C   UNL     1       0.002  -1.281   0.048  0.00  0.00    +0.000 A 
ATOM      8  C   UNL     1      -1.171  -0.867  -0.602  0.00  0.00    +0.000 A 
ATOM      9  F   UNL     1       1.852  -0.709   1.430  0.00  0.00    +0.000 F 
ENDBRANCH   1   7
BRANCH   1  10
ATOM     10  N   UNL     1       1.829  -2.758  -0.464  0.00  0.00    +0.000 N 
ATOM     11  H   UNL     1       2.266  -1.876  -0.500  0.00  0.00    +0.000 HD
BRANCH  10  12
ATOM     12  C   UNL     1       2.700  -3.827  -0.811  0.00  0.00    +0.000 A 
ATOM     13  C   UNL     1       2.295  -5.137  -1.069  0.00  0.00    +0.000 A 
ATOM     14  C   UNL     1       3.228  -6.124  -1.417  0.00  0.00    +0.000 A 
ATOM     15  C   UNL     1       4.580  -5.815  -1.523  0.00  0.00    +0.000 A 
ATOM     16  C   UNL     1       5.006  -4.511  -1.290  0.00  0.00    +0.000 A 
ATOM     17  C   UNL     1       4.074  -3.528  -0.944  0.00  0.00    +0.000 A 
ATOM     18 CL   UNL     1       4.665  -1.919  -0.680  0.00  0.00    +0.000 Cl
ENDBRANCH  10  12
ENDBRANCH   1  10
TORSDOF 3
