REMARK  Name = *****
REMARK  5 active torsions:
REMARK  status: ('A' for Active; 'I' for Inactive)
REMARK    1  A    between atoms: C_4  and  C_17
REMARK    2  A    between atoms: C_5  and  C_7
REMARK    3  A    between atoms: C_7  and  C_8
REMARK    4  A    between atoms: C_8  and  C_9
REMARK    5  A    between atoms: C_14  and  N_15
REMARK                            x       y       z     vdW  Elec       q    Type
REMARK                         _______ _______ _______ _____ _____    ______ ____
ROOT
ATOM      1  C   UNL     1      -1.055   2.488   0.565  0.00  0.00    +0.000 C 
ENDROOT
BRANCH   1   6
ATOM      2  C   UNL     1      -0.169  -1.161   1.152  0.00  0.00    +0.000 A 
ATOM      3  C   UNL     1       0.085  -1.631  -0.131  0.00  0.00    +0.000 A 
ATOM      4  C   UNL     1      -0.035  -0.770  -1.222  0.00  0.00    +0.000 A 
ATOM      5  C   UNL     1      -0.409   0.571  -1.035  0.00  0.00    +0.000 A 
ATOM      6  C   UNL     1      -0.655   1.061   0.263  0.00  0.00    +0.000 A 
ATOM      7  C   UNL     1      -0.536   0.171   1.347  0.00  0.00    +0.000 A 
BRANCH   5   8
ATOM      8  C   UNL     1      -0.525   1.391  -2.271  0.00  0.00    +0.000 C 
ATOM      9  O   UNL     1      -0.969   2.530  -2.309  0.00  0.00    +0.000 OA
ENDBRANCH   5   8
ENDBRANCH   1   6
BRANCH   1  10
ATOM     10  C   UNL     1      -2.565   2.703   0.427  0.00  0.00    +0.000 C 
BRANCH  10  11
ATOM     11  C   UNL     1      -2.949   4.144   0.693  0.00  0.00    +0.000 A 
ATOM     12  C   UNL     1      -2.963   5.040  -0.393  0.00  0.00    +0.000 A 
ATOM     13  C   UNL     1      -3.289   6.384  -0.207  0.00  0.00    +0.000 A 
ATOM     14  C   UNL     1      -3.602   6.854   1.064  0.00  0.00    +0.000 A 
ATOM     15  C   UNL     1      -3.580   5.979   2.153  0.00  0.00    +0.000 A 
ATOM     16  C   UNL     1      -3.244   4.625   1.986  0.00  0.00    +0.000 A 
BRANCH  16  17
ATOM     17  N   UNL     1      -3.244   3.774   3.075  0.00  0.00    +0.000 NA
ATOM     18  O   UNL     1      -2.485   4.154   3.975  0.00  0.00    +0.000 OA
ENDBRANCH  16  17
ENDBRANCH  10  11
ENDBRANCH   1  10
TORSDOF 5
