REMARK  Name = *****
REMARK  6 active torsions:
REMARK  status: ('A' for Active; 'I' for Inactive)
REMARK    1  A    between atoms: C_1  and  C_2
REMARK    2  A    between atoms: C_4  and  C_18
REMARK    3  A    between atoms: C_5  and  C_9
REMARK    4  A    between atoms: C_6  and  C_8
REMARK    5  A    between atoms: C_9  and  N_11
REMARK    6  A    between atoms: N_11  and  C_12
REMARK                            x       y       z     vdW  Elec       q    Type
REMARK                         _______ _______ _______ _____ _____    ______ ____
ROOT
ATOM      1  C   UNL     1      -2.412  -1.516   0.238  0.00  0.00    +0.000 C 
ATOM      2  S   UNL     1      -3.854  -0.670   0.095  0.00  0.00    +0.000 S 
ENDROOT
BRANCH   1   7
ATOM      3  C   UNL     1       2.720   1.177   0.260  0.00  0.00    +0.000 C 
ATOM      4  C   UNL     1       1.406   0.450   0.253  0.00  0.00    +0.000 A 
ATOM      5  C   UNL     1       0.748   0.171   1.457  0.00  0.00    +0.000 A 
ATOM      6  C   UNL     1      -0.500  -0.470   1.469  0.00  0.00    +0.000 A 
ATOM      7  C   UNL     1      -1.098  -0.814   0.238  0.00  0.00    +0.000 A 
ATOM      8  C   UNL     1      -0.445  -0.552  -0.985  0.00  0.00    +0.000 A 
ATOM      9  C   UNL     1       0.798   0.100  -0.958  0.00  0.00    +0.000 A 
ATOM     10  C   UNL     1      -1.054  -0.905  -2.313  0.00  0.00    +0.000 C 
ATOM     11  C   UNL     1      -1.165  -0.754   2.788  0.00  0.00    +0.000 C 
ENDBRANCH   1   7
BRANCH   1  12
ATOM     12  N   UNL     1      -2.279  -2.889   0.362  0.00  0.00    +0.000 N 
ATOM     13  H   UNL     1      -1.363  -3.247   0.325  0.00  0.00    +0.000 HD
BRANCH  12  14
ATOM     14  C   UNL     1      -3.357  -3.865   0.544  0.00  0.00    +0.000 C 
ATOM     15  C   UNL     1      -3.744  -3.969   2.026  0.00  0.00    +0.000 C 
ATOM     16  C   UNL     1      -4.812  -5.035   2.256  0.00  0.00    +0.000 C 
ATOM     17  C   UNL     1      -4.382  -6.390   1.702  0.00  0.00    +0.000 C 
ATOM     18  C   UNL     1      -3.989  -6.297   0.231  0.00  0.00    +0.000 C 
ATOM     19  C   UNL     1      -2.921  -5.232   0.001  0.00  0.00    +0.000 C 
ENDBRANCH  12  14
ENDBRANCH   1  12
TORSDOF 3
