MODEL 1
REMARK VINA RESULT:      -4.6      0.000      0.000
REMARK  Name = *****
REMARK  3 active torsions:
REMARK  status: ('A' for Active; 'I' for Inactive)
REMARK    1  A    between atoms: C_3  and  S_8
REMARK    2  A    between atoms: S_8  and  C_9
REMARK    3  A    between atoms: C_9  and  C_10
REMARK                            x       y       z     vdW  Elec       q    Type
REMARK                         _______ _______ _______ _____ _____    ______ ____
ROOT
ATOM      1  C   UNL     1     102.850 127.162  83.606  0.00  0.00    +0.000 C 
ENDROOT
BRANCH   1   2
ATOM      2  C   UNL     1     101.420 127.551  83.328  0.00  0.00    +0.000 A 
ATOM      3  C   UNL     1     100.969 128.853  83.592  0.00  0.00    +0.000 A 
ATOM      4  C   UNL     1      99.639 129.196  83.348  0.00  0.00    +0.000 A 
ATOM      5  C   UNL     1      98.738 128.268  82.847  0.00  0.00    +0.000 A 
ATOM      6  C   UNL     1      99.181 126.978  82.595  0.00  0.00    +0.000 A 
ATOM      7  C   UNL     1     100.505 126.610  82.832  0.00  0.00    +0.000 A 
ATOM      8  F   UNL     1      98.323 126.069  82.117  0.00  0.00    +0.000 F 
ATOM      9  F   UNL     1      99.227 130.445  83.601  0.00  0.00    +0.000 F 
ENDBRANCH   1   2
BRANCH   1  10
ATOM     10  S   UNL     1     102.961 125.424  84.144  0.00  0.00    +0.000 S 
BRANCH  10  13
ATOM     11  C   UNL     1     104.301 124.746  80.387  0.00  0.00    +0.000 A 
ATOM     12  C   UNL     1     103.732 125.299  81.537  0.00  0.00    +0.000 A 
ATOM     13  C   UNL     1     103.721 124.594  82.752  0.00  0.00    +0.000 A 
ATOM     14  C   UNL     1     104.297 123.321  82.790  0.00  0.00    +0.000 A 
ATOM     15  C   UNL     1     104.865 122.772  81.636  0.00  0.00    +0.000 A 
ATOM     16  C   UNL     1     104.869 123.477  80.436  0.00  0.00    +0.000 A 
ATOM     17 CL   UNL     1     105.568 121.201  81.702  0.00  0.00    +0.000 Cl
ENDBRANCH  10  13
ENDBRANCH   1  10
TORSDOF 3
ENDMDL
