REMARK  Name = *****
REMARK  4 active torsions:
REMARK  status: ('A' for Active; 'I' for Inactive)
REMARK    1  A    between atoms: C_4  and  S_6
REMARK    2  A    between atoms: S_6  and  S_7
REMARK    3  A    between atoms: S_7  and  S_8
REMARK    4  A    between atoms: S_8  and  C_9
REMARK                            x       y       z     vdW  Elec       q    Type
REMARK                         _______ _______ _______ _____ _____    ______ ____
ROOT
ATOM      1  S   UNL     1      -3.866   2.629   1.169  0.00  0.00    +0.000 S 
ENDROOT
BRANCH   1   2
ATOM      2  S   UNL     1      -3.306   0.902   0.210  0.00  0.00    +0.000 S 
BRANCH   2   6
ATOM      3  C   UNL     1      -0.234  -0.221   0.909  0.00  0.00    +0.000 C 
ATOM      4  C   UNL     1      -0.568  -0.915  -0.411  0.00  0.00    +0.000 C 
ATOM      5  C   UNL     1      -1.135   0.168  -1.328  0.00  0.00    +0.000 C 
ATOM      6  C   UNL     1      -1.615   1.283  -0.396  0.00  0.00    +0.000 C 
ATOM      7  C   UNL     1      -0.545   1.257   0.693  0.00  0.00    +0.000 C 
ENDBRANCH   2   6
ENDBRANCH   1   2
BRANCH   1   8
ATOM      8  S   UNL     1      -3.358   2.365   3.140  0.00  0.00    +0.000 S 
BRANCH   8   9
ATOM      9  C   UNL     1      -4.838   1.663   3.945  0.00  0.00    +0.000 C 
ATOM     10  C   UNL     1      -5.354   0.344   3.382  0.00  0.00    +0.000 C 
ATOM     11  C   UNL     1      -6.703   0.196   4.076  0.00  0.00    +0.000 C 
ATOM     12  C   UNL     1      -7.239   1.619   4.234  0.00  0.00    +0.000 C 
ATOM     13  C   UNL     1      -6.073   2.561   3.919  0.00  0.00    +0.000 C 
ENDBRANCH   8   9
ENDBRANCH   1   8
TORSDOF 4
