MODEL 1
REMARK VINA RESULT:      -4.7      0.000      0.000
REMARK  Name = *****
REMARK  3 active torsions:
REMARK  status: ('A' for Active; 'I' for Inactive)
REMARK    1  A    between atoms: C_4  and  C_7
REMARK    2  A    between atoms: C_8  and  C_9
REMARK    3  A    between atoms: C_12  and  C_15
REMARK                            x       y       z     vdW  Elec       q    Type
REMARK                         _______ _______ _______ _____ _____    ______ ____
ROOT
ATOM      1  C   UNL     1     103.229 126.163  81.055  0.00  0.00    +0.000 C 
ATOM      2  C   UNL     1     102.135 125.955  81.806  0.00  0.00    +0.000 C 
ENDROOT
BRANCH   1   6
ATOM      3  C   UNL     1     106.299 123.313  79.904  0.00  0.00    +0.000 C 
ATOM      4  C   UNL     1     105.010 122.777  80.522  0.00  0.00    +0.000 C 
ATOM      5  C   UNL     1     104.227 123.877  81.236  0.00  0.00    +0.000 C 
ATOM      6  C   UNL     1     103.945 125.065  80.305  0.00  0.00    +0.000 C 
ATOM      7  C   UNL     1     105.249 125.601  79.694  0.00  0.00    +0.000 C 
ATOM      8  C   UNL     1     106.029 124.497  78.982  0.00  0.00    +0.000 C 
ENDBRANCH   1   6
BRANCH   2   9
ATOM      9  C   UNL     1     101.430 127.008  82.550  0.00  0.00    +0.000 A 
ATOM     10  C   UNL     1     102.107 128.057  83.184  0.00  0.00    +0.000 A 
ATOM     11  C   UNL     1     101.398 129.060  83.857  0.00  0.00    +0.000 A 
ATOM     12  C   UNL     1     100.001 129.029  83.891  0.00  0.00    +0.000 A 
ATOM     13  C   UNL     1      99.317 127.995  83.246  0.00  0.00    +0.000 A 
ATOM     14  C   UNL     1     100.029 126.995  82.575  0.00  0.00    +0.000 A 
BRANCH  12  15
ATOM     15  C   UNL     1      99.274 130.056  84.578  0.00  0.00    +0.000 C 
ATOM     16  N   UNL     1      98.686 130.888  85.134  0.00  0.00    +0.000 NA
ENDBRANCH  12  15
ENDBRANCH   2   9
TORSDOF 3
ENDMDL
