MODEL 1
REMARK VINA RESULT:      -4.7      0.000      0.000
REMARK  Name = *****
REMARK  6 active torsions:
REMARK  status: ('A' for Active; 'I' for Inactive)
REMARK    1  A    between atoms: C_1  and  C_2
REMARK    2  A    between atoms: C_2  and  C_3
REMARK    3  A    between atoms: C_3  and  C_4
REMARK    4  A    between atoms: C_4  and  C_5
REMARK    5  A    between atoms: C_4  and  C_11
REMARK    6  A    between atoms: C_11  and  C_13
REMARK                            x       y       z     vdW  Elec       q    Type
REMARK                         _______ _______ _______ _____ _____    ______ ____
ROOT
ATOM      1  C   UNL     1     102.642 126.711  82.436  0.00  0.00    +0.000 C 
ENDROOT
BRANCH   1   2
ATOM      2  C   UNL     1     101.254 127.256  82.751  0.00  0.00    +0.000 A 
ATOM      3  C   UNL     1     101.088 128.486  83.407  0.00  0.00    +0.000 A 
ATOM      4  C   UNL     1      99.815 129.022  83.606  0.00  0.00    +0.000 A 
ATOM      5  C   UNL     1      98.691 128.336  83.149  0.00  0.00    +0.000 A 
ATOM      6  C   UNL     1      98.839 127.112  82.501  0.00  0.00    +0.000 A 
ATOM      7  C   UNL     1     100.112 126.575  82.300  0.00  0.00    +0.000 A 
ENDBRANCH   1   2
BRANCH   1   8
ATOM      8  C   UNL     1     102.928 125.398  83.178  0.00  0.00    +0.000 C 
ATOM      9  O   UNL     1     102.492 125.186  84.312  0.00  0.00    +0.000 OA
BRANCH   8  10
ATOM     10  C   UNL     1     103.765 124.338  82.529  0.00  0.00    +0.000 A 
ATOM     11  C   UNL     1     104.314 123.258  83.229  0.00  0.00    +0.000 A 
ATOM     12  C   UNL     1     105.066 122.290  82.555  0.00  0.00    +0.000 A 
ATOM     13  C   UNL     1     105.282 122.396  81.182  0.00  0.00    +0.000 A 
ATOM     14  C   UNL     1     104.752 123.474  80.478  0.00  0.00    +0.000 A 
ATOM     15  C   UNL     1     103.997 124.440  81.148  0.00  0.00    +0.000 A 
ENDBRANCH   8  10
ENDBRANCH   1   8
BRANCH   1  16
ATOM     16  C   UNL     1     103.687 127.794  82.785  0.00  0.00    +0.000 C 
BRANCH  16  18
ATOM     17  C   UNL     1     103.838 127.872  80.278  0.00  0.00    +0.000 C 
ATOM     18  C   UNL     1     104.541 128.207  81.584  0.00  0.00    +0.000 C 
ENDBRANCH  16  18
ENDBRANCH   1  16
TORSDOF 5
ENDMDL
