MODEL 1
REMARK VINA RESULT:      -4.2      0.000      0.000
REMARK  Name = *****
REMARK  4 active torsions:
REMARK  status: ('A' for Active; 'I' for Inactive)
REMARK    1  A    between atoms: C_1  and  C_2
REMARK    2  A    between atoms: C_5  and  S_7
REMARK    3  A    between atoms: S_7  and  C_8
REMARK    4  A    between atoms: C_8  and  C_9
REMARK                            x       y       z     vdW  Elec       q    Type
REMARK                         _______ _______ _______ _____ _____    ______ ____
ROOT
ATOM      1  S   UNL     1     103.424 126.685  81.199  0.00  0.00    +0.000 S 
ENDROOT
BRANCH   1   6
ATOM      2  C   UNL     1     104.729 121.706  80.935  0.00  0.00    +0.000 C 
ATOM      3  C   UNL     1     104.889 123.135  80.565  0.00  0.00    +0.000 A 
ATOM      4  C   UNL     1     105.825 123.668  79.698  0.00  0.00    +0.000 A 
ATOM      5  S   UNL     1     105.624 125.365  79.586  0.00  0.00    +0.000 S 
ATOM      6  C   UNL     1     104.315 125.269  80.689  0.00  0.00    +0.000 A 
ATOM      7  N   UNL     1     104.027 124.064  81.127  0.00  0.00    +0.000 NA
ENDBRANCH   1   6
BRANCH   1   8
ATOM      8  C   UNL     1     102.099 125.906  82.163  0.00  0.00    +0.000 C 
BRANCH   8   9
ATOM      9  C   UNL     1     101.055 126.914  82.581  0.00  0.00    +0.000 A 
ATOM     10  C   UNL     1      99.698 126.694  82.300  0.00  0.00    +0.000 A 
ATOM     11  C   UNL     1      98.736 127.632  82.677  0.00  0.00    +0.000 A 
ATOM     12  C   UNL     1      99.120 128.801  83.332  0.00  0.00    +0.000 A 
ATOM     13  C   UNL     1     100.465 129.035  83.608  0.00  0.00    +0.000 A 
ATOM     14  C   UNL     1     101.429 128.098  83.232  0.00  0.00    +0.000 A 
ENDBRANCH   8   9
ENDBRANCH   1   8
TORSDOF 3
ENDMDL
