MODEL 1
REMARK VINA RESULT:      -4.5      0.000      0.000
REMARK  Name = *****
REMARK  3 active torsions:
REMARK  status: ('A' for Active; 'I' for Inactive)
REMARK    1  A    between atoms: C_4  and  C_7
REMARK    2  A    between atoms: C_8  and  C_9
REMARK    3  A    between atoms: C_12  and  C_14
REMARK                            x       y       z     vdW  Elec       q    Type
REMARK                         _______ _______ _______ _____ _____    ______ ____
ROOT
ATOM      1  C   UNL     1     102.045 126.349  81.937  0.00  0.00    +0.000 C 
ATOM      2  C   UNL     1     102.921 125.707  81.423  0.00  0.00    +0.000 C 
ENDROOT
BRANCH   1   6
ATOM      3  C   UNL     1      98.972 128.614  83.742  0.00  0.00    +0.000 A 
ATOM      4  C   UNL     1     100.305 128.985  83.918  0.00  0.00    +0.000 A 
ATOM      5  C   UNL     1     101.322 128.236  83.322  0.00  0.00    +0.000 A 
ATOM      6  C   UNL     1     101.005 127.116  82.549  0.00  0.00    +0.000 A 
ATOM      7  C   UNL     1      99.669 126.747  82.375  0.00  0.00    +0.000 A 
ATOM      8  C   UNL     1      98.653 127.497  82.971  0.00  0.00    +0.000 A 
ENDBRANCH   1   6
BRANCH   2   9
ATOM      9  C   UNL     1     103.963 124.947  80.809  0.00  0.00    +0.000 A 
ATOM     10  C   UNL     1     104.320 123.686  81.232  0.00  0.00    +0.000 A 
ATOM     11  S   UNL     1     105.601 123.037  80.300  0.00  0.00    +0.000 S 
ATOM     12  C   UNL     1     105.684 124.439  79.328  0.00  0.00    +0.000 A 
ATOM     13  C   UNL     1     104.751 125.384  79.707  0.00  0.00    +0.000 A 
BRANCH  12  14
ATOM     14  C   UNL     1     106.654 124.522  78.260  0.00  0.00    +0.000 C 
ATOM     15  O   UNL     1     106.375 124.524  77.063  0.00  0.00    +0.000 OA
ENDBRANCH  12  14
ENDBRANCH   2   9
TORSDOF 3
ENDMDL
