MODEL 1
REMARK VINA RESULT:      -4.3      0.000      0.000
REMARK  Name = *****
REMARK  3 active torsions:
REMARK  status: ('A' for Active; 'I' for Inactive)
REMARK    1  A    between atoms: C_4  and  C_7
REMARK    2  A    between atoms: C_7  and  C_14
REMARK    3  A    between atoms: C_8  and  C_9
REMARK                            x       y       z     vdW  Elec       q    Type
REMARK                         _______ _______ _______ _____ _____    ______ ____
ROOT
ATOM      1  C   UNL     1     102.382 126.457  82.355  0.00  0.00    +0.000 C 
ATOM      2  C   UNL     1     102.974 126.709  81.168  0.00  0.00    +0.000 C 
ENDROOT
BRANCH   1   6
ATOM      3  C   UNL     1      98.883 128.704  83.385  0.00  0.00    +0.000 A 
ATOM      4  C   UNL     1     100.146 129.185  83.723  0.00  0.00    +0.000 A 
ATOM      5  C   UNL     1     101.287 128.453  83.387  0.00  0.00    +0.000 A 
ATOM      6  C   UNL     1     101.172 127.230  82.711  0.00  0.00    +0.000 A 
ATOM      7  C   UNL     1      99.895 126.757  82.373  0.00  0.00    +0.000 A 
ATOM      8  C   UNL     1      98.756 127.491  82.710  0.00  0.00    +0.000 A 
ENDBRANCH   1   6
BRANCH   2   9
ATOM      9  C   UNL     1     104.139 126.098  80.593  0.00  0.00    +0.000 A 
ATOM     10  C   UNL     1     105.328 126.792  80.483  0.00  0.00    +0.000 A 
ATOM     11  S   UNL     1     106.575 125.854  79.780  0.00  0.00    +0.000 S 
ATOM     12  C   UNL     1     105.544 124.499  79.640  0.00  0.00    +0.000 A 
ATOM     13  C   UNL     1     104.277 124.758  80.118  0.00  0.00    +0.000 A 
ENDBRANCH   2   9
BRANCH   1  14
ATOM     14  C   UNL     1     102.827 125.445  83.260  0.00  0.00    +0.000 C 
ATOM     15  N   UNL     1     103.192 124.617  83.987  0.00  0.00    +0.000 NA
ENDBRANCH   1  14
TORSDOF 3
ENDMDL
