REMARK  Name = *****
REMARK  4 active torsions:
REMARK  status: ('A' for Active; 'I' for Inactive)
REMARK    1  A    between atoms: C_3  and  C_17
REMARK    2  A    between atoms: C_5  and  O_7
REMARK    3  A    between atoms: O_7  and  C_8
REMARK    4  A    between atoms: C_8  and  C_10
REMARK                            x       y       z     vdW  Elec       q    Type
REMARK                         _______ _______ _______ _____ _____    ______ ____
ROOT
ATOM      1  C   UNL     1       1.142   0.093   0.682  0.00  0.00    +0.000 A 
ATOM      2  C   UNL     1       0.594  -1.165   0.415  0.00  0.00    +0.000 A 
ATOM      3  C   UNL     1      -0.707  -1.285  -0.104  0.00  0.00    +0.000 A 
ATOM      4  C   UNL     1      -1.457  -0.123  -0.335  0.00  0.00    +0.000 A 
ATOM      5  C   UNL     1      -0.906   1.125  -0.042  0.00  0.00    +0.000 A 
ATOM      6  C   UNL     1       0.394   1.244   0.445  0.00  0.00    +0.000 A 
ENDROOT
BRANCH   3   7
ATOM      7  C   UNL     1      -1.298  -2.646  -0.373  0.00  0.00    +0.000 C 
ATOM      8  F   UNL     1      -0.377  -3.541  -0.831  0.00  0.00    +0.000 F 
ATOM      9  F   UNL     1      -1.842  -3.209   0.740  0.00  0.00    +0.000 F 
ATOM     10  F   UNL     1      -2.289  -2.628  -1.308  0.00  0.00    +0.000 F 
ENDBRANCH   3   7
BRANCH   5  11
ATOM     11  O   UNL     1      -1.606   2.307  -0.313  0.00  0.00    +0.000 OA
BRANCH  11  12
ATOM     12  C   UNL     1      -2.775   2.481   0.405  0.00  0.00    +0.000 C 
ATOM     13  O   UNL     1      -3.246   1.727   1.243  0.00  0.00    +0.000 OA
BRANCH  12  14
ATOM     14  C   UNL     1      -3.421   3.765   0.013  0.00  0.00    +0.000 A 
ATOM     15  C   UNL     1      -2.865   4.637  -0.936  0.00  0.00    +0.000 A 
ATOM     16  C   UNL     1      -3.519   5.830  -1.263  0.00  0.00    +0.000 A 
ATOM     17  C   UNL     1      -4.726   6.154  -0.645  0.00  0.00    +0.000 A 
ATOM     18  C   UNL     1      -5.288   5.297   0.298  0.00  0.00    +0.000 A 
ATOM     19  C   UNL     1      -4.637   4.104   0.627  0.00  0.00    +0.000 A 
ATOM     20 CL   UNL     1      -5.525   7.622  -1.051  0.00  0.00    +0.000 Cl
ENDBRANCH  12  14
ENDBRANCH  11  12
ENDBRANCH   5  11
TORSDOF 4
