REMARK  Name = *****
REMARK  6 active torsions:
REMARK  status: ('A' for Active; 'I' for Inactive)
REMARK    1  A    between atoms: C_1  and  C_2
REMARK    2  A    between atoms: C_2  and  N_3
REMARK    3  A    between atoms: N_3  and  C_4
REMARK    4  A    between atoms: C_9  and  C_10
REMARK    5  A    between atoms: C_11  and  C_13
REMARK    6  A    between atoms: C_17  and  C_19
REMARK                            x       y       z     vdW  Elec       q    Type
REMARK                         _______ _______ _______ _____ _____    ______ ____
ROOT
ATOM      1  N   UNL     1       3.156  -1.012   0.659  0.00  0.00    +0.000 N 
ATOM      2  C   UNL     1       4.208  -0.803   1.571  0.00  0.00    +0.000 C 
ATOM      3  O   UNL     1       4.217  -1.186   2.740  0.00  0.00    +0.000 OA
ENDROOT
BRANCH   1   4
ATOM      4  C   UNL     1       2.126  -1.959   1.000  0.00  0.00    +0.000 A 
ATOM      5  C   UNL     1       0.772  -1.582   0.934  0.00  0.00    +0.000 A 
ATOM      6  C   UNL     1      -0.250  -2.473   1.272  0.00  0.00    +0.000 A 
ATOM      7  C   UNL     1       0.061  -3.764   1.676  0.00  0.00    +0.000 A 
ATOM      8  C   UNL     1       1.392  -4.167   1.725  0.00  0.00    +0.000 A 
ATOM      9  C   UNL     1       2.435  -3.289   1.369  0.00  0.00    +0.000 A 
ATOM     10  C   UNL     1       3.834  -3.846   1.384  0.00  0.00    +0.000 C 
ENDBRANCH   1   4
BRANCH   2  11
ATOM     11  C   UNL     1       5.407  -0.061   1.113  0.00  0.00    +0.000 A 
ATOM     12  C   UNL     1       5.865   1.018   1.873  0.00  0.00    +0.000 A 
ATOM     13  C   UNL     1       7.005   1.711   1.469  0.00  0.00    +0.000 A 
ATOM     14  C   UNL     1       7.691   1.317   0.317  0.00  0.00    +0.000 A 
ATOM     15  C   UNL     1       7.246   0.227  -0.444  0.00  0.00    +0.000 A 
ATOM     16  C   UNL     1       6.108  -0.475  -0.026  0.00  0.00    +0.000 A 
ATOM     17  C   UNL     1       8.021  -0.226  -1.645  0.00  0.00    +0.000 C 
ENDBRANCH   2  11
BRANCH   1  19
ATOM     18  C   UNL     1       2.789  -0.777  -1.798  0.00  0.00    +0.000 C 
ATOM     19  C   UNL     1       2.903  -0.075  -0.451  0.00  0.00    +0.000 C 
ENDBRANCH   1  19
TORSDOF 3
