REMARK  Name = *****
REMARK  3 active torsions:
REMARK  status: ('A' for Active; 'I' for Inactive)
REMARK    1  A    between atoms: C_4  and  O_7
REMARK    2  A    between atoms: O_7  and  C_8
REMARK    3  A    between atoms: C_8  and  C_10
REMARK                            x       y       z     vdW  Elec       q    Type
REMARK                         _______ _______ _______ _____ _____    ______ ____
ROOT
ATOM      1  O   UNL     1      -0.758   0.147  -1.855  0.00  0.00    +0.000 OA
ENDROOT
BRANCH   1   5
ATOM      2  C   UNL     1       2.058   0.049   0.357  0.00  0.00    +0.000 C 
ATOM      3  C   UNL     1       1.362   1.347  -0.045  0.00  0.00    +0.000 C 
ATOM      4  C   UNL     1      -0.137   1.293   0.246  0.00  0.00    +0.000 C 
ATOM      5  C   UNL     1      -0.802   0.087  -0.422  0.00  0.00    +0.000 C 
ATOM      6  C   UNL     1      -0.102  -1.208  -0.001  0.00  0.00    +0.000 C 
ATOM      7  C   UNL     1       1.399  -1.170  -0.282  0.00  0.00    +0.000 C 
ATOM      8  F   UNL     1      -2.101  -0.010  -0.037  0.00  0.00    +0.000 F 
ENDBRANCH   1   5
BRANCH   1   9
ATOM      9  C   UNL     1      -1.533   1.073  -2.461  0.00  0.00    +0.000 C 
ATOM     10  O   UNL     1      -2.240   1.907  -1.920  0.00  0.00    +0.000 OA
BRANCH   9  11
ATOM     11  C   UNL     1      -1.412   0.950  -3.939  0.00  0.00    +0.000 A 
ATOM     12  C   UNL     1      -0.443   0.142  -4.551  0.00  0.00    +0.000 A 
ATOM     13  C   UNL     1      -0.369   0.069  -5.944  0.00  0.00    +0.000 A 
ATOM     14  C   UNL     1      -1.260   0.798  -6.732  0.00  0.00    +0.000 A 
ATOM     15  C   UNL     1      -2.224   1.605  -6.130  0.00  0.00    +0.000 A 
ATOM     16  C   UNL     1      -2.300   1.684  -4.738  0.00  0.00    +0.000 A 
ENDBRANCH   9  11
ENDBRANCH   1   9
TORSDOF 3
