MODEL 1
REMARK VINA RESULT:      -4.4      0.000      0.000
REMARK  Name = *****
REMARK  3 active torsions:
REMARK  status: ('A' for Active; 'I' for Inactive)
REMARK    1  A    between atoms: C_1  and  S_2
REMARK    2  A    between atoms: S_2  and  C_16
REMARK    3  A    between atoms: C_10  and  C_11
REMARK                            x       y       z     vdW  Elec       q    Type
REMARK                         _______ _______ _______ _____ _____    ______ ____
ROOT
ATOM      1  C   UNL     1     103.964 128.558  82.180  0.00  0.00    +0.000 C 
ATOM      2  S   UNL     1     102.971 127.512  83.158  0.00  0.00    +0.000 S 
ATOM      3  C   UNL     1     101.379 128.122  83.321  0.00  0.00    +0.000 A 
ATOM      4  C   UNL     1     100.990 129.288  83.941  0.00  0.00    +0.000 A 
ATOM      5  C   UNL     1      99.625 129.574  83.945  0.00  0.00    +0.000 A 
ATOM      6  C   UNL     1      98.708 128.696  83.336  0.00  0.00    +0.000 A 
ATOM      7  C   UNL     1      99.144 127.518  82.715  0.00  0.00    +0.000 A 
ATOM      8  C   UNL     1     100.499 127.235  82.710  0.00  0.00    +0.000 A 
ATOM      9  C   UNL     1     101.182 126.077  82.129  0.00  0.00    +0.000 C 
ATOM     10  C   UNL     1     102.520 126.092  82.294  0.00  0.00    +0.000 C 
ATOM     11  C   UNL     1     103.667 127.114  84.706  0.00  0.00    +0.000 C 
ENDROOT
BRANCH  10  12
ATOM     12  C   UNL     1     103.432 125.099  81.833  0.00  0.00    +0.000 A 
ATOM     13  C   UNL     1     103.897 124.872  80.544  0.00  0.00    +0.000 A 
ATOM     14  C   UNL     1     104.810 123.782  80.439  0.00  0.00    +0.000 A 
ATOM     15  C   UNL     1     105.032 123.186  81.655  0.00  0.00    +0.000 A 
ATOM     16  S   UNL     1     104.148 123.937  82.903  0.00  0.00    +0.000 S 
ENDBRANCH  10  12
TORSDOF 1
ENDMDL
