REMARK  Name = *****
REMARK  3 active torsions:
REMARK  status: ('A' for Active; 'I' for Inactive)
REMARK    1  A    between atoms: C_6  and  S_7
REMARK    2  A    between atoms: S_7  and  S_9
REMARK    3  A    between atoms: S_9  and  C_11
REMARK                            x       y       z     vdW  Elec       q    Type
REMARK                         _______ _______ _______ _____ _____    ______ ____
ROOT
ATOM      1  S   UNL     1       4.234   0.110   0.707  0.00  0.00    +0.000 S 
ATOM      2  O   UNL     1       4.981  -0.647  -0.355  0.00  0.00    +0.000 OA
ENDROOT
BRANCH   1   8
ATOM      3  C   UNL     1       1.528   0.694   1.020  0.00  0.00    +0.000 A 
ATOM      4  C   UNL     1       0.177   0.653   0.663  0.00  0.00    +0.000 A 
ATOM      5  C   UNL     1      -0.214  -0.020  -0.493  0.00  0.00    +0.000 A 
ATOM      6  C   UNL     1       0.733  -0.654  -1.294  0.00  0.00    +0.000 A 
ATOM      7  C   UNL     1       2.084  -0.614  -0.937  0.00  0.00    +0.000 A 
ATOM      8  C   UNL     1       2.491   0.067   0.218  0.00  0.00    +0.000 A 
ATOM      9 CL   UNL     1      -1.876  -0.069  -0.931  0.00  0.00    +0.000 Cl
ENDBRANCH   1   8
BRANCH   1  10
ATOM     10  S   UNL     1       4.712   1.997   0.221  0.00  0.00    +0.000 S 
ATOM     11  O   UNL     1       4.066   2.740   1.357  0.00  0.00    +0.000 OA
BRANCH  10  12
ATOM     12  C   UNL     1       6.493   2.022   0.550  0.00  0.00    +0.000 A 
ATOM     13  C   UNL     1       7.381   1.389  -0.328  0.00  0.00    +0.000 A 
ATOM     14  C   UNL     1       8.758   1.423  -0.087  0.00  0.00    +0.000 A 
ATOM     15  C   UNL     1       9.251   2.099   1.027  0.00  0.00    +0.000 A 
ATOM     16  C   UNL     1       8.379   2.744   1.901  0.00  0.00    +0.000 A 
ATOM     17  C   UNL     1       7.002   2.708   1.662  0.00  0.00    +0.000 A 
ATOM     18 CL   UNL     1      10.944   2.142   1.323  0.00  0.00    +0.000 Cl
ENDBRANCH  10  12
ENDBRANCH   1  10
TORSDOF 3
