MODEL 1
REMARK VINA RESULT:      -4.1      0.000      0.000
REMARK  Name = *****
REMARK  2 active torsions:
REMARK  status: ('A' for Active; 'I' for Inactive)
REMARK    1  A    between atoms: C_4  and  P_7
REMARK    2  A    between atoms: P_7  and  C_9
REMARK                            x       y       z     vdW  Elec       q    Type
REMARK                         _______ _______ _______ _____ _____    ______ ____
ROOT
ATOM      1  P   UNL     1     102.223 125.965  83.915  0.00  0.00    +0.000 P 
ATOM      2  S   UNL     1     103.599 127.025  84.681  0.00  0.00    +0.000 S 
ENDROOT
BRANCH   1   6
ATOM      3  C   UNL     1     104.750 125.861  79.937  0.00  0.00    +0.000 C 
ATOM      4  C   UNL     1     104.216 124.542  80.477  0.00  0.00    +0.000 C 
ATOM      5  C   UNL     1     103.754 124.669  81.929  0.00  0.00    +0.000 C 
ATOM      6  C   UNL     1     102.703 125.784  82.109  0.00  0.00    +0.000 C 
ATOM      7  C   UNL     1     103.271 127.111  81.556  0.00  0.00    +0.000 C 
ATOM      8  C   UNL     1     103.729 126.979  80.104  0.00  0.00    +0.000 C 
ENDBRANCH   1   6
BRANCH   1   9
ATOM      9  C   UNL     1     100.706 127.055  83.859  0.00  0.00    +0.000 C 
ATOM     10  C   UNL     1      99.820 126.917  82.611  0.00  0.00    +0.000 C 
ATOM     11  C   UNL     1      98.573 127.798  82.709  0.00  0.00    +0.000 C 
ATOM     12  C   UNL     1      98.931 129.257  82.969  0.00  0.00    +0.000 C 
ATOM     13  C   UNL     1      99.809 129.405  84.208  0.00  0.00    +0.000 C 
ATOM     14  C   UNL     1     101.061 128.533  84.119  0.00  0.00    +0.000 C 
ENDBRANCH   1   9
TORSDOF 2
ENDMDL
