REMARK  Name = *****
REMARK  6 active torsions:
REMARK  status: ('A' for Active; 'I' for Inactive)
REMARK    1  A    between atoms: C_1  and  O_2
REMARK    2  A    between atoms: O_2  and  C_3
REMARK    3  A    between atoms: C_6  and  C_9
REMARK    4  A    between atoms: C_10  and  C_11
REMARK    5  A    between atoms: C_14  and  O_17
REMARK    6  A    between atoms: O_17  and  C_18
REMARK                            x       y       z     vdW  Elec       q    Type
REMARK                         _______ _______ _______ _____ _____    ______ ____
ROOT
ATOM      1  C   UNL     1       5.134   3.854   3.108  0.00  0.00    +0.000 C 
ATOM      2  C   UNL     1       4.910   4.073   4.415  0.00  0.00    +0.000 C 
ATOM      3 CL   UNL     1       3.788   3.153   5.358  0.00  0.00    +0.000 Cl
ENDROOT
BRANCH   1   7
ATOM      4  C   UNL     1       3.241   0.938   0.612  0.00  0.00    +0.000 A 
ATOM      5  C   UNL     1       2.481   1.949   1.199  0.00  0.00    +0.000 A 
ATOM      6  C   UNL     1       3.094   2.903   2.020  0.00  0.00    +0.000 A 
ATOM      7  C   UNL     1       4.469   2.851   2.270  0.00  0.00    +0.000 A 
ATOM      8  C   UNL     1       5.230   1.844   1.670  0.00  0.00    +0.000 A 
ATOM      9  C   UNL     1       4.616   0.894   0.850  0.00  0.00    +0.000 A 
BRANCH   4  11
ATOM     10  C   UNL     1       1.368  -0.076  -0.443  0.00  0.00    +0.000 C 
ATOM     11  O   UNL     1       2.770  -0.051  -0.207  0.00  0.00    +0.000 OA
ENDBRANCH   4  11
ENDBRANCH   1   7
BRANCH   2  12
ATOM     12  C   UNL     1       5.657   5.114   5.138  0.00  0.00    +0.000 A 
ATOM     13  C   UNL     1       5.516   6.465   4.791  0.00  0.00    +0.000 A 
ATOM     14  C   UNL     1       6.226   7.459   5.476  0.00  0.00    +0.000 A 
ATOM     15  C   UNL     1       7.087   7.114   6.518  0.00  0.00    +0.000 A 
ATOM     16  C   UNL     1       7.231   5.769   6.865  0.00  0.00    +0.000 A 
ATOM     17  C   UNL     1       6.523   4.775   6.184  0.00  0.00    +0.000 A 
BRANCH  15  18
ATOM     18  O   UNL     1       7.835   7.981   7.265  0.00  0.00    +0.000 OA
ATOM     19  C   UNL     1       7.688   9.366   6.982  0.00  0.00    +0.000 C 
ENDBRANCH  15  18
ENDBRANCH   2  12
TORSDOF 4
