MODEL 1
REMARK VINA RESULT:      -4.6      0.000      0.000
REMARK  Name = *****
REMARK  2 active torsions:
REMARK  status: ('A' for Active; 'I' for Inactive)
REMARK    1  A    between atoms: C_2  and  C_12
REMARK    2  A    between atoms: N_3  and  C_4
REMARK                            x       y       z     vdW  Elec       q    Type
REMARK                         _______ _______ _______ _____ _____    ______ ____
ROOT
ATOM      1  C   UNL     1     103.805 128.056  82.242  0.00  0.00    +0.000 C 
ATOM      2  C   UNL     1     103.178 127.085  81.280  0.00  0.00    +0.000 C 
ATOM      3  N   UNL     1     102.717 127.184  82.678  0.00  0.00    +0.000 N 
ENDROOT
BRANCH   3   4
ATOM      4  C   UNL     1     101.430 127.722  82.952  0.00  0.00    +0.000 A 
ATOM      5  C   UNL     1     100.315 126.988  82.510  0.00  0.00    +0.000 A 
ATOM      6  C   UNL     1      99.004 127.420  82.723  0.00  0.00    +0.000 A 
ATOM      7  C   UNL     1      98.768 128.615  83.395  0.00  0.00    +0.000 A 
ATOM      8  C   UNL     1      99.849 129.367  83.846  0.00  0.00    +0.000 A 
ATOM      9  C   UNL     1     101.157 128.923  83.625  0.00  0.00    +0.000 A 
ATOM     10  F   UNL     1     102.151 129.701  84.085  0.00  0.00    +0.000 F 
ATOM     11  F   UNL     1     100.493 125.830  81.853  0.00  0.00    +0.000 F 
ENDBRANCH   3   4
BRANCH   2  12
ATOM     12  C   UNL     1     103.933 125.841  80.879  0.00  0.00    +0.000 A 
ATOM     13  C   UNL     1     104.860 125.847  79.823  0.00  0.00    +0.000 A 
ATOM     14  C   UNL     1     105.568 124.695  79.468  0.00  0.00    +0.000 A 
ATOM     15  C   UNL     1     105.366 123.510  80.167  0.00  0.00    +0.000 A 
ATOM     16  C   UNL     1     104.456 123.477  81.222  0.00  0.00    +0.000 A 
ATOM     17  C   UNL     1     103.751 124.632  81.572  0.00  0.00    +0.000 A 
ENDBRANCH   2  12
TORSDOF 2
ENDMDL
