MODEL 1
REMARK VINA RESULT:      -4.2      0.000      0.000
REMARK  Name = *****
REMARK  3 active torsions:
REMARK  status: ('A' for Active; 'I' for Inactive)
REMARK    1  A    between atoms: C_1  and  C_2
REMARK    2  A    between atoms: C_5  and  C_8
REMARK    3  A    between atoms: C_10  and  C_11
REMARK                            x       y       z     vdW  Elec       q    Type
REMARK                         _______ _______ _______ _____ _____    ______ ____
ROOT
ATOM      1  C   UNL     1      89.259  70.093  86.949  0.00  0.00    +0.000 C 
ATOM      2  C   UNL     1      89.804  69.603  85.642  0.00  0.00    +0.000 C 
ATOM      3  C   UNL     1      89.502  68.603  86.736  0.00  0.00    +0.000 C 
ENDROOT
BRANCH   1   8
ATOM      4  C   UNL     1      83.969  72.558  87.341  0.00  0.00    +0.000 C 
ATOM      5  C   UNL     1      85.312  71.900  87.237  0.00  0.00    +0.000 A 
ATOM      6  C   UNL     1      86.015  71.537  88.388  0.00  0.00    +0.000 A 
ATOM      7  C   UNL     1      87.282  70.953  88.290  0.00  0.00    +0.000 A 
ATOM      8  C   UNL     1      87.884  70.707  87.046  0.00  0.00    +0.000 A 
ATOM      9  C   UNL     1      87.176  71.108  85.901  0.00  0.00    +0.000 A 
ATOM     10  C   UNL     1      85.910  71.695  85.991  0.00  0.00    +0.000 A 
ENDBRANCH   1   8
BRANCH   3  11
ATOM     11  C   UNL     1      88.389  67.586  86.496  0.00  0.00    +0.000 A 
ATOM     12  C   UNL     1      87.890  67.183  85.277  0.00  0.00    +0.000 A 
ATOM     13  S   UNL     1      86.645  66.019  85.446  0.00  0.00    +0.000 S 
ATOM     14  C   UNL     1      86.782  66.041  87.152  0.00  0.00    +0.000 A 
ATOM     15  C   UNL     1      87.753  66.919  87.582  0.00  0.00    +0.000 A 
ENDBRANCH   3  11
TORSDOF 2
ENDMDL
