REMARK  Name = *****
REMARK  5 active torsions:
REMARK  status: ('A' for Active; 'I' for Inactive)
REMARK    1  A    between atoms: C_1  and  C_2
REMARK    2  A    between atoms: N_7  and  S_8
REMARK    3  A    between atoms: S_8  and  S_9
REMARK    4  A    between atoms: S_9  and  N_10
REMARK    5  A    between atoms: C_15  and  C_16
REMARK                            x       y       z     vdW  Elec       q    Type
REMARK                         _______ _______ _______ _____ _____    ______ ____
ROOT
ATOM      1  S   UNL     1       3.032  -3.509   0.443  0.00  0.00    +0.000 S 
ENDROOT
BRANCH   1   8
ATOM      2  C   UNL     1       1.086  -1.742  -1.678  0.00  0.00    +0.000 C 
ATOM      3  C   UNL     1       1.307  -1.494  -0.178  0.00  0.00    +0.000 C 
ATOM      4  C   UNL     1       0.997  -0.035   0.202  0.00  0.00    +0.000 C 
ATOM      5  C   UNL     1       2.060   0.937  -0.293  0.00  0.00    +0.000 C 
ATOM      6  C   UNL     1       3.436   0.486   0.171  0.00  0.00    +0.000 C 
ATOM      7  C   UNL     1       3.710  -0.975  -0.185  0.00  0.00    +0.000 C 
ATOM      8  N   UNL     1       2.656  -1.887   0.283  0.00  0.00    +0.000 NA
ENDBRANCH   1   8
BRANCH   1   9
ATOM      9  S   UNL     1       2.500  -3.761   2.414  0.00  0.00    +0.000 S 
BRANCH   9  10
ATOM     10  N   UNL     1       3.895  -3.179   3.138  0.00  0.00    +0.000 NA
ATOM     11  C   UNL     1       5.022  -4.115   3.331  0.00  0.00    +0.000 C 
ATOM     12  C   UNL     1       4.855  -4.975   4.586  0.00  0.00    +0.000 C 
ATOM     13  C   UNL     1       4.665  -4.113   5.829  0.00  0.00    +0.000 C 
ATOM     14  C   UNL     1       3.578  -3.062   5.614  0.00  0.00    +0.000 C 
ATOM     15  C   UNL     1       3.816  -2.275   4.313  0.00  0.00    +0.000 C 
ATOM     16  C   UNL     1       2.787  -1.147   4.165  0.00  0.00    +0.000 C 
ENDBRANCH   9  10
ENDBRANCH   1   9
TORSDOF 3
