MODEL 1
REMARK VINA RESULT:      -4.2      0.000      0.000
REMARK  Name = *****
REMARK  3 active torsions:
REMARK  status: ('A' for Active; 'I' for Inactive)
REMARK    1  A    between atoms: C_4  and  O_7
REMARK    2  A    between atoms: O_7  and  C_8
REMARK    3  A    between atoms: C_8  and  C_10
REMARK                            x       y       z     vdW  Elec       q    Type
REMARK                         _______ _______ _______ _____ _____    ______ ____
ROOT
ATOM      1  C   UNL     1      87.439  63.926  86.804  0.00  0.00    +0.000 C 
ATOM      2  O   UNL     1      86.375  64.015  86.215  0.00  0.00    +0.000 OA
ENDROOT
BRANCH   1   3
ATOM      3  C   UNL     1      88.616  64.735  86.447  0.00  0.00    +0.000 A 
ATOM      4  C   UNL     1      88.770  66.070  86.841  0.00  0.00    +0.000 A 
ATOM      5  C   UNL     1      89.919  66.772  86.461  0.00  0.00    +0.000 A 
ATOM      6  C   UNL     1      90.901  66.149  85.685  0.00  0.00    +0.000 A 
ATOM      7  C   UNL     1      90.729  64.827  85.279  0.00  0.00    +0.000 A 
ATOM      8  C   UNL     1      89.591  64.117  85.649  0.00  0.00    +0.000 A 
ATOM      9 CL   UNL     1      91.933  64.069  84.313  0.00  0.00    +0.000 Cl
ATOM     10 CL   UNL     1      87.572  66.927  87.741  0.00  0.00    +0.000 Cl
ENDBRANCH   1   3
BRANCH   1  11
ATOM     11  O   UNL     1      87.819  63.025  87.777  0.00  0.00    +0.000 OA
BRANCH  11  15
ATOM     12  C   UNL     1      87.856  64.314  91.748  0.00  0.00    +0.000 A 
ATOM     13  C   UNL     1      86.634  64.192  91.083  0.00  0.00    +0.000 A 
ATOM     14  C   UNL     1      86.599  63.775  89.753  0.00  0.00    +0.000 A 
ATOM     15  C   UNL     1      87.798  63.501  89.094  0.00  0.00    +0.000 A 
ATOM     16  C   UNL     1      89.021  63.600  89.755  0.00  0.00    +0.000 A 
ATOM     17  C   UNL     1      89.048  64.015  91.086  0.00  0.00    +0.000 A 
ENDBRANCH  11  15
ENDBRANCH   1  11
TORSDOF 3
ENDMDL
