MODEL 1
REMARK VINA RESULT:      -4.6      0.000      0.000
REMARK  Name = *****
REMARK  5 active torsions:
REMARK  status: ('A' for Active; 'I' for Inactive)
REMARK    1  A    between atoms: C_1  and  C_2
REMARK    2  A    between atoms: C_2  and  C_3
REMARK    3  A    between atoms: C_3  and  C_4
REMARK    4  A    between atoms: C_3  and  C_10
REMARK    5  A    between atoms: C_10  and  C_12
REMARK                            x       y       z     vdW  Elec       q    Type
REMARK                         _______ _______ _______ _____ _____    ______ ____
ROOT
ATOM      1  C   UNL     1     103.097 125.773  81.783  0.00  0.00    +0.000 C 
ATOM      2  F   UNL     1     102.330 125.491  80.676  0.00  0.00    +0.000 F 
ENDROOT
BRANCH   1   3
ATOM      3  C   UNL     1     103.926 127.045  81.588  0.00  0.00    +0.000 A 
ATOM      4  C   UNL     1     104.755 127.547  82.606  0.00  0.00    +0.000 A 
ATOM      5  C   UNL     1     105.504 128.707  82.406  0.00  0.00    +0.000 A 
ATOM      6  C   UNL     1     105.442 129.379  81.188  0.00  0.00    +0.000 A 
ATOM      7  C   UNL     1     104.633 128.891  80.165  0.00  0.00    +0.000 A 
ATOM      8  C   UNL     1     103.882 127.730  80.362  0.00  0.00    +0.000 A 
ENDBRANCH   1   3
BRANCH   1  10
ATOM      9  C   UNL     1     104.591 124.002  80.667  0.00  0.00    +0.000 C 
ATOM     10  C   UNL     1     104.013 124.539  81.971  0.00  0.00    +0.000 C 
ENDBRANCH   1  10
BRANCH   1  11
ATOM     11  C   UNL     1     102.186 125.908  83.027  0.00  0.00    +0.000 C 
ATOM     12  O   UNL     1     102.350 125.213  84.034  0.00  0.00    +0.000 OA
BRANCH  11  13
ATOM     13  C   UNL     1     101.100 126.941  83.056  0.00  0.00    +0.000 A 
ATOM     14  C   UNL     1     101.254 128.207  83.634  0.00  0.00    +0.000 A 
ATOM     15  C   UNL     1     100.194 129.120  83.633  0.00  0.00    +0.000 A 
ATOM     16  C   UNL     1      98.972 128.777  83.059  0.00  0.00    +0.000 A 
ATOM     17  C   UNL     1      98.805 127.520  82.484  0.00  0.00    +0.000 A 
ATOM     18  C   UNL     1      99.862 126.607  82.484  0.00  0.00    +0.000 A 
ENDBRANCH  11  13
ENDBRANCH   1  11
TORSDOF 4
ENDMDL
