REMARK  Name = *****
REMARK  3 active torsions:
REMARK  status: ('A' for Active; 'I' for Inactive)
REMARK    1  A    between atoms: C_2  and  C_3
REMARK    2  A    between atoms: C_2  and  C_9
REMARK    3  A    between atoms: C_9  and  C_10
REMARK                            x       y       z     vdW  Elec       q    Type
REMARK                         _______ _______ _______ _____ _____    ______ ____
ROOT
ATOM      1  C   UNL     1       3.009  -3.621  -1.110  0.00  0.00    +0.000 C 
ATOM      2  C   UNL     1       2.758  -2.304  -1.228  0.00  0.00    +0.000 C 
ENDROOT
BRANCH   2   3
ATOM      3  C   UNL     1       2.247  -1.790  -2.514  0.00  0.00    +0.000 A 
ATOM      4  C   UNL     1       0.990  -2.191  -2.989  0.00  0.00    +0.000 A 
ATOM      5  C   UNL     1       0.501  -1.704  -4.203  0.00  0.00    +0.000 A 
ATOM      6  C   UNL     1       1.265  -0.814  -4.955  0.00  0.00    +0.000 A 
ATOM      7  C   UNL     1       2.516  -0.409  -4.494  0.00  0.00    +0.000 A 
ATOM      8  C   UNL     1       3.005  -0.895  -3.279  0.00  0.00    +0.000 A 
ENDBRANCH   2   3
BRANCH   2   9
ATOM      9  C   UNL     1       3.009  -1.305  -0.111  0.00  0.00    +0.000 C 
ATOM     10  F   UNL     1       3.935  -0.377  -0.509  0.00  0.00    +0.000 F 
BRANCH   9  11
ATOM     11  C   UNL     1       1.732  -0.665   0.405  0.00  0.00    +0.000 A 
ATOM     12  C   UNL     1       1.386   0.640   0.025  0.00  0.00    +0.000 A 
ATOM     13  C   UNL     1       0.205   1.224   0.486  0.00  0.00    +0.000 A 
ATOM     14  C   UNL     1      -0.644   0.509   1.330  0.00  0.00    +0.000 A 
ATOM     15  C   UNL     1      -0.315  -0.790   1.711  0.00  0.00    +0.000 A 
ATOM     16  C   UNL     1       0.865  -1.376   1.250  0.00  0.00    +0.000 A 
ENDBRANCH   9  11
ENDBRANCH   2   9
TORSDOF 3
