MODEL 1
REMARK VINA RESULT:      -4.8      0.000      0.000
REMARK  Name = *****
REMARK  7 active torsions:
REMARK  status: ('A' for Active; 'I' for Inactive)
REMARK    1  A    between atoms: C_1  and  C_2
REMARK    2  A    between atoms: C_4  and  C_19
REMARK    3  A    between atoms: C_5  and  C_9
REMARK    4  A    between atoms: C_6  and  C_8
REMARK    5  A    between atoms: C_9  and  O_10
REMARK    6  A    between atoms: O_10  and  C_11
REMARK    7  A    between atoms: C_11  and  C_13
REMARK                            x       y       z     vdW  Elec       q    Type
REMARK                         _______ _______ _______ _____ _____    ______ ____
ROOT
ATOM      1  C   UNL     1      88.524  70.401  86.103  0.00  0.00    +0.000 C 
ENDROOT
BRANCH   1   6
ATOM      2  C   UNL     1      83.826  72.624  88.779  0.00  0.00    +0.000 C 
ATOM      3  C   UNL     1      85.020  72.034  88.090  0.00  0.00    +0.000 A 
ATOM      4  C   UNL     1      85.102  72.022  86.696  0.00  0.00    +0.000 A 
ATOM      5  C   UNL     1      86.229  71.504  86.037  0.00  0.00    +0.000 A 
ATOM      6  C   UNL     1      87.300  70.969  86.793  0.00  0.00    +0.000 A 
ATOM      7  C   UNL     1      87.239  71.024  88.206  0.00  0.00    +0.000 A 
ATOM      8  C   UNL     1      86.097  71.548  88.835  0.00  0.00    +0.000 A 
ATOM      9  C   UNL     1      88.363  70.518  89.072  0.00  0.00    +0.000 C 
ATOM     10  C   UNL     1      86.251  71.524  84.530  0.00  0.00    +0.000 C 
ENDBRANCH   1   6
BRANCH   1  11
ATOM     11  O   UNL     1      88.229  69.051  85.738  0.00  0.00    +0.000 OA
BRANCH  11  12
ATOM     12  C   UNL     1      89.006  68.119  86.353  0.00  0.00    +0.000 C 
ATOM     13  O   UNL     1      90.202  68.252  86.577  0.00  0.00    +0.000 OA
BRANCH  12  14
ATOM     14  C   UNL     1      88.165  66.922  86.774  0.00  0.00    +0.000 C 
ATOM     15  C   UNL     1      87.310  67.273  88.002  0.00  0.00    +0.000 C 
ATOM     16  C   UNL     1      86.493  66.081  88.490  0.00  0.00    +0.000 C 
ATOM     17  C   UNL     1      87.378  64.871  88.770  0.00  0.00    +0.000 C 
ATOM     18  C   UNL     1      88.225  64.508  87.556  0.00  0.00    +0.000 C 
ATOM     19  C   UNL     1      89.044  65.697  87.061  0.00  0.00    +0.000 C 
ENDBRANCH  12  14
ENDBRANCH  11  12
ENDBRANCH   1  11
TORSDOF 4
ENDMDL
