MODEL 1
REMARK VINA RESULT:      -4.5      0.000      0.000
REMARK  Name = *****
REMARK  3 active torsions:
REMARK  status: ('A' for Active; 'I' for Inactive)
REMARK    1  A    between atoms: C_3  and  C_9
REMARK    2  A    between atoms: C_9  and  O_11
REMARK    3  A    between atoms: O_11  and  C_12
REMARK                            x       y       z     vdW  Elec       q    Type
REMARK                         _______ _______ _______ _____ _____    ______ ____
ROOT
ATOM      1  C   UNL     1     102.915 125.955  83.496  0.00  0.00    +0.000 C 
ATOM      2  O   UNL     1     102.727 124.905  84.093  0.00  0.00    +0.000 OA
ENDROOT
BRANCH   1   5
ATOM      3  C   UNL     1     104.371 125.241  79.963  0.00  0.00    +0.000 C 
ATOM      4  C   UNL     1     103.449 125.093  81.181  0.00  0.00    +0.000 C 
ATOM      5  C   UNL     1     103.834 126.105  82.287  0.00  0.00    +0.000 C 
ATOM      6  C   UNL     1     103.727 127.526  81.689  0.00  0.00    +0.000 C 
ATOM      7  C   UNL     1     104.651 127.668  80.471  0.00  0.00    +0.000 C 
ATOM      8  C   UNL     1     105.401 126.352  80.210  0.00  0.00    +0.000 C 
ATOM      9  C   UNL     1     106.223 125.992  81.456  0.00  0.00    +0.000 C 
ATOM     10  C   UNL     1     105.305 125.843  82.679  0.00  0.00    +0.000 C 
ENDBRANCH   1   5
BRANCH   1  11
ATOM     11  O   UNL     1     102.344 127.151  83.809  0.00  0.00    +0.000 OA
BRANCH  11  12
ATOM     12  C   UNL     1     100.916 127.327  83.727  0.00  0.00    +0.000 C 
ATOM     13  C   UNL     1     100.181 126.883  85.009  0.00  0.00    +0.000 C 
ATOM     14  C   UNL     1      98.682 127.192  84.900  0.00  0.00    +0.000 C 
ATOM     15  C   UNL     1      98.370 127.882  83.561  0.00  0.00    +0.000 C 
ATOM     16  C   UNL     1      98.792 126.952  82.411  0.00  0.00    +0.000 C 
ATOM     17  C   UNL     1     100.293 126.641  82.494  0.00  0.00    +0.000 C 
ATOM     18  C   UNL     1      99.194 129.174  83.473  0.00  0.00    +0.000 C 
ATOM     19  C   UNL     1     100.688 128.851  83.570  0.00  0.00    +0.000 C 
ENDBRANCH  11  12
ENDBRANCH   1  11
TORSDOF 3
ENDMDL
