REMARK  Name = *****
REMARK  3 active torsions:
REMARK  status: ('A' for Active; 'I' for Inactive)
REMARK    1  A    between atoms: C_4  and  C_7
REMARK    2  A    between atoms: C_7  and  C_16
REMARK    3  A    between atoms: C_8  and  C_9
REMARK                            x       y       z     vdW  Elec       q    Type
REMARK                         _______ _______ _______ _____ _____    ______ ____
ROOT
ATOM      1  C   UNL     1      -2.891   0.320  -0.246  0.00  0.00    +0.000 C 
ATOM      2  C   UNL     1      -3.398   1.570  -0.268  0.00  0.00    +0.000 C 
ENDROOT
BRANCH   2   3
ATOM      3  C   UNL     1      -4.820   1.921  -0.384  0.00  0.00    +0.000 A 
ATOM      4  C   UNL     1      -5.743   1.575   0.611  0.00  0.00    +0.000 A 
ATOM      5  C   UNL     1      -7.088   1.935   0.479  0.00  0.00    +0.000 A 
ATOM      6  C   UNL     1      -7.520   2.648  -0.640  0.00  0.00    +0.000 A 
ATOM      7  C   UNL     1      -6.606   3.008  -1.629  0.00  0.00    +0.000 A 
ATOM      8  C   UNL     1      -5.268   2.648  -1.493  0.00  0.00    +0.000 A 
ATOM      9  F   UNL     1      -4.403   3.009  -2.454  0.00  0.00    +0.000 F 
ENDBRANCH   2   3
BRANCH   1  13
ATOM     10  C   UNL     1       1.355  -0.222   0.069  0.00  0.00    +0.000 A 
ATOM     11  C   UNL     1       0.498  -0.872   0.955  0.00  0.00    +0.000 A 
ATOM     12  C   UNL     1      -0.884  -0.692   0.853  0.00  0.00    +0.000 A 
ATOM     13  C   UNL     1      -1.425   0.143  -0.137  0.00  0.00    +0.000 A 
ATOM     14  C   UNL     1      -0.549   0.785  -1.028  0.00  0.00    +0.000 A 
ATOM     15  C   UNL     1       0.832   0.605  -0.923  0.00  0.00    +0.000 A 
ENDBRANCH   1  13
BRANCH   1  16
ATOM     16  C   UNL     1      -3.722  -0.843  -0.316  0.00  0.00    +0.000 C 
ATOM     17  N   UNL     1      -4.392  -1.791  -0.349  0.00  0.00    +0.000 NA
ENDBRANCH   1  16
TORSDOF 3
