REMARK  Name = *****
REMARK  2 active torsions:
REMARK  status: ('A' for Active; 'I' for Inactive)
REMARK    1  A    between atoms: C_4  and  C_7
REMARK    2  A    between atoms: C_7  and  C_9
REMARK                            x       y       z     vdW  Elec       q    Type
REMARK                         _______ _______ _______ _____ _____    ______ ____
ROOT
ATOM      1  C   UNL     1      -2.807   0.645  -0.431  0.00  0.00    +0.000 C 
ATOM      2  O   UNL     1      -3.233   1.708   0.004  0.00  0.00    +0.000 OA
ENDROOT
BRANCH   1   6
ATOM      3  C   UNL     1       1.357  -0.261   0.056  0.00  0.00    +0.000 A 
ATOM      4  C   UNL     1       0.454  -1.301  -0.163  0.00  0.00    +0.000 A 
ATOM      5  C   UNL     1      -0.907  -1.027  -0.323  0.00  0.00    +0.000 A 
ATOM      6  C   UNL     1      -1.368   0.295  -0.270  0.00  0.00    +0.000 A 
ATOM      7  C   UNL     1      -0.456   1.333  -0.031  0.00  0.00    +0.000 A 
ATOM      8  C   UNL     1       0.903   1.055   0.126  0.00  0.00    +0.000 A 
ENDBRANCH   1   6
BRANCH   1   9
ATOM      9  C   UNL     1      -3.649  -0.288  -1.225  0.00  0.00    +0.000 C 
ATOM     10  C   UNL     1      -4.955  -0.529  -1.031  0.00  0.00    +0.000 C 
ATOM     11  S   UNL     1      -5.916   0.149   0.256  0.00  0.00    +0.000 S 
ATOM     12  C   UNL     1      -7.358  -0.658  -0.248  0.00  0.00    +0.000 C 
ATOM     13  C   UNL     1      -7.294  -1.468  -1.308  0.00  0.00    +0.000 C 
ATOM     14  S   UNL     1      -5.772  -1.653  -2.106  0.00  0.00    +0.000 S 
ENDBRANCH   1   9
TORSDOF 2
