MODEL 1
REMARK VINA RESULT:      -4.3      0.000      0.000
REMARK  Name = *****
REMARK  3 active torsions:
REMARK  status: ('A' for Active; 'I' for Inactive)
REMARK    1  A    between atoms: C_5  and  O_7
REMARK    2  A    between atoms: O_7  and  C_8
REMARK    3  A    between atoms: C_8  and  C_10
REMARK                            x       y       z     vdW  Elec       q    Type
REMARK                         _______ _______ _______ _____ _____    ______ ____
ROOT
ATOM      1  O   UNL     1     100.351 127.380  82.199  0.00  0.00    +0.000 OA
ENDROOT
BRANCH   1   6
ATOM      2  C   UNL     1     102.933 128.542  83.246  0.00  0.00    +0.000 C 
ATOM      3  C   UNL     1     103.891 127.972  82.206  0.00  0.00    +0.000 C 
ATOM      4  C   UNL     1     103.157 127.125  81.168  0.00  0.00    +0.000 C 
ATOM      5  C   UNL     1     102.294 126.025  81.798  0.00  0.00    +0.000 C 
ATOM      6  C   UNL     1     101.351 126.582  82.880  0.00  0.00    +0.000 C 
ATOM      7  C   UNL     1     102.095 127.448  83.907  0.00  0.00    +0.000 C 
ATOM      8 CL   UNL     1     103.334 124.727  82.468  0.00  0.00    +0.000 Cl
ENDBRANCH   1   6
BRANCH   1   9
ATOM      9  C   UNL     1      99.097 127.339  82.714  0.00  0.00    +0.000 C 
ATOM     10  O   UNL     1      98.230 126.533  82.421  0.00  0.00    +0.000 OA
BRANCH   9  11
ATOM     11  C   UNL     1      98.894 128.450  83.684  0.00  0.00    +0.000 A 
ATOM     12  C   UNL     1      99.391 129.718  83.350  0.00  0.00    +0.000 A 
ATOM     13  C   UNL     1      99.247 130.788  84.236  0.00  0.00    +0.000 A 
ATOM     14  C   UNL     1      98.607 130.597  85.460  0.00  0.00    +0.000 A 
ATOM     15  C   UNL     1      98.106 129.341  85.799  0.00  0.00    +0.000 A 
ATOM     16  C   UNL     1      98.247 128.268  84.914  0.00  0.00    +0.000 A 
ENDBRANCH   9  11
ENDBRANCH   1   9
TORSDOF 3
ENDMDL
