MODEL 1
REMARK VINA RESULT:      -4.0      0.000      0.000
REMARK  Name = *****
REMARK  3 active torsions:
REMARK  status: ('A' for Active; 'I' for Inactive)
REMARK    1  A    between atoms: C_1  and  C_2
REMARK    2  A    between atoms: C_5  and  N_8
REMARK    3  A    between atoms: C_9  and  C_10
REMARK                            x       y       z     vdW  Elec       q    Type
REMARK                         _______ _______ _______ _____ _____    ______ ____
ROOT
ATOM      1  C   UNL     1     105.972 121.771  81.161  0.00  0.00    +0.000 C 
ATOM      2  C   UNL     1     105.060 122.949  81.344  0.00  0.00    +0.000 A 
ATOM      3  C   UNL     1     104.764 123.789  80.264  0.00  0.00    +0.000 A 
ATOM      4  C   UNL     1     103.945 124.907  80.443  0.00  0.00    +0.000 A 
ATOM      5  C   UNL     1     103.410 125.198  81.700  0.00  0.00    +0.000 A 
ATOM      6  C   UNL     1     103.730 124.380  82.784  0.00  0.00    +0.000 A 
ATOM      7  C   UNL     1     104.550 123.261  82.609  0.00  0.00    +0.000 A 
ENDROOT
BRANCH   5   8
ATOM      8  N   UNL     1     102.595 126.324  81.883  0.00  0.00    +0.000 NA
ATOM      9  C   UNL     1     101.574 126.154  82.662  0.00  0.00    +0.000 C 
BRANCH   9  10
ATOM     10  C   UNL     1     100.663 127.241  82.925  0.00  0.00    +0.000 A 
ATOM     11  C   UNL     1     100.930 128.491  83.447  0.00  0.00    +0.000 A 
ATOM     12  C   UNL     1      99.758 129.294  83.557  0.00  0.00    +0.000 A 
ATOM     13  C   UNL     1      98.636 128.628  83.114  0.00  0.00    +0.000 A 
ATOM     14  S   UNL     1      99.001 127.046  82.572  0.00  0.00    +0.000 S 
ENDBRANCH   9  10
ENDBRANCH   5   8
TORSDOF 2
ENDMDL
