MODEL 1
REMARK VINA RESULT:      -4.3      0.000      0.000
REMARK  Name = *****
REMARK  1 active torsions:
REMARK  status: ('A' for Active; 'I' for Inactive)
REMARK    1  A    between atoms: C_4  and  C_6
REMARK                            x       y       z     vdW  Elec       q    Type
REMARK                         _______ _______ _______ _____ _____    ______ ____
ROOT
ATOM      1  C   UNL     1     102.311 126.110  82.227  0.00  0.00    +0.000 A 
ATOM      2  N   UNL     1     102.596 127.222  82.892  0.00  0.00    +0.000 NA
ATOM      3  C   UNL     1     101.380 127.820  83.094  0.00  0.00    +0.000 A 
ATOM      4  C   UNL     1     100.380 127.042  82.539  0.00  0.00    +0.000 A 
ATOM      5  O   UNL     1     100.964 125.946  81.982  0.00  0.00    +0.000 OA
ATOM      6  C   UNL     1      99.026 127.353  82.563  0.00  0.00    +0.000 A 
ATOM      7  C   UNL     1      98.695 128.552  83.208  0.00  0.00    +0.000 A 
ATOM      8  C   UNL     1      99.682 129.364  83.780  0.00  0.00    +0.000 A 
ATOM      9  C   UNL     1     101.038 129.016  83.736  0.00  0.00    +0.000 A 
ATOM     10 CL   UNL     1      99.218 130.830  84.560  0.00  0.00    +0.000 Cl
ENDROOT
BRANCH   1  14
ATOM     11  C   UNL     1     104.780 123.962  80.442  0.00  0.00    +0.000 A 
ATOM     12  C   UNL     1     105.059 123.426  81.679  0.00  0.00    +0.000 A 
ATOM     13  S   UNL     1     104.113 124.137  82.914  0.00  0.00    +0.000 S 
ATOM     14  C   UNL     1     103.317 125.173  81.804  0.00  0.00    +0.000 A 
ATOM     15  C   UNL     1     103.775 124.971  80.515  0.00  0.00    +0.000 A 
ENDBRANCH   1  14
TORSDOF 1
ENDMDL
