MODEL 1
REMARK VINA RESULT:      -4.5      0.000      0.000
REMARK  Name = *****
REMARK  3 active torsions:
REMARK  status: ('A' for Active; 'I' for Inactive)
REMARK    1  A    between atoms: C_5  and  S_7
REMARK    2  A    between atoms: S_7  and  C_8
REMARK    3  A    between atoms: C_8  and  C_9
REMARK                            x       y       z     vdW  Elec       q    Type
REMARK                         _______ _______ _______ _____ _____    ______ ____
ROOT
ATOM      1  C   UNL     1     102.942 125.401  83.904  0.00  0.00    +0.000 C 
ENDROOT
BRANCH   1   2
ATOM      2  C   UNL     1     103.621 124.635  82.794  0.00  0.00    +0.000 A 
ATOM      3  C   UNL     1     104.234 123.397  83.055  0.00  0.00    +0.000 A 
ATOM      4  C   UNL     1     104.847 122.683  82.023  0.00  0.00    +0.000 A 
ATOM      5  C   UNL     1     104.845 123.195  80.729  0.00  0.00    +0.000 A 
ATOM      6  C   UNL     1     104.234 124.415  80.452  0.00  0.00    +0.000 A 
ATOM      7  C   UNL     1     103.620 125.132  81.481  0.00  0.00    +0.000 A 
ATOM      8  F   UNL     1     105.428 122.525  79.724  0.00  0.00    +0.000 F 
ATOM      9 CL   UNL     1     105.597 121.172  82.369  0.00  0.00    +0.000 Cl
ENDBRANCH   1   2
BRANCH   1  10
ATOM     10  S   UNL     1     103.054 127.197  83.621  0.00  0.00    +0.000 S 
BRANCH  10  15
ATOM     11  C   UNL     1      99.484 129.254  83.418  0.00  0.00    +0.000 A 
ATOM     12  C   UNL     1      98.650 128.291  82.857  0.00  0.00    +0.000 A 
ATOM     13  C   UNL     1      99.170 127.041  82.551  0.00  0.00    +0.000 A 
ATOM     14  C   UNL     1     100.506 126.738  82.793  0.00  0.00    +0.000 A 
ATOM     15  C   UNL     1     101.357 127.697  83.356  0.00  0.00    +0.000 A 
ATOM     16  C   UNL     1     100.831 128.958  83.667  0.00  0.00    +0.000 A 
ATOM     17  F   UNL     1      98.370 126.111  82.011  0.00  0.00    +0.000 F 
ENDBRANCH  10  15
ENDBRANCH   1  10
TORSDOF 3
ENDMDL
