MODEL 1
REMARK VINA RESULT:      -4.8      0.000      0.000
REMARK  Name = *****
REMARK  3 active torsions:
REMARK  status: ('A' for Active; 'I' for Inactive)
REMARK    1  A    between atoms: C_4  and  C_7
REMARK    2  A    between atoms: C_8  and  C_9
REMARK    3  A    between atoms: C_14  and  C_15
REMARK                            x       y       z     vdW  Elec       q    Type
REMARK                         _______ _______ _______ _____ _____    ______ ____
ROOT
ATOM      1  C   UNL     1     101.113 127.037  82.651  0.00  0.00    +0.000 A 
ATOM      2  C   UNL     1      99.779 126.754  82.324  0.00  0.00    +0.000 A 
ATOM      3  C   UNL     1      98.757 127.639  82.676  0.00  0.00    +0.000 A 
ATOM      4  C   UNL     1      99.058 128.820  83.350  0.00  0.00    +0.000 A 
ATOM      5  C   UNL     1     100.380 129.112  83.681  0.00  0.00    +0.000 A 
ATOM      6  C   UNL     1     101.410 128.216  83.348  0.00  0.00    +0.000 A 
ENDROOT
BRANCH   6   7
ATOM      7  C   UNL     1     102.790 128.591  83.755  0.00  0.00    +0.000 C 
ATOM      8  O   UNL     1     103.051 128.506  84.954  0.00  0.00    +0.000 OA
ATOM      9 CL   UNL     1     103.959 129.010  82.525  0.00  0.00    +0.000 Cl
ENDBRANCH   6   7
BRANCH   1  11
ATOM     10  C   UNL     1     102.969 125.357  81.836  0.00  0.00    +0.000 C 
ATOM     11  C   UNL     1     102.119 126.121  82.207  0.00  0.00    +0.000 C 
BRANCH  10  15
ATOM     12  C   UNL     1     105.933 122.646  80.530  0.00  0.00    +0.000 A 
ATOM     13  C   UNL     1     105.330 122.473  81.776  0.00  0.00    +0.000 A 
ATOM     14  C   UNL     1     104.350 123.369  82.208  0.00  0.00    +0.000 A 
ATOM     15  C   UNL     1     103.974 124.440  81.394  0.00  0.00    +0.000 A 
ATOM     16  C   UNL     1     104.579 124.612  80.146  0.00  0.00    +0.000 A 
ATOM     17  C   UNL     1     105.558 123.715  79.716  0.00  0.00    +0.000 A 
ENDBRANCH  10  15
ENDBRANCH   1  11
TORSDOF 3
ENDMDL
