MODEL 1
REMARK VINA RESULT:      -4.6      0.000      0.000
REMARK  Name = *****
REMARK  5 active torsions:
REMARK  status: ('A' for Active; 'I' for Inactive)
REMARK    1  A    between atoms: C_1  and  C_2
REMARK    2  A    between atoms: C_2  and  C_3
REMARK    3  A    between atoms: C_2  and  O_8
REMARK    4  A    between atoms: O_8  and  C_9
REMARK    5  A    between atoms: C_9  and  C_11
REMARK                            x       y       z     vdW  Elec       q    Type
REMARK                         _______ _______ _______ _____ _____    ______ ____
ROOT
ATOM      1  C   UNL     1      99.317 127.394  82.886  0.00  0.00    +0.000 C 
ATOM      2  O   UNL     1      98.551 127.063  81.996  0.00  0.00    +0.000 OA
ENDROOT
BRANCH   1   3
ATOM      3  C   UNL     1      99.054 128.526  83.814  0.00  0.00    +0.000 A 
ATOM      4  C   UNL     1      98.425 128.350  85.051  0.00  0.00    +0.000 A 
ATOM      5  C   UNL     1      98.208 129.454  85.870  0.00  0.00    +0.000 A 
ATOM      6  C   UNL     1      98.606 130.730  85.484  0.00  0.00    +0.000 A 
ATOM      7  C   UNL     1      99.232 130.912  84.253  0.00  0.00    +0.000 A 
ATOM      8  C   UNL     1      99.456 129.813  83.420  0.00  0.00    +0.000 A 
ATOM      9  F   UNL     1      97.607 129.283  87.055  0.00  0.00    +0.000 F 
ENDBRANCH   1   3
BRANCH   1  10
ATOM     10  O   UNL     1     100.503 126.810  83.180  0.00  0.00    +0.000 OA
BRANCH  10  12
ATOM     11  C   UNL     1     102.569 128.038  82.973  0.00  0.00    +0.000 C 
ATOM     12  C   UNL     1     101.597 127.088  82.278  0.00  0.00    +0.000 C 
BRANCH  12  13
ATOM     13  C   UNL     1     102.254 125.744  81.937  0.00  0.00    +0.000 C 
ATOM     14  C   UNL     1     103.144 125.174  83.040  0.00  0.00    +0.000 C 
ATOM     15  C   UNL     1     104.073 124.192  82.330  0.00  0.00    +0.000 C 
ATOM     16  C   UNL     1     104.017 124.540  80.844  0.00  0.00    +0.000 C 
ATOM     17  C   UNL     1     103.219 125.834  80.753  0.00  0.00    +0.000 C 
ENDBRANCH  12  13
ENDBRANCH  10  12
ENDBRANCH   1  10
TORSDOF 4
ENDMDL
