MODEL 1
REMARK VINA RESULT:      -5.0      0.000      0.000
REMARK  Name = *****
REMARK  2 active torsions:
REMARK  status: ('A' for Active; 'I' for Inactive)
REMARK    1  A    between atoms: C_4  and  C_7
REMARK    2  A    between atoms: C_8  and  C_9
REMARK                            x       y       z     vdW  Elec       q    Type
REMARK                         _______ _______ _______ _____ _____    ______ ____
ROOT
ATOM      1  C   UNL     1     102.045 125.936  82.338  0.00  0.00    +0.000 C 
ATOM      2  C   UNL     1     102.816 125.970  81.238  0.00  0.00    +0.000 C 
ENDROOT
BRANCH   2   3
ATOM      3  C   UNL     1     103.848 124.972  80.928  0.00  0.00    +0.000 A 
ATOM      4  C   UNL     1     104.656 125.061  79.787  0.00  0.00    +0.000 A 
ATOM      5  C   UNL     1     105.642 124.104  79.554  0.00  0.00    +0.000 A 
ATOM      6  C   UNL     1     105.839 123.062  80.450  0.00  0.00    +0.000 A 
ATOM      7  C   UNL     1     105.059 122.965  81.596  0.00  0.00    +0.000 A 
ATOM      8  C   UNL     1     104.068 123.922  81.836  0.00  0.00    +0.000 A 
ATOM      9  F   UNL     1     106.789 122.145  80.222  0.00  0.00    +0.000 F 
ATOM     10  F   UNL     1     106.403 124.201  78.456  0.00  0.00    +0.000 F 
ENDBRANCH   2   3
BRANCH   1  14
ATOM     11  C   UNL     1      99.130 128.898  83.350  0.00  0.00    +0.000 A 
ATOM     12  C   UNL     1      98.725 127.726  82.716  0.00  0.00    +0.000 A 
ATOM     13  C   UNL     1      99.667 126.753  82.374  0.00  0.00    +0.000 A 
ATOM     14  C   UNL     1     101.027 126.948  82.652  0.00  0.00    +0.000 A 
ATOM     15  C   UNL     1     101.419 128.124  83.304  0.00  0.00    +0.000 A 
ATOM     16  C   UNL     1     100.477 129.097  83.647  0.00  0.00    +0.000 A 
ENDBRANCH   1  14
TORSDOF 2
ENDMDL
