MODEL 1
REMARK VINA RESULT:      -4.6      0.000      0.000
REMARK  Name = *****
REMARK  4 active torsions:
REMARK  status: ('A' for Active; 'I' for Inactive)
REMARK    1  A    between atoms: C_1  and  C_2
REMARK    2  A    between atoms: C_7  and  S_8
REMARK    3  A    between atoms: S_8  and  N_10
REMARK    4  A    between atoms: N_10  and  C_11
REMARK                            x       y       z     vdW  Elec       q    Type
REMARK                         _______ _______ _______ _____ _____    ______ ____
ROOT
ATOM      1  S   UNL     1     103.161 126.731  81.567  0.00  0.00    +0.000 S 
ATOM      2  O   UNL     1     103.376 127.136  80.141  0.00  0.00    +0.000 OA
ENDROOT
BRANCH   1   9
ATOM      3  C   UNL     1     103.465 124.916  84.278  0.00  0.00    +0.000 C 
ATOM      4  C   UNL     1     103.911 124.332  82.964  0.00  0.00    +0.000 A 
ATOM      5  C   UNL     1     104.433 123.023  82.977  0.00  0.00    +0.000 A 
ATOM      6  C   UNL     1     104.854 122.399  81.804  0.00  0.00    +0.000 A 
ATOM      7  C   UNL     1     104.758 123.071  80.594  0.00  0.00    +0.000 A 
ATOM      8  C   UNL     1     104.253 124.370  80.562  0.00  0.00    +0.000 A 
ATOM      9  C   UNL     1     103.843 125.031  81.739  0.00  0.00    +0.000 A 
ENDBRANCH   1   9
BRANCH   1  10
ATOM     10  N   UNL     1     101.568 126.227  81.706  0.00  0.00    +0.000 N 
ATOM     11  H   UNL     1     101.284 125.404  81.246  0.00  0.00    +0.000 HD
BRANCH  10  12
ATOM     12  C   UNL     1     100.619 126.953  82.468  0.00  0.00    +0.000 A 
ATOM     13  C   UNL     1      99.233 126.771  82.361  0.00  0.00    +0.000 A 
ATOM     14  C   UNL     1      98.343 127.577  83.079  0.00  0.00    +0.000 A 
ATOM     15  C   UNL     1      98.823 128.598  83.892  0.00  0.00    +0.000 A 
ATOM     16  C   UNL     1     100.194 128.823  83.980  0.00  0.00    +0.000 A 
ATOM     17  C   UNL     1     101.081 128.015  83.263  0.00  0.00    +0.000 A 
ENDBRANCH  10  12
ENDBRANCH   1  10
TORSDOF 3
ENDMDL
