MODEL 1
REMARK VINA RESULT:      -4.4      0.000      0.000
REMARK  Name = *****
REMARK  4 active torsions:
REMARK  status: ('A' for Active; 'I' for Inactive)
REMARK    1  A    between atoms: C_5  and  C_7
REMARK    2  A    between atoms: C_7  and  C_8
REMARK    3  A    between atoms: C_8  and  S_9
REMARK    4  A    between atoms: S_9  and  C_10
REMARK                            x       y       z     vdW  Elec       q    Type
REMARK                         _______ _______ _______ _____ _____    ______ ____
ROOT
ATOM      1  S   UNL     1     104.546 125.554  82.778  0.00  0.00    +0.000 S 
ENDROOT
BRANCH   1   2
ATOM      2  C   UNL     1     104.606 123.867  82.180  0.00  0.00    +0.000 A 
ATOM      3  C   UNL     1     104.835 123.527  80.835  0.00  0.00    +0.000 A 
ATOM      4  C   UNL     1     104.875 122.184  80.445  0.00  0.00    +0.000 A 
ATOM      5  C   UNL     1     104.692 121.172  81.389  0.00  0.00    +0.000 A 
ATOM      6  C   UNL     1     104.471 121.507  82.723  0.00  0.00    +0.000 A 
ATOM      7  C   UNL     1     104.431 122.843  83.121  0.00  0.00    +0.000 A 
ATOM      8 CL   UNL     1     104.245 120.261  83.887  0.00  0.00    +0.000 Cl
ATOM      9 CL   UNL     1     105.071 124.717  79.602  0.00  0.00    +0.000 Cl
ENDBRANCH   1   2
BRANCH   1  10
ATOM     10  C   UNL     1     102.806 125.587  83.336  0.00  0.00    +0.000 C 
BRANCH  10  11
ATOM     11  C   UNL     1     101.889 125.940  82.170  0.00  0.00    +0.000 C 
BRANCH  11  16
ATOM     12  C   UNL     1     100.284 129.041  83.643  0.00  0.00    +0.000 A 
ATOM     13  C   UNL     1      98.957 128.798  83.315  0.00  0.00    +0.000 A 
ATOM     14  C   UNL     1      98.655 127.633  82.632  0.00  0.00    +0.000 A 
ATOM     15  N   UNL     1      99.579 126.717  82.264  0.00  0.00    +0.000 NA
ATOM     16  C   UNL     1     100.869 126.963  82.599  0.00  0.00    +0.000 A 
ATOM     17  C   UNL     1     101.257 128.113  83.282  0.00  0.00    +0.000 A 
ENDBRANCH  11  16
ENDBRANCH  10  11
ENDBRANCH   1  10
TORSDOF 4
ENDMDL
