MODEL 1
REMARK VINA RESULT:      -3.9      0.000      0.000
REMARK  Name = *****
REMARK  4 active torsions:
REMARK  status: ('A' for Active; 'I' for Inactive)
REMARK    1  A    between atoms: C_6  and  C_7
REMARK    2  A    between atoms: C_7  and  C_9
REMARK    3  A    between atoms: C_9  and  C_10
REMARK    4  A    between atoms: C_10  and  C_11
REMARK                            x       y       z     vdW  Elec       q    Type
REMARK                         _______ _______ _______ _____ _____    ______ ____
ROOT
ATOM      1  C   UNL     1      89.851  66.913  86.365  0.00  0.00    +0.000 C 
ATOM      2  O   UNL     1      90.886  66.273  86.198  0.00  0.00    +0.000 OA
ENDROOT
BRANCH   1   8
ATOM      3  C   UNL     1      89.874  68.546  84.486  0.00  0.00    +0.000 A 
ATOM      4  C   UNL     1      89.814  69.843  83.970  0.00  0.00    +0.000 A 
ATOM      5  C   UNL     1      89.653  70.923  84.833  0.00  0.00    +0.000 A 
ATOM      6  C   UNL     1      89.551  70.714  86.208  0.00  0.00    +0.000 A 
ATOM      7  C   UNL     1      89.610  69.415  86.727  0.00  0.00    +0.000 A 
ATOM      8  C   UNL     1      89.774  68.322  85.868  0.00  0.00    +0.000 A 
ATOM      9 CL   UNL     1      89.580  72.521  84.203  0.00  0.00    +0.000 Cl
ENDBRANCH   1   8
BRANCH   1  10
ATOM     10  C   UNL     1      88.645  66.322  87.076  0.00  0.00    +0.000 C 
BRANCH  10  11
ATOM     11  C   UNL     1      87.781  65.480  86.129  0.00  0.00    +0.000 C 
BRANCH  11  12
ATOM     12  C   UNL     1      87.806  64.011  86.528  0.00  0.00    +0.000 C 
ATOM     13  S   UNL     1      86.131  63.298  86.679  0.00  0.00    +0.000 S 
ATOM     14  C   UNL     1      86.894  62.521  88.001  0.00  0.00    +0.000 C 
ATOM     15  O   UNL     1      86.640  61.485  88.579  0.00  0.00    +0.000 OA
ATOM     16  S   UNL     1      88.071  63.727  88.310  0.00  0.00    +0.000 S 
ENDBRANCH  11  12
ENDBRANCH  10  11
ENDBRANCH   1  10
TORSDOF 4
ENDMDL
