REMARK  Name = *****
REMARK  4 active torsions:
REMARK  status: ('A' for Active; 'I' for Inactive)
REMARK    1  A    between atoms: C_1  and  C_2
REMARK    2  A    between atoms: C_2  and  C_4
REMARK    3  A    between atoms: C_4  and  C_12
REMARK    4  A    between atoms: C_5  and  C_6
REMARK                            x       y       z     vdW  Elec       q    Type
REMARK                         _______ _______ _______ _____ _____    ______ ____
ROOT
ATOM      1  C   UNL     1       3.461  -0.441  -1.387  0.00  0.00    +0.000 C 
ATOM      2  C   UNL     1       2.695  -0.164  -2.461  0.00  0.00    +0.000 C 
ENDROOT
BRANCH   2   3
ATOM      3  C   UNL     1       1.229  -0.097  -2.487  0.00  0.00    +0.000 A 
ATOM      4  C   UNL     1       0.606   1.092  -2.885  0.00  0.00    +0.000 A 
ATOM      5  C   UNL     1      -0.787   1.178  -2.927  0.00  0.00    +0.000 A 
ATOM      6  C   UNL     1      -1.565   0.075  -2.581  0.00  0.00    +0.000 A 
ATOM      7  C   UNL     1      -0.952  -1.116  -2.197  0.00  0.00    +0.000 A 
ATOM      8  C   UNL     1       0.440  -1.205  -2.155  0.00  0.00    +0.000 A 
ENDBRANCH   2   3
BRANCH   1   9
ATOM      9  C   UNL     1       4.932  -0.499  -1.502  0.00  0.00    +0.000 A 
ATOM     10  C   UNL     1       5.653   0.558  -2.081  0.00  0.00    +0.000 A 
ATOM     11  C   UNL     1       7.046   0.504  -2.172  0.00  0.00    +0.000 A 
ATOM     12  C   UNL     1       7.735  -0.603  -1.684  0.00  0.00    +0.000 A 
ATOM     13  C   UNL     1       7.034  -1.656  -1.102  0.00  0.00    +0.000 A 
ATOM     14  C   UNL     1       5.640  -1.603  -1.010  0.00  0.00    +0.000 A 
ENDBRANCH   1   9
BRANCH   1  16
ATOM     15  C   UNL     1       2.282   0.465   0.704  0.00  0.00    +0.000 C 
ATOM     16  C   UNL     1       2.813  -0.715  -0.066  0.00  0.00    +0.000 C 
ATOM     17  O   UNL     1       2.743  -1.863   0.373  0.00  0.00    +0.000 OA
ENDBRANCH   1  16
TORSDOF 3
