REMARK  Name = *****
REMARK  3 active torsions:
REMARK  status: ('A' for Active; 'I' for Inactive)
REMARK    1  A    between atoms: C_4  and  C_7
REMARK    2  A    between atoms: C_7  and  C_16
REMARK    3  A    between atoms: C_8  and  C_9
REMARK                            x       y       z     vdW  Elec       q    Type
REMARK                         _______ _______ _______ _____ _____    ______ ____
ROOT
ATOM      1  C   UNL     1      -2.873   0.449  -0.263  0.00  0.00    +0.000 C 
ATOM      2  C   UNL     1      -3.384   1.697  -0.176  0.00  0.00    +0.000 C 
ATOM      3 CL   UNL     1      -2.392   3.095   0.143  0.00  0.00    +0.000 Cl
ENDROOT
BRANCH   1   7
ATOM      4  C   UNL     1       1.310  -0.278   0.244  0.00  0.00    +0.000 A 
ATOM      5  C   UNL     1       0.469  -0.249   1.356  0.00  0.00    +0.000 A 
ATOM      6  C   UNL     1      -0.898  -0.017   1.192  0.00  0.00    +0.000 A 
ATOM      7  C   UNL     1      -1.431   0.189  -0.088  0.00  0.00    +0.000 A 
ATOM      8  C   UNL     1      -0.579   0.155  -1.200  0.00  0.00    +0.000 A 
ATOM      9  C   UNL     1       0.787  -0.077  -1.033  0.00  0.00    +0.000 A 
ENDBRANCH   1   7
BRANCH   2  10
ATOM     10  C   UNL     1      -4.807   2.032  -0.339  0.00  0.00    +0.000 A 
ATOM     11  C   UNL     1      -5.666   2.020   0.768  0.00  0.00    +0.000 A 
ATOM     12  C   UNL     1      -7.021   2.316   0.608  0.00  0.00    +0.000 A 
ATOM     13  C   UNL     1      -7.523   2.626  -0.656  0.00  0.00    +0.000 A 
ATOM     14  C   UNL     1      -6.673   2.644  -1.761  0.00  0.00    +0.000 A 
ATOM     15  C   UNL     1      -5.318   2.348  -1.605  0.00  0.00    +0.000 A 
ENDBRANCH   2  10
BRANCH   1  16
ATOM     16  C   UNL     1      -3.771  -0.713  -0.547  0.00  0.00    +0.000 C 
ATOM     17  O   UNL     1      -3.365  -1.867  -0.641  0.00  0.00    +0.000 OA
ENDBRANCH   1  16
TORSDOF 3
