MODEL 1
REMARK VINA RESULT:      -4.7      0.000      0.000
REMARK  Name = *****
REMARK  4 active torsions:
REMARK  status: ('A' for Active; 'I' for Inactive)
REMARK    1  A    between atoms: C_1  and  C_2
REMARK    2  A    between atoms: C_5  and  O_8
REMARK    3  A    between atoms: O_8  and  C_9
REMARK    4  A    between atoms: C_10  and  C_11
REMARK                            x       y       z     vdW  Elec       q    Type
REMARK                         _______ _______ _______ _____ _____    ______ ____
ROOT
ATOM      1  C   UNL     1      88.787  66.080  86.555  0.00  0.00    +0.000 C 
ATOM      2  C   UNL     1      89.849  66.892  86.505  0.00  0.00    +0.000 C 
ENDROOT
BRANCH   2   3
ATOM      3  C   UNL     1      89.838  68.236  85.914  0.00  0.00    +0.000 A 
ATOM      4  C   UNL     1      89.975  68.449  84.534  0.00  0.00    +0.000 A 
ATOM      5  C   UNL     1      89.933  69.745  84.008  0.00  0.00    +0.000 A 
ATOM      6  C   UNL     1      89.743  70.832  84.857  0.00  0.00    +0.000 A 
ATOM      7  C   UNL     1      89.590  70.636  86.227  0.00  0.00    +0.000 A 
ATOM      8  C   UNL     1      89.630  69.340  86.752  0.00  0.00    +0.000 A 
ATOM      9 CL   UNL     1      89.692  72.425  84.210  0.00  0.00    +0.000 Cl
ENDBRANCH   2   3
BRANCH   1  10
ATOM     10  O   UNL     1      88.864  64.827  87.123  0.00  0.00    +0.000 OA
BRANCH  10  15
ATOM     11  C   UNL     1      86.519  64.417  92.269  0.00  0.00    +0.000 C 
ATOM     12  C   UNL     1      87.128  64.490  90.899  0.00  0.00    +0.000 A 
ATOM     13  C   UNL     1      88.303  63.784  90.609  0.00  0.00    +0.000 A 
ATOM     14  C   UNL     1      88.891  63.878  89.347  0.00  0.00    +0.000 A 
ATOM     15  C   UNL     1      88.300  64.676  88.366  0.00  0.00    +0.000 A 
ATOM     16  C   UNL     1      87.154  65.412  88.653  0.00  0.00    +0.000 A 
ATOM     17  C   UNL     1      86.567  65.318  89.917  0.00  0.00    +0.000 A 
ENDBRANCH  10  15
ENDBRANCH   1  10
TORSDOF 3
ENDMDL
