MODEL 1
REMARK VINA RESULT:      -4.5      0.000      0.000
REMARK  Name = *****
REMARK  5 active torsions:
REMARK  status: ('A' for Active; 'I' for Inactive)
REMARK    1  A    between atoms: C_1  and  C_2
REMARK    2  A    between atoms: C_6  and  C_7
REMARK    3  A    between atoms: C_7  and  O_9
REMARK    4  A    between atoms: O_9  and  C_10
REMARK    5  A    between atoms: C_10  and  C_11
REMARK                            x       y       z     vdW  Elec       q    Type
REMARK                         _______ _______ _______ _____ _____    ______ ____
ROOT
ATOM      1  C   UNL     1      99.439 127.218  82.545  0.00  0.00    +0.000 C 
ATOM      2  O   UNL     1      98.318 127.162  82.060  0.00  0.00    +0.000 OA
ENDROOT
BRANCH   1   8
ATOM      3  C   UNL     1      98.324 127.518  85.330  0.00  0.00    +0.000 C 
ATOM      4  C   UNL     1      99.710 128.059  84.969  0.00  0.00    +0.000 C 
ATOM      5  C   UNL     1      99.925 129.457  85.556  0.00  0.00    +0.000 C 
ATOM      6  C   UNL     1      99.262 130.405  84.562  0.00  0.00    +0.000 C 
ATOM      7  C   UNL     1      99.240 129.667  83.222  0.00  0.00    +0.000 C 
ATOM      8  C   UNL     1      99.924 128.317  83.470  0.00  0.00    +0.000 C 
ENDBRANCH   1   8
BRANCH   1   9
ATOM      9  O   UNL     1     100.451 126.347  82.286  0.00  0.00    +0.000 OA
BRANCH   9  10
ATOM     10  C   UNL     1     101.762 126.916  82.184  0.00  0.00    +0.000 C 
BRANCH  10  11
ATOM     11  C   UNL     1     102.766 125.814  81.968  0.00  0.00    +0.000 A 
ATOM     12  C   UNL     1     103.262 125.542  80.686  0.00  0.00    +0.000 A 
ATOM     13  C   UNL     1     104.187 124.513  80.490  0.00  0.00    +0.000 A 
ATOM     14  C   UNL     1     104.614 123.744  81.570  0.00  0.00    +0.000 A 
ATOM     15  C   UNL     1     104.116 123.997  82.846  0.00  0.00    +0.000 A 
ATOM     16  C   UNL     1     103.193 125.025  83.045  0.00  0.00    +0.000 A 
ENDBRANCH  10  11
ENDBRANCH   9  10
ENDBRANCH   1   9
TORSDOF 4
ENDMDL
