MODEL 1
REMARK VINA RESULT:      -4.3      0.000      0.000
REMARK  Name = *****
REMARK  4 active torsions:
REMARK  status: ('A' for Active; 'I' for Inactive)
REMARK    1  A    between atoms: C_1  and  C_2
REMARK    2  A    between atoms: C_7  and  O_8
REMARK    3  A    between atoms: O_8  and  C_9
REMARK    4  A    between atoms: C_9  and  C_10
REMARK                            x       y       z     vdW  Elec       q    Type
REMARK                         _______ _______ _______ _____ _____    ______ ____
ROOT
ATOM      1  C   UNL     1     103.636 127.569  79.986  0.00  0.00    +0.000 C 
ATOM      2  C   UNL     1     104.247 126.230  80.272  0.00  0.00    +0.000 A 
ATOM      3  C   UNL     1     105.547 125.927  79.852  0.00  0.00    +0.000 A 
ATOM      4  C   UNL     1     106.085 124.676  80.135  0.00  0.00    +0.000 A 
ATOM      5  C   UNL     1     105.306 123.765  80.829  0.00  0.00    +0.000 A 
ATOM      6  N   UNL     1     104.046 124.022  81.252  0.00  0.00    +0.000 NA
ATOM      7  C   UNL     1     103.543 125.245  80.967  0.00  0.00    +0.000 A 
ATOM      8  I   UNL     1     108.002 124.187  79.531  0.00  0.00    +0.000 I 
ENDROOT
BRANCH   7   9
ATOM      9  O   UNL     1     102.264 125.560  81.375  0.00  0.00    +0.000 OA
BRANCH   9  10
ATOM     10  C   UNL     1     102.182 125.912  82.757  0.00  0.00    +0.000 C 
BRANCH  10  11
ATOM     11  C   UNL     1     101.121 126.978  82.920  0.00  0.00    +0.000 A 
ATOM     12  C   UNL     1      99.806 126.745  82.487  0.00  0.00    +0.000 A 
ATOM     13  C   UNL     1      98.820 127.718  82.655  0.00  0.00    +0.000 A 
ATOM     14  C   UNL     1      99.135 128.931  83.263  0.00  0.00    +0.000 A 
ATOM     15  C   UNL     1     100.436 129.173  83.703  0.00  0.00    +0.000 A 
ATOM     16  C   UNL     1     101.424 128.200  83.535  0.00  0.00    +0.000 A 
ENDBRANCH  10  11
ENDBRANCH   9  10
ENDBRANCH   7   9
TORSDOF 3
ENDMDL
