MODEL 1
REMARK VINA RESULT:      -4.3      0.000      0.000
REMARK  Name = *****
REMARK  3 active torsions:
REMARK  status: ('A' for Active; 'I' for Inactive)
REMARK    1  A    between atoms: C_5  and  O_7
REMARK    2  A    between atoms: O_7  and  C_8
REMARK    3  A    between atoms: C_8  and  C_10
REMARK                            x       y       z     vdW  Elec       q    Type
REMARK                         _______ _______ _______ _____ _____    ______ ____
ROOT
ATOM      1  C   UNL     1     102.675 125.470  83.723  0.00  0.00    +0.000 C 
ATOM      2  O   UNL     1     102.464 124.931  84.797  0.00  0.00    +0.000 OA
ENDROOT
BRANCH   1   3
ATOM      3  C   UNL     1     103.446 124.831  82.622  0.00  0.00    +0.000 A 
ATOM      4  C   UNL     1     103.369 125.403  81.342  0.00  0.00    +0.000 A 
ATOM      5  C   UNL     1     104.075 124.841  80.276  0.00  0.00    +0.000 A 
ATOM      6  C   UNL     1     104.855 123.711  80.491  0.00  0.00    +0.000 A 
ATOM      7  C   UNL     1     104.945 123.130  81.751  0.00  0.00    +0.000 A 
ATOM      8  C   UNL     1     104.240 123.690  82.821  0.00  0.00    +0.000 A 
ATOM      9  F   UNL     1     105.531 123.172  79.467  0.00  0.00    +0.000 F 
ENDBRANCH   1   3
BRANCH   1  10
ATOM     10  O   UNL     1     102.263 126.707  83.355  0.00  0.00    +0.000 OA
BRANCH  10  15
ATOM     11  C   UNL     1      98.674 127.618  82.697  0.00  0.00    +0.000 C 
ATOM     12  C   UNL     1      98.912 129.116  82.900  0.00  0.00    +0.000 C 
ATOM     13  C   UNL     1     100.058 129.407  83.824  0.00  0.00    +0.000 C 
ATOM     14  C   UNL     1     100.948 128.477  84.203  0.00  0.00    +0.000 C 
ATOM     15  C   UNL     1     100.917 127.049  83.724  0.00  0.00    +0.000 C 
ATOM     16  C   UNL     1      99.990 126.869  82.511  0.00  0.00    +0.000 C 
ENDBRANCH  10  15
ENDBRANCH   1  10
TORSDOF 3
ENDMDL
