REMARK  Name = *****
REMARK  4 active torsions:
REMARK  status: ('A' for Active; 'I' for Inactive)
REMARK    1  A    between atoms: C_1  and  C_2
REMARK    2  A    between atoms: C_5  and  C_8
REMARK    3  A    between atoms: C_8  and  C_9
REMARK    4  A    between atoms: C_9  and  C_10
REMARK                            x       y       z     vdW  Elec       q    Type
REMARK                         _______ _______ _______ _____ _____    ______ ____
ROOT
ATOM      1  C   UNL     1      -3.320  -0.100   0.070  0.00  0.00    +0.000 C 
ATOM      2  F   UNL     1      -3.769  -0.727   1.206  0.00  0.00    +0.000 F 
ATOM      3  F   UNL     1      -3.876   1.154   0.129  0.00  0.00    +0.000 F 
ENDROOT
BRANCH   1   8
ATOM      4  C   UNL     1       2.512   0.227   0.063  0.00  0.00    +0.000 C 
ATOM      5  C   UNL     1       1.015   0.130   0.042  0.00  0.00    +0.000 A 
ATOM      6  C   UNL     1       0.248   1.142  -0.545  0.00  0.00    +0.000 A 
ATOM      7  C   UNL     1      -1.147   1.068  -0.537  0.00  0.00    +0.000 A 
ATOM      8  C   UNL     1      -1.801  -0.015   0.068  0.00  0.00    +0.000 A 
ATOM      9  C   UNL     1      -1.029  -1.019   0.671  0.00  0.00    +0.000 A 
ATOM     10  C   UNL     1       0.366  -0.943   0.662  0.00  0.00    +0.000 A 
ENDBRANCH   1   8
BRANCH   1  11
ATOM     11  C   UNL     1      -3.869  -0.849  -1.185  0.00  0.00    +0.000 C 
ATOM     12  F   UNL     1      -3.295  -2.099  -1.227  0.00  0.00    +0.000 F 
ATOM     13  F   UNL     1      -3.385  -0.218  -2.309  0.00  0.00    +0.000 F 
BRANCH  11  14
ATOM     14  C   UNL     1      -5.386  -0.987  -1.300  0.00  0.00    +0.000 A 
ATOM     15  C   UNL     1      -6.300  -0.524  -0.340  0.00  0.00    +0.000 A 
ATOM     16  C   UNL     1      -7.675  -0.693  -0.524  0.00  0.00    +0.000 A 
ATOM     17  C   UNL     1      -8.160  -1.327  -1.666  0.00  0.00    +0.000 A 
ATOM     18  C   UNL     1      -7.270  -1.793  -2.629  0.00  0.00    +0.000 A 
ATOM     19  C   UNL     1      -5.897  -1.625  -2.446  0.00  0.00    +0.000 A 
ENDBRANCH  11  14
ENDBRANCH   1  11
TORSDOF 3
