MODEL 1
REMARK VINA RESULT:      -4.8      0.000      0.000
REMARK  Name = *****
REMARK  2 active torsions:
REMARK  status: ('A' for Active; 'I' for Inactive)
REMARK    1  A    between atoms: C_5  and  C_6
REMARK    2  A    between atoms: C_7  and  C_8
REMARK                            x       y       z     vdW  Elec       q    Type
REMARK                         _______ _______ _______ _____ _____    ______ ____
ROOT
ATOM      1  C   UNL     1     101.385 127.000  82.664  0.00  0.00    +0.000 A 
ATOM      2  C   UNL     1     101.851 128.148  83.324  0.00  0.00    +0.000 A 
ATOM      3  C   UNL     1     100.974 129.136  83.768  0.00  0.00    +0.000 A 
ATOM      4  C   UNL     1      99.613 129.005  83.550  0.00  0.00    +0.000 A 
ATOM      5  C   UNL     1      99.128 127.891  82.884  0.00  0.00    +0.000 A 
ATOM      6  C   UNL     1     100.004 126.902  82.439  0.00  0.00    +0.000 A 
ATOM      7  F   UNL     1      99.495 125.853  81.775  0.00  0.00    +0.000 F 
ATOM      8  F   UNL     1      97.813 127.766  82.659  0.00  0.00    +0.000 F 
ATOM      9  F   UNL     1      98.769 129.955  83.974  0.00  0.00    +0.000 F 
ATOM     10  F   UNL     1     101.452 130.216  84.402  0.00  0.00    +0.000 F 
ATOM     11  F   UNL     1     103.166 128.307  83.544  0.00  0.00    +0.000 F 
ENDROOT
BRANCH   1  13
ATOM     12  C   UNL     1     103.157 126.141  81.117  0.00  0.00    +0.000 C 
ATOM     13  C   UNL     1     102.367 126.004  82.196  0.00  0.00    +0.000 C 
BRANCH  12  18
ATOM     14  C   UNL     1     104.224 123.807  81.043  0.00  0.00    +0.000 A 
ATOM     15  C   UNL     1     105.243 123.153  80.384  0.00  0.00    +0.000 A 
ATOM     16  S   UNL     1     106.056 124.174  79.281  0.00  0.00    +0.000 S 
ATOM     17  C   UNL     1     105.046 125.497  79.684  0.00  0.00    +0.000 A 
ATOM     18  C   UNL     1     104.104 125.174  80.640  0.00  0.00    +0.000 A 
ENDBRANCH  12  18
ENDBRANCH   1  13
TORSDOF 2
ENDMDL
