REMARK  Name = *****
REMARK  5 active torsions:
REMARK  status: ('A' for Active; 'I' for Inactive)
REMARK    1  A    between atoms: C_1  and  C_2
REMARK    2  A    between atoms: C_2  and  C_3
REMARK    3  A    between atoms: C_2  and  O_9
REMARK    4  A    between atoms: O_9  and  C_10
REMARK    5  A    between atoms: C_10  and  C_12
REMARK                            x       y       z     vdW  Elec       q    Type
REMARK                         _______ _______ _______ _____ _____    ______ ____
ROOT
ATOM      1  O   UNL     1       3.117   1.225   0.750  0.00  0.00    +0.000 OA
ENDROOT
BRANCH   1   3
ATOM      2  C   UNL     1       2.174   0.324  -1.296  0.00  0.00    +0.000 C 
ATOM      3  C   UNL     1       2.640   0.019   0.126  0.00  0.00    +0.000 C 
BRANCH   3   4
ATOM      4  C   UNL     1       1.503  -0.522   0.973  0.00  0.00    +0.000 A 
ATOM      5  C   UNL     1       0.431   0.296   1.364  0.00  0.00    +0.000 A 
ATOM      6  C   UNL     1      -0.613  -0.218   2.136  0.00  0.00    +0.000 A 
ATOM      7  C   UNL     1      -0.598  -1.555   2.527  0.00  0.00    +0.000 A 
ATOM      8  C   UNL     1       0.459  -2.379   2.147  0.00  0.00    +0.000 A 
ATOM      9  C   UNL     1       1.503  -1.867   1.373  0.00  0.00    +0.000 A 
ENDBRANCH   3   4
ENDBRANCH   1   3
BRANCH   1  10
ATOM     10  C   UNL     1       4.419   1.541   0.512  0.00  0.00    +0.000 C 
ATOM     11  O   UNL     1       5.180   0.905  -0.204  0.00  0.00    +0.000 OA
BRANCH  10  12
ATOM     12  C   UNL     1       4.777   2.823   1.241  0.00  0.00    +0.000 C 
ATOM     13  C   UNL     1       4.394   4.029   0.379  0.00  0.00    +0.000 C 
ATOM     14  C   UNL     1       4.796   5.344   1.041  0.00  0.00    +0.000 C 
ATOM     15  C   UNL     1       6.277   5.363   1.410  0.00  0.00    +0.000 C 
ATOM     16  C   UNL     1       6.658   4.162   2.271  0.00  0.00    +0.000 C 
ATOM     17  C   UNL     1       6.267   2.847   1.602  0.00  0.00    +0.000 C 
ENDBRANCH  10  12
ENDBRANCH   1  10
TORSDOF 4
