MODEL 1
REMARK VINA RESULT:      -4.7      0.000      0.000
REMARK  Name = *****
REMARK  1 active torsions:
REMARK  status: ('A' for Active; 'I' for Inactive)
REMARK    1  A    between atoms: N_9  and  C_10
REMARK                            x       y       z     vdW  Elec       q    Type
REMARK                         _______ _______ _______ _____ _____    ______ ____
ROOT
ATOM      1  C   UNL     1     102.844 125.624  83.725  0.00  0.00    +0.000 C 
ATOM      2  C   UNL     1     103.631 124.384  83.374  0.00  0.00    +0.000 C 
ATOM      3  C   UNL     1     104.116 124.161  82.149  0.00  0.00    +0.000 C 
ATOM      4  C   UNL     1     104.877 123.026  81.680  0.00  0.00    +0.000 C 
ATOM      5  C   UNL     1     105.162 123.270  80.387  0.00  0.00    +0.000 C 
ATOM      6  C   UNL     1     104.599 124.559  79.997  0.00  0.00    +0.000 C 
ATOM      7  C   UNL     1     103.965 125.090  81.053  0.00  0.00    +0.000 C 
ATOM      8  S   UNL     1     103.154 126.579  81.192  0.00  0.00    +0.000 S 
ATOM      9  N   UNL     1     102.189 126.230  82.547  0.00  0.00    +0.000 N 
ENDROOT
BRANCH   9  10
ATOM     10  C   UNL     1     101.088 127.089  82.788  0.00  0.00    +0.000 A 
ATOM     11  C   UNL     1     101.289 128.333  83.419  0.00  0.00    +0.000 A 
ATOM     12  C   UNL     1     100.233 129.216  83.662  0.00  0.00    +0.000 A 
ATOM     13  C   UNL     1      98.941 128.877  83.277  0.00  0.00    +0.000 A 
ATOM     14  C   UNL     1      98.709 127.657  82.651  0.00  0.00    +0.000 A 
ATOM     15  C   UNL     1      99.771 126.776  82.408  0.00  0.00    +0.000 A 
ENDBRANCH   9  10
TORSDOF 1
ENDMDL
