MODEL 1
REMARK VINA RESULT:      -4.8      0.000      0.000
REMARK  Name = *****
REMARK  2 active torsions:
REMARK  status: ('A' for Active; 'I' for Inactive)
REMARK    1  A    between atoms: C_5  and  C_7
REMARK    2  A    between atoms: N_8  and  C_9
REMARK                            x       y       z     vdW  Elec       q    Type
REMARK                         _______ _______ _______ _____ _____    ______ ____
ROOT
ATOM      1  C   UNL     1     102.105 126.011  82.241  0.00  0.00    +0.000 C 
ATOM      2  N   UNL     1     102.826 126.183  81.176  0.00  0.00    +0.000 NA
ENDROOT
BRANCH   2   3
ATOM      3  C   UNL     1     103.775 125.189  80.906  0.00  0.00    +0.000 A 
ATOM      4  C   UNL     1     104.593 125.282  79.776  0.00  0.00    +0.000 A 
ATOM      5  C   UNL     1     105.551 124.298  79.528  0.00  0.00    +0.000 A 
ATOM      6  C   UNL     1     105.697 123.231  80.411  0.00  0.00    +0.000 A 
ATOM      7  C   UNL     1     104.899 123.137  81.546  0.00  0.00    +0.000 A 
ATOM      8  C   UNL     1     103.941 124.121  81.795  0.00  0.00    +0.000 A 
ATOM      9  F   UNL     1     106.612 122.276  80.187  0.00  0.00    +0.000 F 
ATOM     10 CL   UNL     1     106.543 124.420  78.125  0.00  0.00    +0.000 Cl
ENDBRANCH   2   3
BRANCH   1  15
ATOM     11  C   UNL     1      98.714 127.591  82.717  0.00  0.00    +0.000 A 
ATOM     12  C   UNL     1      99.037 128.779  83.367  0.00  0.00    +0.000 A 
ATOM     13  C   UNL     1     100.371 129.074  83.655  0.00  0.00    +0.000 A 
ATOM     14  C   UNL     1     101.388 128.182  83.295  0.00  0.00    +0.000 A 
ATOM     15  C   UNL     1     101.065 126.985  82.642  0.00  0.00    +0.000 A 
ATOM     16  C   UNL     1      99.722 126.696  82.355  0.00  0.00    +0.000 A 
ATOM     17 CL   UNL     1     103.008 128.630  83.693  0.00  0.00    +0.000 Cl
ENDBRANCH   1  15
TORSDOF 2
ENDMDL
