MODEL 1
REMARK VINA RESULT:      -4.3      0.000      0.000
REMARK  Name = *****
REMARK  5 active torsions:
REMARK  status: ('A' for Active; 'I' for Inactive)
REMARK    1  A    between atoms: C_1  and  O_2
REMARK    2  A    between atoms: O_2  and  C_3
REMARK    3  A    between atoms: C_8  and  C_9
REMARK    4  A    between atoms: C_9  and  S_11
REMARK    5  A    between atoms: S_11  and  C_12
REMARK                            x       y       z     vdW  Elec       q    Type
REMARK                         _______ _______ _______ _____ _____    ______ ____
ROOT
ATOM      1  C   UNL     1      89.951  66.834  85.871  0.00  0.00    +0.000 C 
ATOM      2  O   UNL     1      91.051  66.316  86.034  0.00  0.00    +0.000 OA
ENDROOT
BRANCH   1   8
ATOM      3  C   UNL     1      89.921  68.957  84.486  0.00  0.00    +0.000 A 
ATOM      4  C   UNL     1      89.791  70.351  84.455  0.00  0.00    +0.000 A 
ATOM      5  C   UNL     1      89.555  71.073  85.631  0.00  0.00    +0.000 A 
ATOM      6  C   UNL     1      89.438  70.413  86.850  0.00  0.00    +0.000 A 
ATOM      7  C   UNL     1      89.568  69.028  86.900  0.00  0.00    +0.000 A 
ATOM      8  C   UNL     1      89.828  68.302  85.727  0.00  0.00    +0.000 A 
BRANCH   3  10
ATOM      9  C   UNL     1      89.035  68.120  82.430  0.00  0.00    +0.000 C 
ATOM     10  O   UNL     1      90.096  68.175  83.376  0.00  0.00    +0.000 OA
ENDBRANCH   3  10
ENDBRANCH   1   8
BRANCH   1  11
ATOM     11  S   UNL     1      88.499  65.883  85.576  0.00  0.00    +0.000 S 
BRANCH  11  12
ATOM     12  C   UNL     1      88.109  65.353  87.231  0.00  0.00    +0.000 A 
ATOM     13  C   UNL     1      87.156  66.060  87.974  0.00  0.00    +0.000 A 
ATOM     14  C   UNL     1      86.824  65.651  89.268  0.00  0.00    +0.000 A 
ATOM     15  C   UNL     1      87.440  64.529  89.819  0.00  0.00    +0.000 A 
ATOM     16  C   UNL     1      88.385  63.812  89.085  0.00  0.00    +0.000 A 
ATOM     17  C   UNL     1      88.715  64.223  87.791  0.00  0.00    +0.000 A 
ATOM     18 CL   UNL     1      87.032  64.025  91.412  0.00  0.00    +0.000 Cl
ENDBRANCH  11  12
ENDBRANCH   1  11
TORSDOF 4
ENDMDL
