REMARK  Name = *****
REMARK  2 active torsions:
REMARK  status: ('A' for Active; 'I' for Inactive)
REMARK    1  A    between atoms: N_9  and  C_10
REMARK    2  A    between atoms: C_10  and  C_11
REMARK                            x       y       z     vdW  Elec       q    Type
REMARK                         _______ _______ _______ _____ _____    ______ ____
ROOT
ATOM      1  C   UNL     1      -1.728   0.470   0.521  0.00  0.00    +0.000 C 
ATOM      2  C   UNL     1      -0.272   0.474   0.139  0.00  0.00    +0.000 A 
ATOM      3  C   UNL     1       0.516   1.599  -0.080  0.00  0.00    +0.000 A 
ATOM      4  C   UNL     1       1.865   1.423  -0.397  0.00  0.00    +0.000 A 
ATOM      5  C   UNL     1       2.414   0.136  -0.488  0.00  0.00    +0.000 A 
ATOM      6  C   UNL     1       1.620  -0.990  -0.262  0.00  0.00    +0.000 A 
ATOM      7  C   UNL     1       0.283  -0.806   0.051  0.00  0.00    +0.000 A 
ATOM      8  S   UNL     1      -0.929  -2.060   0.375  0.00  0.00    +0.000 S 
ATOM      9  N   UNL     1      -2.177  -0.939   0.504  0.00  0.00    +0.000 NA
ENDROOT
BRANCH   9  10
ATOM     10  C   UNL     1      -3.308  -1.139   1.418  0.00  0.00    +0.000 C 
BRANCH  10  11
ATOM     11  C   UNL     1      -4.130  -2.373   1.108  0.00  0.00    +0.000 A 
ATOM     12  C   UNL     1      -4.082  -3.494   1.948  0.00  0.00    +0.000 A 
ATOM     13  C   UNL     1      -4.844  -4.628   1.661  0.00  0.00    +0.000 A 
ATOM     14  C   UNL     1      -5.660  -4.653   0.531  0.00  0.00    +0.000 A 
ATOM     15  C   UNL     1      -5.710  -3.547  -0.316  0.00  0.00    +0.000 A 
ATOM     16  C   UNL     1      -4.948  -2.413  -0.031  0.00  0.00    +0.000 A 
ENDBRANCH  10  11
ENDBRANCH   9  10
TORSDOF 2
