MODEL 1
REMARK VINA RESULT:      -4.2      0.000      0.000
REMARK  Name = *****
REMARK  3 active torsions:
REMARK  status: ('A' for Active; 'I' for Inactive)
REMARK    1  A    between atoms: C_1  and  C_2
REMARK    2  A    between atoms: C_3  and  C_7
REMARK    3  A    between atoms: C_8  and  C_9
REMARK                            x       y       z     vdW  Elec       q    Type
REMARK                         _______ _______ _______ _____ _____    ______ ____
ROOT
ATOM      1  C   UNL     1     101.863 126.420  82.148  0.00  0.00    +0.000 C 
ATOM      2  C   UNL     1     102.731 125.744  81.665  0.00  0.00    +0.000 C 
ENDROOT
BRANCH   1   5
ATOM      3  C   UNL     1     102.363 128.957  83.832  0.00  0.00    +0.000 C 
ATOM      4  C   UNL     1     101.035 128.372  83.477  0.00  0.00    +0.000 A 
ATOM      5  C   UNL     1     100.834 127.231  82.715  0.00  0.00    +0.000 A 
ATOM      6  S   UNL     1      99.176 126.867  82.511  0.00  0.00    +0.000 S 
ATOM      7  C   UNL     1      98.698 128.223  83.428  0.00  0.00    +0.000 A 
ATOM      8  C   UNL     1      99.780 128.942  83.882  0.00  0.00    +0.000 A 
ENDBRANCH   1   5
BRANCH   2   9
ATOM      9  C   UNL     1     103.770 124.948  81.088  0.00  0.00    +0.000 A 
ATOM     10  C   UNL     1     104.425 125.382  79.933  0.00  0.00    +0.000 A 
ATOM     11  C   UNL     1     105.441 124.604  79.372  0.00  0.00    +0.000 A 
ATOM     12  C   UNL     1     105.801 123.395  79.965  0.00  0.00    +0.000 A 
ATOM     13  C   UNL     1     105.148 122.959  81.119  0.00  0.00    +0.000 A 
ATOM     14  C   UNL     1     104.133 123.736  81.681  0.00  0.00    +0.000 A 
ENDBRANCH   2   9
TORSDOF 2
ENDMDL
