MODEL 1
REMARK VINA RESULT:      -4.3      0.000      0.000
REMARK  Name = *****
REMARK  2 active torsions:
REMARK  status: ('A' for Active; 'I' for Inactive)
REMARK    1  A    between atoms: C_4  and  C_7
REMARK    2  A    between atoms: C_8  and  C_9
REMARK                            x       y       z     vdW  Elec       q    Type
REMARK                         _______ _______ _______ _____ _____    ______ ____
ROOT
ATOM      1  C   UNL     1     102.095 125.974  82.946  0.00  0.00    +0.000 C 
ATOM      2  C   UNL     1     102.519 125.921  81.673  0.00  0.00    +0.000 C 
ENDROOT
BRANCH   1   6
ATOM      3  C   UNL     1      99.129 129.144  83.041  0.00  0.00    +0.000 C 
ATOM      4  C   UNL     1      98.647 127.709  82.859  0.00  0.00    +0.000 C 
ATOM      5  C   UNL     1      99.785 126.781  82.438  0.00  0.00    +0.000 C 
ATOM      6  C   UNL     1     100.963 126.850  83.421  0.00  0.00    +0.000 C 
ATOM      7  C   UNL     1     101.445 128.299  83.594  0.00  0.00    +0.000 C 
ATOM      8  C   UNL     1     100.304 129.223  84.013  0.00  0.00    +0.000 C 
ENDBRANCH   1   6
BRANCH   2   9
ATOM      9  C   UNL     1     103.605 125.091  81.185  0.00  0.00    +0.000 C 
ATOM     10  C   UNL     1     104.281 125.399  80.068  0.00  0.00    +0.000 C 
ATOM     11  C   UNL     1     105.365 124.529  79.514  0.00  0.00    +0.000 C 
ATOM     12  C   UNL     1     105.392 123.173  80.207  0.00  0.00    +0.000 C 
ATOM     13  C   UNL     1     105.145 123.362  81.695  0.00  0.00    +0.000 C 
ATOM     14  O   UNL     1     103.877 123.974  81.951  0.00  0.00    +0.000 OA
ENDBRANCH   2   9
TORSDOF 2
ENDMDL
