MODEL 1
REMARK VINA RESULT:      -4.7      0.000      0.000
REMARK  Name = *****
REMARK  5 active torsions:
REMARK  status: ('A' for Active; 'I' for Inactive)
REMARK    1  A    between atoms: C_1  and  C_2
REMARK    2  A    between atoms: C_8  and  C_9
REMARK    3  A    between atoms: C_8  and  O_10
REMARK    4  A    between atoms: O_10  and  C_11
REMARK    5  A    between atoms: C_11  and  C_13
REMARK                            x       y       z     vdW  Elec       q    Type
REMARK                         _______ _______ _______ _____ _____    ______ ____
ROOT
ATOM      1  C   UNL     1     103.535 127.527  80.094  0.00  0.00    +0.000 C 
ATOM      2  C   UNL     1     104.367 126.438  80.768  0.00  0.00    +0.000 C 
ATOM      3  C   UNL     1     105.897 126.600  80.486  0.00  0.00    +0.000 C 
ATOM      4  C   UNL     1     105.825 125.431  79.497  0.00  0.00    +0.000 C 
ATOM      5  C   UNL     1     104.422 125.073  80.023  0.00  0.00    +0.000 C 
ATOM      6  C   UNL     1     104.290 123.979  81.085  0.00  0.00    +0.000 C 
ATOM      7  C   UNL     1     104.554 124.679  82.415  0.00  0.00    +0.000 C 
ATOM      8  C   UNL     1     103.934 126.074  82.219  0.00  0.00    +0.000 C 
ATOM      9  C   UNL     1     104.424 127.125  83.214  0.00  0.00    +0.000 C 
ENDROOT
BRANCH   8  10
ATOM     10  O   UNL     1     102.483 125.994  82.219  0.00  0.00    +0.000 OA
BRANCH  10  11
ATOM     11  C   UNL     1     101.788 126.070  83.379  0.00  0.00    +0.000 C 
ATOM     12  O   UNL     1     101.916 125.346  84.353  0.00  0.00    +0.000 OA
BRANCH  11  13
ATOM     13  C   UNL     1     100.816 127.196  83.324  0.00  0.00    +0.000 A 
ATOM     14  C   UNL     1      99.584 126.976  82.691  0.00  0.00    +0.000 A 
ATOM     15  C   UNL     1      98.640 128.001  82.611  0.00  0.00    +0.000 A 
ATOM     16  C   UNL     1      98.919 129.251  83.160  0.00  0.00    +0.000 A 
ATOM     17  C   UNL     1     100.142 129.480  83.789  0.00  0.00    +0.000 A 
ATOM     18  C   UNL     1     101.091 128.457  83.872  0.00  0.00    +0.000 A 
ENDBRANCH  11  13
ENDBRANCH  10  11
ENDBRANCH   8  10
TORSDOF 3
ENDMDL
