MODEL 1
REMARK VINA RESULT:      -5.0      0.000      0.000
REMARK  Name = *****
REMARK  3 active torsions:
REMARK  status: ('A' for Active; 'I' for Inactive)
REMARK    1  A    between atoms: C_1  and  C_2
REMARK    2  A    between atoms: C_3  and  C_7
REMARK    3  A    between atoms: C_7  and  C_8
REMARK                            x       y       z     vdW  Elec       q    Type
REMARK                         _______ _______ _______ _____ _____    ______ ____
ROOT
ATOM      1  C   UNL     1     101.543 127.497  83.209  0.00  0.00    +0.000 C 
ATOM      2  C   UNL     1     100.614 126.611  82.794  0.00  0.00    +0.000 C 
ATOM      3  C   UNL     1      99.142 126.892  82.798  0.00  0.00    +0.000 C 
ATOM      4  C   UNL     1      98.828 128.377  82.645  0.00  0.00    +0.000 C 
ATOM      5  C   UNL     1      99.763 129.250  83.443  0.00  0.00    +0.000 A 
ATOM      6  C   UNL     1      99.322 130.515  83.865  0.00  0.00    +0.000 A 
ATOM      7  C   UNL     1     100.183 131.371  84.545  0.00  0.00    +0.000 A 
ATOM      8  C   UNL     1     101.492 130.974  84.793  0.00  0.00    +0.000 A 
ATOM      9  C   UNL     1     101.942 129.722  84.362  0.00  0.00    +0.000 A 
ATOM     10  C   UNL     1     101.092 128.835  83.684  0.00  0.00    +0.000 A 
ENDROOT
BRANCH   1  11
ATOM     11  C   UNL     1     103.018 127.139  83.166  0.00  0.00    +0.000 C 
BRANCH  11  14
ATOM     12  C   UNL     1     103.561 127.509  79.979  0.00  0.00    +0.000 C 
ATOM     13  C   UNL     1     103.724 126.258  80.779  0.00  0.00    +0.000 A 
ATOM     14  C   UNL     1     103.481 126.121  82.142  0.00  0.00    +0.000 A 
ATOM     15  S   UNL     1     103.843 124.529  82.692  0.00  0.00    +0.000 S 
ATOM     16  C   UNL     1     104.263 124.005  81.127  0.00  0.00    +0.000 A 
ATOM     17  C   UNL     1     104.163 125.018  80.204  0.00  0.00    +0.000 A 
ENDBRANCH  11  14
ENDBRANCH   1  11
TORSDOF 2
ENDMDL
