REMARK  Name = *****
REMARK  3 active torsions:
REMARK  status: ('A' for Active; 'I' for Inactive)
REMARK    1  A    between atoms: C_3  and  C_7
REMARK    2  A    between atoms: C_8  and  C_9
REMARK    3  A    between atoms: C_9  and  C_10
REMARK                            x       y       z     vdW  Elec       q    Type
REMARK                         _______ _______ _______ _____ _____    ______ ____
ROOT
ATOM      1  C   UNL     1       4.624  -3.835  -1.221  0.00  0.00    +0.000 A 
ATOM      2  C   UNL     1       5.909  -3.286  -1.293  0.00  0.00    +0.000 A 
ATOM      3  C   UNL     1       6.672  -3.390  -2.453  0.00  0.00    +0.000 A 
ATOM      4  C   UNL     1       6.158  -4.042  -3.565  0.00  0.00    +0.000 A 
ATOM      5  C   UNL     1       4.884  -4.588  -3.518  0.00  0.00    +0.000 A 
ATOM      6  C   UNL     1       4.123  -4.482  -2.356  0.00  0.00    +0.000 A 
ATOM      7  F   UNL     1       2.892  -5.013  -2.327  0.00  0.00    +0.000 F 
ATOM      8  F   UNL     1       4.384  -5.218  -4.590  0.00  0.00    +0.000 F 
ATOM      9  F   UNL     1       6.892  -4.144  -4.681  0.00  0.00    +0.000 F 
ATOM     10  F   UNL     1       7.901  -2.858  -2.494  0.00  0.00    +0.000 F 
ATOM     11  F   UNL     1       6.414  -2.646  -0.228  0.00  0.00    +0.000 F 
ENDROOT
BRANCH   1  12
ATOM     12  C   UNL     1       3.789  -3.697   0.021  0.00  0.00    +0.000 C 
BRANCH  12  14
ATOM     13  C   UNL     1       1.656  -2.379  -0.089  0.00  0.00    +0.000 C 
ATOM     14  C   UNL     1       2.994  -2.421   0.028  0.00  0.00    +0.000 C 
BRANCH  13  17
ATOM     15  C   UNL     1       0.375   1.113   0.628  0.00  0.00    +0.000 A 
ATOM     16  C   UNL     1       1.203  -0.010   0.649  0.00  0.00    +0.000 A 
ATOM     17  C   UNL     1       0.858  -1.146  -0.087  0.00  0.00    +0.000 A 
ATOM     18  C   UNL     1      -0.341  -1.093  -0.797  0.00  0.00    +0.000 A 
ATOM     19  N   UNL     1      -1.167  -0.019  -0.837  0.00  0.00    +0.000 NA
ATOM     20  C   UNL     1      -0.786   1.061  -0.124  0.00  0.00    +0.000 A 
ENDBRANCH  13  17
ENDBRANCH  12  14
ENDBRANCH   1  12
TORSDOF 3
