MODEL 1
REMARK VINA RESULT:      -4.1      0.000      0.000
REMARK  Name = *****
REMARK  6 active torsions:
REMARK  status: ('A' for Active; 'I' for Inactive)
REMARK    1  A    between atoms: C_1  and  C_2
REMARK    2  A    between atoms: C_4  and  C_18
REMARK    3  A    between atoms: C_5  and  C_8
REMARK    4  A    between atoms: N_9  and  O_10
REMARK    5  A    between atoms: O_10  and  C_11
REMARK    6  A    between atoms: C_11  and  C_12
REMARK                            x       y       z     vdW  Elec       q    Type
REMARK                         _______ _______ _______ _____ _____    ______ ____
ROOT
ATOM      1  C   UNL     1      88.370  65.120  87.508  0.00  0.00    +0.000 C 
ATOM      2  N   UNL     1      88.361  64.312  86.488  0.00  0.00    +0.000 NA
ENDROOT
BRANCH   1   7
ATOM      3  C   UNL     1      86.764  64.251  93.001  0.00  0.00    +0.000 C 
ATOM      4  C   UNL     1      87.187  64.491  91.581  0.00  0.00    +0.000 A 
ATOM      5  C   UNL     1      86.389  65.260  90.723  0.00  0.00    +0.000 A 
ATOM      6  C   UNL     1      86.748  65.463  89.379  0.00  0.00    +0.000 A 
ATOM      7  C   UNL     1      87.929  64.868  88.900  0.00  0.00    +0.000 A 
ATOM      8  C   UNL     1      88.729  64.100  89.754  0.00  0.00    +0.000 A 
ATOM      9  C   UNL     1      88.352  63.901  91.082  0.00  0.00    +0.000 A 
ATOM     10  C   UNL     1      85.864  66.306  88.504  0.00  0.00    +0.000 C 
ENDBRANCH   1   7
BRANCH   2  11
ATOM     11  O   UNL     1      87.779  63.075  86.797  0.00  0.00    +0.000 OA
BRANCH  11  12
ATOM     12  C   UNL     1      86.391  63.115  86.464  0.00  0.00    +0.000 C 
BRANCH  12  13
ATOM     13  C   UNL     1      85.588  62.648  87.651  0.00  0.00    +0.000 A 
ATOM     14  C   UNL     1      86.170  61.817  88.619  0.00  0.00    +0.000 A 
ATOM     15  C   UNL     1      85.433  61.390  89.725  0.00  0.00    +0.000 A 
ATOM     16  C   UNL     1      84.108  61.790  89.875  0.00  0.00    +0.000 A 
ATOM     17  C   UNL     1      83.517  62.616  88.921  0.00  0.00    +0.000 A 
ATOM     18  C   UNL     1      84.253  63.045  87.814  0.00  0.00    +0.000 A 
ENDBRANCH  12  13
ENDBRANCH  11  12
ENDBRANCH   2  11
TORSDOF 4
ENDMDL
