REMARK  Name = *****
REMARK  3 active torsions:
REMARK  status: ('A' for Active; 'I' for Inactive)
REMARK    1  A    between atoms: C_3  and  C_8
REMARK    2  A    between atoms: C_8  and  O_10
REMARK    3  A    between atoms: O_10  and  C_11
REMARK                            x       y       z     vdW  Elec       q    Type
REMARK                         _______ _______ _______ _____ _____    ______ ____
ROOT
ATOM      1  C   UNL     1      -1.638   2.315  -0.893  0.00  0.00    +0.000 C 
ATOM      2  O   UNL     1      -2.838   2.427  -1.096  0.00  0.00    +0.000 OA
ENDROOT
BRANCH   1   5
ATOM      3  C   UNL     1      -1.355  -1.166   0.543  0.00  0.00    +0.000 A 
ATOM      4  C   UNL     1      -1.873   0.010  -0.007  0.00  0.00    +0.000 A 
ATOM      5  C   UNL     1      -1.026   1.090  -0.309  0.00  0.00    +0.000 A 
ATOM      6  C   UNL     1       0.345   0.979  -0.052  0.00  0.00    +0.000 A 
ATOM      7  C   UNL     1       0.845  -0.197   0.497  0.00  0.00    +0.000 A 
ATOM      8  C   UNL     1       0.010  -1.268   0.796  0.00  0.00    +0.000 A 
ATOM      9  F   UNL     1       2.158  -0.300   0.742  0.00  0.00    +0.000 F 
ENDBRANCH   1   5
BRANCH   1  10
ATOM     10  O   UNL     1      -0.655   3.252  -1.150  0.00  0.00    +0.000 OA
BRANCH  10  11
ATOM     11  C   UNL     1      -1.142   4.434  -1.715  0.00  0.00    +0.000 A 
ATOM     12  C   UNL     1      -1.486   4.476  -3.064  0.00  0.00    +0.000 A 
ATOM     13  C   UNL     1      -1.918   5.682  -3.600  0.00  0.00    +0.000 A 
ATOM     14  C   UNL     1      -1.993   6.833  -2.818  0.00  0.00    +0.000 A 
ATOM     15  C   UNL     1      -1.625   6.782  -1.472  0.00  0.00    +0.000 A 
ATOM     16  C   UNL     1      -1.190   5.578  -0.917  0.00  0.00    +0.000 A 
ATOM     17  F   UNL     1      -2.260   5.743  -4.894  0.00  0.00    +0.000 F 
ENDBRANCH  10  11
ENDBRANCH   1  10
TORSDOF 3
