MODEL 1
REMARK VINA RESULT:      -4.2      0.000      0.000
REMARK  Name = *****
REMARK  4 active torsions:
REMARK  status: ('A' for Active; 'I' for Inactive)
REMARK    1  A    between atoms: C_2  and  C_3
REMARK    2  A    between atoms: C_2  and  O_10
REMARK    3  A    between atoms: C_3  and  C_4
REMARK    4  A    between atoms: O_10  and  C_11
REMARK                            x       y       z     vdW  Elec       q    Type
REMARK                         _______ _______ _______ _____ _____    ______ ____
ROOT
ATOM      1  C   UNL     1      87.415  68.268  87.759  0.00  0.00    +0.000 C 
ATOM      2  C   UNL     1      88.224  69.335  87.708  0.00  0.00    +0.000 C 
ENDROOT
BRANCH   2   3
ATOM      3  C   UNL     1      87.903  70.629  88.430  0.00  0.00    +0.000 C 
BRANCH   3   4
ATOM      4  C   UNL     1      86.580  71.263  88.055  0.00  0.00    +0.000 A 
ATOM      5  C   UNL     1      85.671  71.674  89.041  0.00  0.00    +0.000 A 
ATOM      6  C   UNL     1      84.462  72.275  88.688  0.00  0.00    +0.000 A 
ATOM      7  C   UNL     1      84.152  72.483  87.344  0.00  0.00    +0.000 A 
ATOM      8  C   UNL     1      85.051  72.091  86.356  0.00  0.00    +0.000 A 
ATOM      9  C   UNL     1      86.261  71.489  86.708  0.00  0.00    +0.000 A 
ENDBRANCH   3   4
ENDBRANCH   2   3
BRANCH   2  10
ATOM     10  O   UNL     1      89.320  69.283  86.863  0.00  0.00    +0.000 OA
BRANCH  10  11
ATOM     11  C   UNL     1      89.101  69.716  85.514  0.00  0.00    +0.000 C 
ATOM     12  C   UNL     1      89.678  68.632  84.591  0.00  0.00    +0.000 C 
ATOM     13  C   UNL     1      89.847  69.147  83.165  0.00  0.00    +0.000 C 
ATOM     14  C   UNL     1      90.783  70.358  83.120  0.00  0.00    +0.000 C 
ATOM     15  C   UNL     1      90.540  71.332  84.236  0.00  0.00    +0.000 C 
ATOM     16  C   UNL     1      89.778  71.047  85.305  0.00  0.00    +0.000 C 
ENDBRANCH  10  11
ENDBRANCH   2  10
TORSDOF 4
ENDMDL
