MODEL 1
REMARK VINA RESULT:      -4.8      0.000      0.000
REMARK  Name = *****
REMARK  4 active torsions:
REMARK  status: ('A' for Active; 'I' for Inactive)
REMARK    1  A    between atoms: C_4  and  C_7
REMARK    2  A    between atoms: C_7  and  O_8
REMARK    3  A    between atoms: O_8  and  C_9
REMARK    4  A    between atoms: C_9  and  C_11
REMARK                            x       y       z     vdW  Elec       q    Type
REMARK                         _______ _______ _______ _____ _____    ______ ____
ROOT
ATOM      1  C   UNL     1     101.774 126.031  82.824  0.00  0.00    +0.000 C 
ATOM      2  O   UNL     1     102.176 125.350  83.755  0.00  0.00    +0.000 OA
ENDROOT
BRANCH   1   3
ATOM      3  C   UNL     1     100.877 127.188  83.016  0.00  0.00    +0.000 A 
ATOM      4  C   UNL     1      99.542 127.183  82.601  0.00  0.00    +0.000 A 
ATOM      5  C   UNL     1      98.729 128.299  82.808  0.00  0.00    +0.000 A 
ATOM      6  C   UNL     1      99.248 129.427  83.442  0.00  0.00    +0.000 A 
ATOM      7  C   UNL     1     100.572 129.424  83.868  0.00  0.00    +0.000 A 
ATOM      8  C   UNL     1     101.390 128.317  83.668  0.00  0.00    +0.000 A 
ATOM      9  F   UNL     1     101.066 130.504  84.483  0.00  0.00    +0.000 F 
ATOM     10  F   UNL     1      98.993 126.107  82.021  0.00  0.00    +0.000 F 
ENDBRANCH   1   3
BRANCH   1  11
ATOM     11  O   UNL     1     102.117 125.904  81.523  0.00  0.00    +0.000 OA
BRANCH  11  12
ATOM     12  C   UNL     1     103.464 126.251  81.166  0.00  0.00    +0.000 C 
BRANCH  12  16
ATOM     13  C   UNL     1     106.312 123.217  79.814  0.00  0.00    +0.000 C 
ATOM     14  C   UNL     1     105.019 122.743  80.468  0.00  0.00    +0.000 C 
ATOM     15  C   UNL     1     104.332 123.865  81.243  0.00  0.00    +0.000 C 
ATOM     16  C   UNL     1     104.090 125.103  80.361  0.00  0.00    +0.000 C 
ATOM     17  C   UNL     1     105.395 125.566  79.700  0.00  0.00    +0.000 C 
ATOM     18  C   UNL     1     106.075 124.437  78.930  0.00  0.00    +0.000 C 
ENDBRANCH  12  16
ENDBRANCH  11  12
ENDBRANCH   1  11
TORSDOF 4
ENDMDL
