MODEL 1
REMARK VINA RESULT:      -4.7      0.000      0.000
REMARK  Name = *****
REMARK  5 active torsions:
REMARK  status: ('A' for Active; 'I' for Inactive)
REMARK    1  A    between atoms: C_1  and  C_2
REMARK    2  A    between atoms: C_3  and  C_9
REMARK    3  A    between atoms: C_4  and  C_8
REMARK    4  A    between atoms: C_9  and  C_10
REMARK    5  A    between atoms: C_10  and  C_11
REMARK                            x       y       z     vdW  Elec       q    Type
REMARK                         _______ _______ _______ _____ _____    ______ ____
ROOT
ATOM      1  C   UNL     1      89.505  69.727  87.215  0.00  0.00    +0.000 C 
ATOM      2  C   UNL     1      88.324  70.437  87.824  0.00  0.00    +0.000 A 
ATOM      3  C   UNL     1      87.206  70.843  87.053  0.00  0.00    +0.000 A 
ATOM      4  C   UNL     1      86.139  71.526  87.690  0.00  0.00    +0.000 A 
ATOM      5  C   UNL     1      86.214  71.803  89.065  0.00  0.00    +0.000 A 
ATOM      6  C   UNL     1      87.316  71.406  89.812  0.00  0.00    +0.000 A 
ATOM      7  C   UNL     1      88.363  70.730  89.196  0.00  0.00    +0.000 A 
ATOM      8  C   UNL     1      84.928  72.011  86.935  0.00  0.00    +0.000 C 
ENDROOT
BRANCH   3   9
ATOM      9  C   UNL     1      87.137  70.529  85.566  0.00  0.00    +0.000 C 
BRANCH   9  10
ATOM     10  C   UNL     1      87.496  71.748  84.703  0.00  0.00    +0.000 C 
BRANCH  10  11
ATOM     11  C   UNL     1      88.898  71.791  84.131  0.00  0.00    +0.000 A 
ATOM     12  C   UNL     1      89.673  70.651  83.881  0.00  0.00    +0.000 A 
ATOM     13  C   UNL     1      90.960  70.767  83.346  0.00  0.00    +0.000 A 
ATOM     14  C   UNL     1      91.486  72.021  83.048  0.00  0.00    +0.000 A 
ATOM     15  C   UNL     1      90.726  73.163  83.283  0.00  0.00    +0.000 A 
ATOM     16  C   UNL     1      89.443  73.048  83.818  0.00  0.00    +0.000 A 
ENDBRANCH  10  11
ENDBRANCH   9  10
ENDBRANCH   3   9
TORSDOF 3
ENDMDL
