REMARK  Name = *****
REMARK  5 active torsions:
REMARK  status: ('A' for Active; 'I' for Inactive)
REMARK    1  A    between atoms: C_1  and  C_2
REMARK    2  A    between atoms: C_5  and  S_8
REMARK    3  A    between atoms: S_8  and  O_9
REMARK    4  A    between atoms: O_9  and  C_10
REMARK    5  A    between atoms: C_10  and  C_11
REMARK                            x       y       z     vdW  Elec       q    Type
REMARK                         _______ _______ _______ _____ _____    ______ ____
ROOT
ATOM      1  S   UNL     1      -3.914  -0.463   1.248  0.00  0.00    +0.000 S 
ENDROOT
BRANCH   1   6
ATOM      2  C   UNL     1       1.799   0.694  -0.564  0.00  0.00    +0.000 C 
ATOM      3  C   UNL     1       0.384   0.431  -0.142  0.00  0.00    +0.000 A 
ATOM      4  C   UNL     1      -0.327   1.389   0.589  0.00  0.00    +0.000 A 
ATOM      5  C   UNL     1      -1.634   1.130   1.013  0.00  0.00    +0.000 A 
ATOM      6  C   UNL     1      -2.246  -0.092   0.719  0.00  0.00    +0.000 A 
ATOM      7  C   UNL     1      -1.528  -1.059   0.009  0.00  0.00    +0.000 A 
ATOM      8  C   UNL     1      -0.221  -0.801  -0.416  0.00  0.00    +0.000 A 
ENDBRANCH   1   6
BRANCH   1   9
ATOM      9  O   UNL     1      -4.577   1.060   1.107  0.00  0.00    +0.000 OA
BRANCH   9  10
ATOM     10  C   UNL     1      -5.255   1.294  -0.125  0.00  0.00    +0.000 C 
BRANCH  10  11
ATOM     11  C   UNL     1      -5.610   2.757  -0.195  0.00  0.00    +0.000 A 
ATOM     12  C   UNL     1      -4.711   3.679  -0.749  0.00  0.00    +0.000 A 
ATOM     13  C   UNL     1      -5.031   5.037  -0.798  0.00  0.00    +0.000 A 
ATOM     14  C   UNL     1      -6.247   5.486  -0.287  0.00  0.00    +0.000 A 
ATOM     15  C   UNL     1      -7.142   4.580   0.279  0.00  0.00    +0.000 A 
ATOM     16  C   UNL     1      -6.824   3.222   0.330  0.00  0.00    +0.000 A 
ENDBRANCH  10  11
ENDBRANCH   9  10
ENDBRANCH   1   9
TORSDOF 4
