MODEL 1
REMARK VINA RESULT:      -4.6      0.000      0.000
REMARK  Name = *****
REMARK  3 active torsions:
REMARK  status: ('A' for Active; 'I' for Inactive)
REMARK    1  A    between atoms: C_1  and  C_2
REMARK    2  A    between atoms: C_4  and  C_8
REMARK    3  A    between atoms: C_9  and  C_10
REMARK                            x       y       z     vdW  Elec       q    Type
REMARK                         _______ _______ _______ _____ _____    ______ ____
ROOT
ATOM      1  C   UNL     1     101.904 126.195  82.361  0.00  0.00    +0.000 C 
ATOM      2  C   UNL     1     102.781 125.421  82.084  0.00  0.00    +0.000 C 
ENDROOT
BRANCH   1   6
ATOM      3  C   UNL     1     100.783 130.361  84.409  0.00  0.00    +0.000 C 
ATOM      4  C   UNL     1     100.329 129.128  83.687  0.00  0.00    +0.000 A 
ATOM      5  N   UNL     1     101.276 128.224  83.345  0.00  0.00    +0.000 NA
ATOM      6  C   UNL     1     100.864 127.113  82.696  0.00  0.00    +0.000 A 
ATOM      7  C   UNL     1      99.544 126.854  82.366  0.00  0.00    +0.000 A 
ATOM      8  C   UNL     1      98.584 127.793  82.725  0.00  0.00    +0.000 A 
ATOM      9  C   UNL     1      98.978 128.947  83.396  0.00  0.00    +0.000 A 
ENDBRANCH   1   6
BRANCH   2  10
ATOM     10  C   UNL     1     103.828 124.502  81.763  0.00  0.00    +0.000 A 
ATOM     11  C   UNL     1     104.333 124.440  80.462  0.00  0.00    +0.000 A 
ATOM     12  C   UNL     1     105.356 123.541  80.150  0.00  0.00    +0.000 A 
ATOM     13  C   UNL     1     105.871 122.708  81.144  0.00  0.00    +0.000 A 
ATOM     14  C   UNL     1     105.372 122.765  82.444  0.00  0.00    +0.000 A 
ATOM     15  C   UNL     1     104.348 123.664  82.754  0.00  0.00    +0.000 A 
ATOM     16 CL   UNL     1     107.132 121.602  80.760  0.00  0.00    +0.000 Cl
ENDBRANCH   2  10
TORSDOF 2
ENDMDL
