MODEL 1
REMARK VINA RESULT:      -4.8      0.000      0.000
REMARK  Name = *****
REMARK  3 active torsions:
REMARK  status: ('A' for Active; 'I' for Inactive)
REMARK    1  A    between atoms: C_1  and  C_2
REMARK    2  A    between atoms: C_5  and  C_8
REMARK    3  A    between atoms: C_9  and  C_10
REMARK                            x       y       z     vdW  Elec       q    Type
REMARK                         _______ _______ _______ _____ _____    ______ ____
ROOT
ATOM      1  C   UNL     1     102.906 125.379  82.111  0.00  0.00    +0.000 C 
ATOM      2  C   UNL     1     102.076 126.198  82.400  0.00  0.00    +0.000 C 
ENDROOT
BRANCH   1   7
ATOM      3  C   UNL     1     106.930 121.474  80.901  0.00  0.00    +0.000 C 
ATOM      4  C   UNL     1     105.855 122.475  81.201  0.00  0.00    +0.000 A 
ATOM      5  C   UNL     1     105.367 123.328  80.203  0.00  0.00    +0.000 A 
ATOM      6  C   UNL     1     104.385 124.277  80.500  0.00  0.00    +0.000 A 
ATOM      7  C   UNL     1     103.887 124.385  81.800  0.00  0.00    +0.000 A 
ATOM      8  C   UNL     1     104.365 123.537  82.799  0.00  0.00    +0.000 A 
ATOM      9  C   UNL     1     105.346 122.588  82.501  0.00  0.00    +0.000 A 
ENDBRANCH   1   7
BRANCH   2  10
ATOM     10  C   UNL     1     101.082 127.155  82.773  0.00  0.00    +0.000 A 
ATOM     11  C   UNL     1      99.734 126.896  82.522  0.00  0.00    +0.000 A 
ATOM     12  C   UNL     1      98.782 127.848  82.871  0.00  0.00    +0.000 A 
ATOM     13  C   UNL     1      99.149 129.051  83.465  0.00  0.00    +0.000 A 
ATOM     14  C   UNL     1     100.495 129.310  83.718  0.00  0.00    +0.000 A 
ATOM     15  C   UNL     1     101.462 128.362  83.372  0.00  0.00    +0.000 A 
ATOM     16  F   UNL     1      97.488 127.603  82.627  0.00  0.00    +0.000 F 
ENDBRANCH   2  10
TORSDOF 2
ENDMDL
