MODEL 1
REMARK VINA RESULT:      -4.8      0.000      0.000
REMARK  Name = *****
REMARK  3 active torsions:
REMARK  status: ('A' for Active; 'I' for Inactive)
REMARK    1  A    between atoms: C_6  and  C_7
REMARK    2  A    between atoms: C_7  and  O_9
REMARK    3  A    between atoms: O_9  and  C_10
REMARK                            x       y       z     vdW  Elec       q    Type
REMARK                         _______ _______ _______ _____ _____    ______ ____
ROOT
ATOM      1  O   UNL     1     103.111 126.625  84.114  0.00  0.00    +0.000 OA
ENDROOT
BRANCH   1   2
ATOM      2  C   UNL     1     103.325 126.215  82.799  0.00  0.00    +0.000 A 
ATOM      3  C   UNL     1     103.262 127.142  81.763  0.00  0.00    +0.000 A 
ATOM      4  C   UNL     1     103.493 126.728  80.454  0.00  0.00    +0.000 A 
ATOM      5  C   UNL     1     103.797 125.399  80.171  0.00  0.00    +0.000 A 
ATOM      6  C   UNL     1     103.872 124.486  81.218  0.00  0.00    +0.000 A 
ATOM      7  C   UNL     1     103.643 124.887  82.531  0.00  0.00    +0.000 A 
ATOM      8  F   UNL     1     103.733 124.001  83.533  0.00  0.00    +0.000 F 
ATOM      9  F   UNL     1     104.180 123.209  80.950  0.00  0.00    +0.000 F 
ATOM     10  F   UNL     1     103.435 127.614  79.450  0.00  0.00    +0.000 F 
ATOM     11  F   UNL     1     102.986 128.428  82.025  0.00  0.00    +0.000 F 
ENDBRANCH   1   2
BRANCH   1  12
ATOM     12  C   UNL     1     101.790 126.448  84.476  0.00  0.00    +0.000 C 
ATOM     13  O   UNL     1     101.286 125.426  84.919  0.00  0.00    +0.000 OA
BRANCH  12  19
ATOM     14  C   UNL     1      99.875 127.755  83.439  0.00  0.00    +0.000 A 
ATOM     15  C   UNL     1      99.198 128.965  83.259  0.00  0.00    +0.000 A 
ATOM     16  C   UNL     1      99.667 130.117  83.883  0.00  0.00    +0.000 A 
ATOM     17  C   UNL     1     100.802 130.085  84.684  0.00  0.00    +0.000 A 
ATOM     18  C   UNL     1     101.482 128.878  84.866  0.00  0.00    +0.000 A 
ATOM     19  C   UNL     1     101.024 127.705  84.245  0.00  0.00    +0.000 A 
ATOM     20  F   UNL     1      99.015 131.273  83.708  0.00  0.00    +0.000 F 
ENDBRANCH  12  19
ENDBRANCH   1  12
TORSDOF 3
ENDMDL
