REMARK  Name = *****
REMARK  5 active torsions:
REMARK  status: ('A' for Active; 'I' for Inactive)
REMARK    1  A    between atoms: C_1  and  O_2
REMARK    2  A    between atoms: O_2  and  C_3
REMARK    3  A    between atoms: C_3  and  C_4
REMARK    4  A    between atoms: C_3  and  C_12
REMARK    5  A    between atoms: C_5  and  C_6
REMARK                            x       y       z     vdW  Elec       q    Type
REMARK                         _______ _______ _______ _____ _____    ______ ____
ROOT
ATOM      1  C   UNL     1       3.104  -1.344   0.572  0.00  0.00    +0.000 C 
ENDROOT
BRANCH   1   2
ATOM      2  C   UNL     1       4.614  -1.383   0.751  0.00  0.00    +0.000 A 
ATOM      3  C   UNL     1       5.165  -1.917   1.929  0.00  0.00    +0.000 A 
ATOM      4  C   UNL     1       6.549  -1.985   2.102  0.00  0.00    +0.000 A 
ATOM      5  C   UNL     1       7.401  -1.525   1.100  0.00  0.00    +0.000 A 
ATOM      6  C   UNL     1       6.871  -0.999  -0.076  0.00  0.00    +0.000 A 
ATOM      7  C   UNL     1       5.488  -0.931  -0.251  0.00  0.00    +0.000 A 
ENDBRANCH   1   2
BRANCH   1   9
ATOM      8  C   UNL     1       1.501   0.376   0.235  0.00  0.00    +0.000 C 
ATOM      9  O   UNL     1       2.752  -0.165  -0.168  0.00  0.00    +0.000 OA
ENDBRANCH   1   9
BRANCH   1  10
ATOM     10  C   UNL     1       2.616  -2.538  -0.210  0.00  0.00    +0.000 C 
ATOM     11  C   UNL     1       1.861  -3.555   0.235  0.00  0.00    +0.000 C 
BRANCH  11  12
ATOM     12  C   UNL     1       1.390  -3.689   1.612  0.00  0.00    +0.000 A 
ATOM     13  C   UNL     1       0.178  -3.111   2.004  0.00  0.00    +0.000 A 
ATOM     14  C   UNL     1      -0.257  -3.224   3.325  0.00  0.00    +0.000 A 
ATOM     15  C   UNL     1       0.516  -3.915   4.258  0.00  0.00    +0.000 A 
ATOM     16  C   UNL     1       1.724  -4.494   3.872  0.00  0.00    +0.000 A 
ATOM     17  C   UNL     1       2.161  -4.382   2.551  0.00  0.00    +0.000 A 
ENDBRANCH  11  12
ENDBRANCH   1  10
TORSDOF 4
