REMARK  Name = *****
REMARK  3 active torsions:
REMARK  status: ('A' for Active; 'I' for Inactive)
REMARK    1  A    between atoms: C_6  and  O_7
REMARK    2  A    between atoms: O_7  and  C_8
REMARK    3  A    between atoms: C_8  and  C_9
REMARK                            x       y       z     vdW  Elec       q    Type
REMARK                         _______ _______ _______ _____ _____    ______ ____
ROOT
ATOM      1  C   UNL     1       6.008   0.955   0.051  0.00  0.00    +0.000 A 
ATOM      2  C   UNL     1       6.704   0.787  -1.150  0.00  0.00    +0.000 A 
ATOM      3  C   UNL     1       8.052   0.436  -1.156  0.00  0.00    +0.000 A 
ATOM      4  C   UNL     1       8.722   0.241   0.043  0.00  0.00    +0.000 A 
ATOM      5  C   UNL     1       8.048   0.396   1.245  0.00  0.00    +0.000 A 
ATOM      6  C   UNL     1       6.700   0.748   1.247  0.00  0.00    +0.000 A 
ATOM      7  F   UNL     1       6.061   0.896   2.416  0.00  0.00    +0.000 F 
ATOM      8  F   UNL     1       8.692   0.212   2.406  0.00  0.00    +0.000 F 
ATOM      9  F   UNL     1      10.020  -0.093   0.040  0.00  0.00    +0.000 F 
ATOM     10  F   UNL     1       8.700   0.290  -2.319  0.00  0.00    +0.000 F 
ATOM     11  F   UNL     1       6.069   0.975  -2.316  0.00  0.00    +0.000 F 
ENDROOT
BRANCH   1  12
ATOM     12  C   UNL     1       4.545   1.287   0.053  0.00  0.00    +0.000 C 
BRANCH  12  13
ATOM     13  O   UNL     1       3.832   0.054   0.022  0.00  0.00    +0.000 OA
BRANCH  13  19
ATOM     14  C   UNL     1       1.699   1.289   0.022  0.00  0.00    +0.000 A 
ATOM     15  C   UNL     1       0.302   1.210  -0.003  0.00  0.00    +0.000 A 
ATOM     16  C   UNL     1      -0.326  -0.033  -0.048  0.00  0.00    +0.000 A 
ATOM     17  C   UNL     1       0.430  -1.201  -0.067  0.00  0.00    +0.000 A 
ATOM     18  C   UNL     1       1.824  -1.120  -0.042  0.00  0.00    +0.000 A 
ATOM     19  C   UNL     1       2.466   0.122   0.002  0.00  0.00    +0.000 A 
ATOM     20 CL   UNL     1      -2.044  -0.123  -0.079  0.00  0.00    +0.000 Cl
ENDBRANCH  13  19
ENDBRANCH  12  13
ENDBRANCH   1  12
TORSDOF 3
