MODEL 1
REMARK VINA RESULT:      -3.9      0.000      0.000
REMARK  Name = *****
REMARK  4 active torsions:
REMARK  status: ('A' for Active; 'I' for Inactive)
REMARK    1  A    between atoms: C_4  and  C_7
REMARK    2  A    between atoms: C_8  and  C_9
REMARK    3  A    between atoms: C_8  and  S_11
REMARK    4  A    between atoms: S_11  and  C_12
REMARK                            x       y       z     vdW  Elec       q    Type
REMARK                         _______ _______ _______ _____ _____    ______ ____
ROOT
ATOM      1  C   UNL     1      89.550  70.926  84.741  0.00  0.00    +0.000 C 
ATOM      2  C   UNL     1      89.387  70.178  83.636  0.00  0.00    +0.000 C 
ENDROOT
BRANCH   1   6
ATOM      3  C   UNL     1      87.286  70.670  88.351  0.00  0.00    +0.000 A 
ATOM      4  C   UNL     1      86.669  71.108  87.180  0.00  0.00    +0.000 A 
ATOM      5  C   UNL     1      87.402  71.197  85.995  0.00  0.00    +0.000 A 
ATOM      6  C   UNL     1      88.759  70.860  85.976  0.00  0.00    +0.000 A 
ATOM      7  C   UNL     1      89.368  70.407  87.153  0.00  0.00    +0.000 A 
ATOM      8  C   UNL     1      88.634  70.317  88.337  0.00  0.00    +0.000 A 
ENDBRANCH   1   6
BRANCH   2   9
ATOM      9  C   UNL     1      90.308  70.414  82.485  0.00  0.00    +0.000 C 
ATOM     10  O   UNL     1      91.491  70.086  82.477  0.00  0.00    +0.000 OA
ENDBRANCH   2   9
BRANCH   2  11
ATOM     11  S   UNL     1      88.202  68.931  83.427  0.00  0.00    +0.000 S 
BRANCH  11  12
ATOM     12  C   UNL     1      88.711  67.827  84.732  0.00  0.00    +0.000 A 
ATOM     13  C   UNL     1      90.033  67.374  84.817  0.00  0.00    +0.000 A 
ATOM     14  C   UNL     1      90.415  66.510  85.844  0.00  0.00    +0.000 A 
ATOM     15  C   UNL     1      89.478  66.085  86.786  0.00  0.00    +0.000 A 
ATOM     16  C   UNL     1      88.156  66.520  86.697  0.00  0.00    +0.000 A 
ATOM     17  C   UNL     1      87.772  67.385  85.670  0.00  0.00    +0.000 A 
ENDBRANCH  11  12
ENDBRANCH   2  11
TORSDOF 4
ENDMDL
