MODEL 1
REMARK VINA RESULT:      -3.8      0.000      0.000
REMARK  Name = *****
REMARK  4 active torsions:
REMARK  status: ('A' for Active; 'I' for Inactive)
REMARK    1  A    between atoms: C_2  and  S_14
REMARK    2  A    between atoms: C_5  and  C_6
REMARK    3  A    between atoms: C_7  and  C_8
REMARK    4  A    between atoms: C_11  and  S_13
REMARK                            x       y       z     vdW  Elec       q    Type
REMARK                         _______ _______ _______ _____ _____    ______ ____
ROOT
ATOM      1  C   UNL     1     102.873 126.103  81.162  0.00  0.00    +0.000 C 
ATOM      2  C   UNL     1     102.050 125.970  82.218  0.00  0.00    +0.000 C 
ENDROOT
BRANCH   1   7
ATOM      3  C   UNL     1     104.184 123.899  81.329  0.00  0.00    +0.000 A 
ATOM      4  C   UNL     1     105.259 123.280  80.725  0.00  0.00    +0.000 A 
ATOM      5  S   UNL     1     105.942 124.249  79.498  0.00  0.00    +0.000 S 
ATOM      6  C   UNL     1     104.802 125.496  79.766  0.00  0.00    +0.000 A 
ATOM      7  C   UNL     1     103.913 125.190  80.777  0.00  0.00    +0.000 A 
BRANCH   4   8
ATOM      8  S   UNL     1     105.902 121.696  81.115  0.00  0.00    +0.000 S 
ATOM      9  H   UNL     1     105.079 121.077  82.003  0.00  0.00    +0.000 HD
ENDBRANCH   4   8
ENDBRANCH   1   7
BRANCH   2  10
ATOM     10  C   UNL     1     101.010 126.883  82.601  0.00  0.00    +0.000 A 
ATOM     11  C   UNL     1      99.680 126.608  82.351  0.00  0.00    +0.000 A 
ATOM     12  S   UNL     1      98.640 127.851  82.901  0.00  0.00    +0.000 S 
ATOM     13  C   UNL     1      99.953 128.773  83.477  0.00  0.00    +0.000 A 
ATOM     14  C   UNL     1     101.161 128.145  83.256  0.00  0.00    +0.000 A 
BRANCH  13  15
ATOM     15  S   UNL     1      99.731 130.329  84.251  0.00  0.00    +0.000 S 
ATOM     16  H   UNL     1      99.950 130.205  85.587  0.00  0.00    +0.000 HD
ENDBRANCH  13  15
ENDBRANCH   2  10
TORSDOF 4
ENDMDL
