MODEL 1
REMARK VINA RESULT:      -3.6      0.000      0.000
REMARK  Name = *****
REMARK  3 active torsions:
REMARK  status: ('A' for Active; 'I' for Inactive)
REMARK    1  A    between atoms: C_3  and  S_8
REMARK    2  A    between atoms: S_8  and  S_9
REMARK    3  A    between atoms: S_9  and  C_10
REMARK                            x       y       z     vdW  Elec       q    Type
REMARK                         _______ _______ _______ _____ _____    ______ ____
ROOT
ATOM      1  C   UNL     1      85.522  71.900  85.954  0.00  0.00    +0.000 A 
ATOM      2  C   UNL     1      86.633  71.277  86.527  0.00  0.00    +0.000 A 
ATOM      3  C   UNL     1      86.738  71.167  87.919  0.00  0.00    +0.000 A 
ATOM      4  C   UNL     1      85.717  71.675  88.732  0.00  0.00    +0.000 A 
ATOM      5  C   UNL     1      84.606  72.298  88.158  0.00  0.00    +0.000 A 
ATOM      6  C   UNL     1      84.521  72.404  86.775  0.00  0.00    +0.000 A 
ATOM      7  F   UNL     1      83.456  73.002  86.225  0.00  0.00    +0.000 F 
ENDROOT
BRANCH   3   8
ATOM      8  S   UNL     1      88.150  70.373  88.664  0.00  0.00    +0.000 S 
BRANCH   8   9
ATOM      9  S   UNL     1      89.397  70.143  87.042  0.00  0.00    +0.000 S 
BRANCH   9  10
ATOM     10  C   UNL     1      89.328  68.403  86.791  0.00  0.00    +0.000 A 
ATOM     11  N   UNL     1      90.358  67.678  86.407  0.00  0.00    +0.000 NA
ATOM     12  C   UNL     1      89.985  66.352  86.308  0.00  0.00    +0.000 A 
ATOM     13  C   UNL     1      88.672  66.078  86.621  0.00  0.00    +0.000 A 
ATOM     14  S   UNL     1      87.871  67.528  87.060  0.00  0.00    +0.000 S 
ENDBRANCH   9  10
ENDBRANCH   8   9
ENDBRANCH   3   8
TORSDOF 3
ENDMDL
