MODEL 1
REMARK VINA RESULT:      -4.8      0.000      0.000
REMARK  Name = *****
REMARK  6 active torsions:
REMARK  status: ('A' for Active; 'I' for Inactive)
REMARK    1  A    between atoms: C_1  and  C_2
REMARK    2  A    between atoms: C_5  and  C_8
REMARK    3  A    between atoms: C_9  and  C_10
REMARK    4  A    between atoms: C_9  and  C_12
REMARK    5  A    between atoms: C_15  and  O_18
REMARK    6  A    between atoms: O_18  and  C_19
REMARK                            x       y       z     vdW  Elec       q    Type
REMARK                         _______ _______ _______ _____ _____    ______ ____
ROOT
ATOM      1  C   UNL     1     102.445 125.709  82.803  0.00  0.00    +0.000 C 
ATOM      2  C   UNL     1     103.299 125.569  81.768  0.00  0.00    +0.000 C 
ENDROOT
BRANCH   1   7
ATOM      3  C   UNL     1      99.191 130.382  83.810  0.00  0.00    +0.000 C 
ATOM      4  C   UNL     1     100.022 129.157  83.571  0.00  0.00    +0.000 A 
ATOM      5  C   UNL     1     101.370 129.128  83.944  0.00  0.00    +0.000 A 
ATOM      6  C   UNL     1     102.150 127.995  83.696  0.00  0.00    +0.000 A 
ATOM      7  C   UNL     1     101.594 126.875  83.071  0.00  0.00    +0.000 A 
ATOM      8  C   UNL     1     100.254 126.912  82.672  0.00  0.00    +0.000 A 
ATOM      9  C   UNL     1      99.474 128.046  82.920  0.00  0.00    +0.000 A 
ENDBRANCH   1   7
BRANCH   2  10
ATOM     10  C   UNL     1     104.067 124.310  81.644  0.00  0.00    +0.000 A 
ATOM     11  C   UNL     1     104.295 123.502  82.768  0.00  0.00    +0.000 A 
ATOM     12  C   UNL     1     105.014 122.305  82.657  0.00  0.00    +0.000 A 
ATOM     13  C   UNL     1     105.511 121.896  81.421  0.00  0.00    +0.000 A 
ATOM     14  C   UNL     1     105.286 122.695  80.299  0.00  0.00    +0.000 A 
ATOM     15  C   UNL     1     104.568 123.890  80.405  0.00  0.00    +0.000 A 
BRANCH  13  16
ATOM     16  O   UNL     1     106.225 120.756  81.177  0.00  0.00    +0.000 OA
ATOM     17  C   UNL     1     107.640 120.886  81.104  0.00  0.00    +0.000 C 
ENDBRANCH  13  16
ENDBRANCH   2  10
BRANCH   2  18
ATOM     18  C   UNL     1     103.456 126.572  80.758  0.00  0.00    +0.000 C 
ATOM     19  N   UNL     1     103.566 127.396  79.948  0.00  0.00    +0.000 NA
ENDBRANCH   2  18
TORSDOF 4
ENDMDL
