REMARK  Name = *****
REMARK  3 active torsions:
REMARK  status: ('A' for Active; 'I' for Inactive)
REMARK    1  A    between atoms: C_4  and  C_7
REMARK    2  A    between atoms: C_7  and  C_9
REMARK    3  A    between atoms: C_9  and  C_10
REMARK                            x       y       z     vdW  Elec       q    Type
REMARK                         _______ _______ _______ _____ _____    ______ ____
ROOT
ATOM      1  C   UNL     1      -5.001  -0.126  -0.359  0.00  0.00    +0.000 A 
ATOM      2  C   UNL     1      -5.567  -0.432  -1.598  0.00  0.00    +0.000 A 
ATOM      3  C   UNL     1      -6.776   0.133  -2.003  0.00  0.00    +0.000 A 
ATOM      4  C   UNL     1      -7.451   1.018  -1.168  0.00  0.00    +0.000 A 
ATOM      5  C   UNL     1      -6.905   1.328   0.073  0.00  0.00    +0.000 A 
ATOM      6  C   UNL     1      -5.696   0.760   0.471  0.00  0.00    +0.000 A 
ATOM      7  F   UNL     1      -5.194   1.068   1.674  0.00  0.00    +0.000 F 
ATOM      8  F   UNL     1      -7.535   2.174   0.902  0.00  0.00    +0.000 F 
ATOM      9 CL   UNL     1      -8.944   1.716  -1.665  0.00  0.00    +0.000 Cl
ATOM     10  F   UNL     1      -7.276  -0.188  -3.206  0.00  0.00    +0.000 F 
ATOM     11  F   UNL     1      -4.934  -1.280  -2.422  0.00  0.00    +0.000 F 
ENDROOT
BRANCH   1  12
ATOM     12  C   UNL     1      -3.699  -0.745   0.078  0.00  0.00    +0.000 C 
BRANCH  12  13
ATOM     13  C   UNL     1      -2.596   0.258   0.358  0.00  0.00    +0.000 C 
ATOM     14  O   UNL     1      -2.078   0.341   1.471  0.00  0.00    +0.000 OA
BRANCH  13  18
ATOM     15  C   UNL     1      -1.214   2.934  -2.694  0.00  0.00    +0.000 A 
ATOM     16  C   UNL     1      -1.765   1.706  -3.061  0.00  0.00    +0.000 A 
ATOM     17  C   UNL     1      -2.215   0.817  -2.082  0.00  0.00    +0.000 A 
ATOM     18  C   UNL     1      -2.123   1.162  -0.729  0.00  0.00    +0.000 A 
ATOM     19  C   UNL     1      -1.555   2.390  -0.366  0.00  0.00    +0.000 A 
ATOM     20  C   UNL     1      -1.105   3.275  -1.347  0.00  0.00    +0.000 A 
ENDBRANCH  13  18
ENDBRANCH  12  13
ENDBRANCH   1  12
TORSDOF 3
