MODEL 1
REMARK VINA RESULT:      -5.3      0.000      0.000
REMARK  Name = *****
REMARK  3 active torsions:
REMARK  status: ('A' for Active; 'I' for Inactive)
REMARK    1  A    between atoms: C_1  and  C_2
REMARK    2  A    between atoms: C_5  and  C_12
REMARK    3  A    between atoms: C_8  and  C_11
REMARK                            x       y       z     vdW  Elec       q    Type
REMARK                         _______ _______ _______ _____ _____    ______ ____
ROOT
ATOM      1  C   UNL     1      97.955 127.443  82.941  0.00  0.00    +0.000 C 
ATOM      2  C   UNL     1      99.172 128.215  83.347  0.00  0.00    +0.000 A 
ATOM      3  C   UNL     1     100.456 127.754  83.075  0.00  0.00    +0.000 A 
ATOM      4  C   UNL     1     100.877 126.512  82.342  0.00  0.00    +0.000 C 
ATOM      5  C   UNL     1     102.390 126.609  82.412  0.00  0.00    +0.000 C 
ATOM      6  C   UNL     1     102.780 127.729  83.053  0.00  0.00    +0.000 C 
ATOM      7  C   UNL     1     101.597 128.461  83.483  0.00  0.00    +0.000 A 
ATOM      8  C   UNL     1     101.493 129.656  84.186  0.00  0.00    +0.000 A 
ATOM      9  C   UNL     1     100.202 130.124  84.474  0.00  0.00    +0.000 A 
ATOM     10  C   UNL     1      99.061 129.412  84.067  0.00  0.00    +0.000 A 
ATOM     11  C   UNL     1     102.703 130.424  84.624  0.00  0.00    +0.000 C 
ENDROOT
BRANCH   5  12
ATOM     12  C   UNL     1     103.270 125.584  81.821  0.00  0.00    +0.000 A 
ATOM     13  C   UNL     1     103.664 124.451  82.552  0.00  0.00    +0.000 A 
ATOM     14  C   UNL     1     104.488 123.473  81.986  0.00  0.00    +0.000 A 
ATOM     15  C   UNL     1     104.932 123.608  80.674  0.00  0.00    +0.000 A 
ATOM     16  C   UNL     1     104.548 124.718  79.930  0.00  0.00    +0.000 A 
ATOM     17  C   UNL     1     103.723 125.695  80.497  0.00  0.00    +0.000 A 
ENDBRANCH   5  12
TORSDOF 1
ENDMDL
