MODEL 1
REMARK VINA RESULT:      -5.2      0.000      0.000
REMARK  Name = *****
REMARK  5 active torsions:
REMARK  status: ('A' for Active; 'I' for Inactive)
REMARK    1  A    between atoms: C_1  and  C_2
REMARK    2  A    between atoms: C_2  and  C_4
REMARK    3  A    between atoms: C_7  and  C_10
REMARK    4  A    between atoms: C_10  and  C_11
REMARK    5  A    between atoms: C_11  and  C_12
REMARK                            x       y       z     vdW  Elec       q    Type
REMARK                         _______ _______ _______ _____ _____    ______ ____
ROOT
ATOM      1  C   UNL     1      88.769  70.410  86.593  0.00  0.00    +0.000 C 
ATOM      2  F   UNL     1      87.953  70.987  87.533  0.00  0.00    +0.000 F 
ATOM      3  F   UNL     1      90.011  70.937  86.842  0.00  0.00    +0.000 F 
ENDROOT
BRANCH   1   7
ATOM      4  C   UNL     1      88.843  66.087  87.042  0.00  0.00    +0.000 A 
ATOM      5  C   UNL     1      89.919  66.752  86.444  0.00  0.00    +0.000 A 
ATOM      6  C   UNL     1      89.897  68.145  86.306  0.00  0.00    +0.000 A 
ATOM      7  C   UNL     1      88.797  68.894  86.752  0.00  0.00    +0.000 A 
ATOM      8  C   UNL     1      87.725  68.221  87.357  0.00  0.00    +0.000 A 
ATOM      9  C   UNL     1      87.750  66.831  87.502  0.00  0.00    +0.000 A 
BRANCH   4  11
ATOM     10  C   UNL     1      88.490  64.032  88.567  0.00  0.00    +0.000 C 
ATOM     11  C   UNL     1      88.817  64.604  87.213  0.00  0.00    +0.000 C 
ATOM     12  O   UNL     1      89.061  63.873  86.255  0.00  0.00    +0.000 OA
ENDBRANCH   4  11
ENDBRANCH   1   7
BRANCH   1  13
ATOM     13  C   UNL     1      88.296  70.847  85.169  0.00  0.00    +0.000 C 
ATOM     14  F   UNL     1      87.703  69.779  84.542  0.00  0.00    +0.000 F 
ATOM     15  F   UNL     1      87.286  71.769  85.300  0.00  0.00    +0.000 F 
BRANCH  13  16
ATOM     16  C   UNL     1      89.435  71.398  84.325  0.00  0.00    +0.000 A 
ATOM     17  C   UNL     1      90.420  70.542  83.805  0.00  0.00    +0.000 A 
ATOM     18  C   UNL     1      91.467  71.051  83.036  0.00  0.00    +0.000 A 
ATOM     19  C   UNL     1      91.539  72.417  82.770  0.00  0.00    +0.000 A 
ATOM     20  C   UNL     1      90.564  73.276  83.272  0.00  0.00    +0.000 A 
ATOM     21  C   UNL     1      89.517  72.771  84.046  0.00  0.00    +0.000 A 
ENDBRANCH  13  16
ENDBRANCH   1  13
TORSDOF 4
ENDMDL
