MODEL 1
REMARK VINA RESULT:      -5.1      0.000      0.000
REMARK  Name = *****
REMARK  3 active torsions:
REMARK  status: ('A' for Active; 'I' for Inactive)
REMARK    1  A    between atoms: C_1  and  C_2
REMARK    2  A    between atoms: C_7  and  C_8
REMARK    3  A    between atoms: C_9  and  C_10
REMARK                            x       y       z     vdW  Elec       q    Type
REMARK                         _______ _______ _______ _____ _____    ______ ____
ROOT
ATOM      1  C   UNL     1     102.080 126.242  82.055  0.00  0.00    +0.000 C 
ATOM      2  C   UNL     1     102.941 125.522  81.627  0.00  0.00    +0.000 C 
ENDROOT
BRANCH   1   9
ATOM      3  C   UNL     1     102.790 128.694  83.521  0.00  0.00    +0.000 C 
ATOM      4  C   UNL     1     101.366 128.279  83.271  0.00  0.00    +0.000 A 
ATOM      5  C   UNL     1     100.317 129.080  83.748  0.00  0.00    +0.000 A 
ATOM      6  C   UNL     1      98.987 128.721  83.529  0.00  0.00    +0.000 A 
ATOM      7  C   UNL     1      98.685 127.555  82.830  0.00  0.00    +0.000 A 
ATOM      8  C   UNL     1      99.716 126.748  82.349  0.00  0.00    +0.000 A 
ATOM      9  C   UNL     1     101.054 127.102  82.566  0.00  0.00    +0.000 A 
ENDBRANCH   1   9
BRANCH   2  10
ATOM     10  C   UNL     1     103.968 124.668  81.114  0.00  0.00    +0.000 A 
ATOM     11  C   UNL     1     104.618 124.995  79.922  0.00  0.00    +0.000 A 
ATOM     12  C   UNL     1     105.616 124.155  79.431  0.00  0.00    +0.000 A 
ATOM     13  C   UNL     1     105.970 122.995  80.118  0.00  0.00    +0.000 A 
ATOM     14  C   UNL     1     105.320 122.669  81.310  0.00  0.00    +0.000 A 
ATOM     15  C   UNL     1     104.319 123.505  81.807  0.00  0.00    +0.000 A 
ATOM     16 CL   UNL     1     106.419 124.554  77.962  0.00  0.00    +0.000 Cl
ENDBRANCH   2  10
TORSDOF 2
ENDMDL
