REMARK  Name = *****
REMARK  3 active torsions:
REMARK  status: ('A' for Active; 'I' for Inactive)
REMARK    1  A    between atoms: N_2  and  C_3
REMARK    2  A    between atoms: C_8  and  C_9
REMARK    3  A    between atoms: C_10  and  C_11
REMARK                            x       y       z     vdW  Elec       q    Type
REMARK                         _______ _______ _______ _____ _____    ______ ____
ROOT
ATOM      1  C   UNL     1       3.557  -0.138  -0.114  0.00  0.00    +0.000 A 
ATOM      2  C   UNL     1       4.211   1.095  -0.042  0.00  0.00    +0.000 A 
ATOM      3  C   UNL     1       5.604   1.130  -0.019  0.00  0.00    +0.000 A 
ATOM      4  C   UNL     1       6.332  -0.060  -0.068  0.00  0.00    +0.000 A 
ATOM      5  C   UNL     1       5.670  -1.290  -0.139  0.00  0.00    +0.000 A 
ATOM      6  C   UNL     1       4.272  -1.337  -0.163  0.00  0.00    +0.000 A 
ENDROOT
BRANCH   1   8
ATOM      7  C   UNL     1       0.994  -0.118  -0.157  0.00  0.00    +0.000 C 
ATOM      8  N   UNL     1       2.166  -0.140  -0.138  0.00  0.00    +0.000 NA
ENDBRANCH   1   8
BRANCH   6   9
ATOM      9  C   UNL     1       3.615  -2.607  -0.236  0.00  0.00    +0.000 C 
ATOM     10  C   UNL     1       3.049  -3.665  -0.299  0.00  0.00    +0.000 C 
BRANCH  10  11
ATOM     11  C   UNL     1       2.354  -4.912  -0.375  0.00  0.00    +0.000 A 
ATOM     12  C   UNL     1       3.049  -6.114  -0.217  0.00  0.00    +0.000 A 
ATOM     13  C   UNL     1       2.366  -7.330  -0.292  0.00  0.00    +0.000 A 
ATOM     14  C   UNL     1       0.991  -7.345  -0.524  0.00  0.00    +0.000 A 
ATOM     15  C   UNL     1       0.296  -6.146  -0.681  0.00  0.00    +0.000 A 
ATOM     16  C   UNL     1       0.977  -4.929  -0.606  0.00  0.00    +0.000 A 
ENDBRANCH  10  11
ENDBRANCH   6   9
TORSDOF 3
