MODEL 1
REMARK VINA RESULT:      -4.6      0.000      0.000
REMARK  Name = *****
REMARK  5 active torsions:
REMARK  status: ('A' for Active; 'I' for Inactive)
REMARK    1  A    between atoms: C_1  and  C_2
REMARK    2  A    between atoms: C_5  and  C_8
REMARK    3  A    between atoms: C_8  and  N_10
REMARK    4  A    between atoms: N_10  and  C_11
REMARK    5  A    between atoms: C_11  and  C_12
REMARK                            x       y       z     vdW  Elec       q    Type
REMARK                         _______ _______ _______ _____ _____    ______ ____
ROOT
ATOM      1  C   UNL     1     104.713 124.532  80.084  0.00  0.00    +0.000 C 
ATOM      2  S   UNL     1     106.016 124.732  79.044  0.00  0.00    +0.000 S 
ENDROOT
BRANCH   1   7
ATOM      3  C   UNL     1     104.379 120.119  83.829  0.00  0.00    +0.000 C 
ATOM      4  C   UNL     1     104.496 121.264  82.867  0.00  0.00    +0.000 A 
ATOM      5  C   UNL     1     104.392 122.585  83.323  0.00  0.00    +0.000 A 
ATOM      6  C   UNL     1     104.471 123.654  82.426  0.00  0.00    +0.000 A 
ATOM      7  C   UNL     1     104.645 123.408  81.060  0.00  0.00    +0.000 A 
ATOM      8  C   UNL     1     104.734 122.089  80.596  0.00  0.00    +0.000 A 
ATOM      9  C   UNL     1     104.654 121.024  81.496  0.00  0.00    +0.000 A 
ENDBRANCH   1   7
BRANCH   1  10
ATOM     10  N   UNL     1     103.607 125.365  80.128  0.00  0.00    +0.000 N 
ATOM     11  H   UNL     1     102.733 124.959  79.929  0.00  0.00    +0.000 HD
BRANCH  10  12
ATOM     12  C   UNL     1     103.620 126.786  80.439  0.00  0.00    +0.000 C 
BRANCH  12  13
ATOM     13  C   UNL     1     102.815 127.060  81.682  0.00  0.00    +0.000 A 
ATOM     14  C   UNL     1     101.787 126.191  82.073  0.00  0.00    +0.000 A 
ATOM     15  C   UNL     1     101.022 126.467  83.207  0.00  0.00    +0.000 A 
ATOM     16  C   UNL     1     101.272 127.616  83.955  0.00  0.00    +0.000 A 
ATOM     17  C   UNL     1     102.282 128.494  83.568  0.00  0.00    +0.000 A 
ATOM     18  C   UNL     1     103.049 128.219  82.435  0.00  0.00    +0.000 A 
ENDBRANCH  12  13
ENDBRANCH  10  12
ENDBRANCH   1  10
TORSDOF 4
ENDMDL
