MODEL 1
REMARK VINA RESULT:      -4.4      0.000      0.000
REMARK  Name = *****
REMARK  5 active torsions:
REMARK  status: ('A' for Active; 'I' for Inactive)
REMARK    1  A    between atoms: C_1  and  C_2
REMARK    2  A    between atoms: C_5  and  C_8
REMARK    3  A    between atoms: C_8  and  S_9
REMARK    4  A    between atoms: C_8  and  S_11
REMARK    5  A    between atoms: S_11  and  C_12
REMARK                            x       y       z     vdW  Elec       q    Type
REMARK                         _______ _______ _______ _____ _____    ______ ____
ROOT
ATOM      1  C   UNL     1      88.059  70.407  86.160  0.00  0.00    +0.000 C 
ENDROOT
BRANCH   1   6
ATOM      2  C   UNL     1      83.210  73.056  87.880  0.00  0.00    +0.000 C 
ATOM      3  C   UNL     1      84.478  72.390  87.434  0.00  0.00    +0.000 A 
ATOM      4  C   UNL     1      85.367  71.858  88.374  0.00  0.00    +0.000 A 
ATOM      5  C   UNL     1      86.531  71.205  87.959  0.00  0.00    +0.000 A 
ATOM      6  C   UNL     1      86.810  71.067  86.593  0.00  0.00    +0.000 A 
ATOM      7  C   UNL     1      85.915  71.584  85.649  0.00  0.00    +0.000 A 
ATOM      8  C   UNL     1      84.753  72.235  86.070  0.00  0.00    +0.000 A 
ENDBRANCH   1   6
BRANCH   1   9
ATOM      9  S   UNL     1      89.283  70.072  87.200  0.00  0.00    +0.000 S 
ATOM     10  O   UNL     1      90.055  68.833  86.900  0.00  0.00    +0.000 OA
ENDBRANCH   1   9
BRANCH   1  11
ATOM     11  S   UNL     1      88.246  69.982  84.465  0.00  0.00    +0.000 S 
BRANCH  11  12
ATOM     12  C   UNL     1      89.405  71.233  83.947  0.00  0.00    +0.000 A 
ATOM     13  C   UNL     1      90.752  70.917  83.740  0.00  0.00    +0.000 A 
ATOM     14  C   UNL     1      91.649  71.903  83.325  0.00  0.00    +0.000 A 
ATOM     15  C   UNL     1      91.205  73.209  83.120  0.00  0.00    +0.000 A 
ATOM     16  C   UNL     1      89.866  73.531  83.335  0.00  0.00    +0.000 A 
ATOM     17  C   UNL     1      88.967  72.546  83.751  0.00  0.00    +0.000 A 
ENDBRANCH  11  12
ENDBRANCH   1  11
TORSDOF 4
ENDMDL
