MODEL 1
REMARK VINA RESULT:      -4.4      0.000      0.000
REMARK  Name = *****
REMARK  3 active torsions:
REMARK  status: ('A' for Active; 'I' for Inactive)
REMARK    1  A    between atoms: C_4  and  C_6
REMARK    2  A    between atoms: C_6  and  C_15
REMARK    3  A    between atoms: C_7  and  C_8
REMARK                            x       y       z     vdW  Elec       q    Type
REMARK                         _______ _______ _______ _____ _____    ______ ____
ROOT
ATOM      1  C   UNL     1     100.179 128.326  83.406  0.00  0.00    +0.000 C 
ATOM      2  C   UNL     1     101.522 128.186  83.395  0.00  0.00    +0.000 C 
ENDROOT
BRANCH   2   3
ATOM      3  C   UNL     1     102.268 127.153  82.664  0.00  0.00    +0.000 A 
ATOM      4  C   UNL     1     102.498 125.890  83.224  0.00  0.00    +0.000 A 
ATOM      5  C   UNL     1     103.200 124.918  82.504  0.00  0.00    +0.000 A 
ATOM      6  C   UNL     1     103.665 125.207  81.222  0.00  0.00    +0.000 A 
ATOM      7  C   UNL     1     103.433 126.457  80.653  0.00  0.00    +0.000 A 
ATOM      8  C   UNL     1     102.732 127.429  81.372  0.00  0.00    +0.000 A 
ATOM      9 CL   UNL     1     104.526 124.010  80.336  0.00  0.00    +0.000 Cl
ENDBRANCH   2   3
BRANCH   1  13
ATOM     10  C   UNL     1      99.048 131.498  85.048  0.00  0.00    +0.000 A 
ATOM     11  C   UNL     1      98.286 130.689  85.856  0.00  0.00    +0.000 A 
ATOM     12  S   UNL     1      98.477 129.036  85.473  0.00  0.00    +0.000 S 
ATOM     13  C   UNL     1      99.579 129.377  84.183  0.00  0.00    +0.000 A 
ATOM     14  C   UNL     1      99.795 130.745  84.095  0.00  0.00    +0.000 A 
ENDBRANCH   1  13
BRANCH   1  15
ATOM     15  C   UNL     1      99.324 127.411  82.708  0.00  0.00    +0.000 C 
ATOM     16  N   UNL     1      98.641 126.671  82.131  0.00  0.00    +0.000 NA
ENDBRANCH   1  15
TORSDOF 3
ENDMDL
