MODEL 1
REMARK VINA RESULT:      -4.5      0.000      0.000
REMARK  Name = *****
REMARK  6 active torsions:
REMARK  status: ('A' for Active; 'I' for Inactive)
REMARK    1  A    between atoms: C_1  and  C_2
REMARK    2  A    between atoms: C_4  and  C_9
REMARK    3  A    between atoms: C_5  and  C_8
REMARK    4  A    between atoms: C_9  and  C_10
REMARK    5  A    between atoms: C_10  and  C_11
REMARK    6  A    between atoms: C_11  and  C_13
REMARK                            x       y       z     vdW  Elec       q    Type
REMARK                         _______ _______ _______ _____ _____    ______ ____
ROOT
ATOM      1  C   UNL     1      88.459  70.071  83.554  0.00  0.00    +0.000 C 
ENDROOT
BRANCH   1   2
ATOM      2  C   UNL     1      89.117  68.705  83.541  0.00  0.00    +0.000 C 
ATOM      3  O   UNL     1      89.809  68.318  82.601  0.00  0.00    +0.000 OA
BRANCH   2   4
ATOM      4  C   UNL     1      88.914  67.800  84.715  0.00  0.00    +0.000 A 
ATOM      5  C   UNL     1      90.043  67.236  85.326  0.00  0.00    +0.000 A 
ATOM      6  C   UNL     1      89.905  66.382  86.424  0.00  0.00    +0.000 A 
ATOM      7  C   UNL     1      88.636  66.089  86.916  0.00  0.00    +0.000 A 
ATOM      8  C   UNL     1      87.505  66.643  86.319  0.00  0.00    +0.000 A 
ATOM      9  C   UNL     1      87.641  67.498  85.218  0.00  0.00    +0.000 A 
ATOM     10 CL   UNL     1      88.461  65.040  88.266  0.00  0.00    +0.000 Cl
ENDBRANCH   2   4
ENDBRANCH   1   2
BRANCH   1  11
ATOM     11  C   UNL     1      88.952  70.927  84.722  0.00  0.00    +0.000 C 
BRANCH  11  15
ATOM     12  C   UNL     1      84.309  72.434  85.903  0.00  0.00    +0.000 C 
ATOM     13  C   UNL     1      85.599  71.793  86.319  0.00  0.00    +0.000 A 
ATOM     14  C   UNL     1      86.646  71.646  85.400  0.00  0.00    +0.000 A 
ATOM     15  C   UNL     1      87.879  71.081  85.779  0.00  0.00    +0.000 A 
ATOM     16  C   UNL     1      88.061  70.656  87.109  0.00  0.00    +0.000 A 
ATOM     17  C   UNL     1      87.015  70.827  88.029  0.00  0.00    +0.000 A 
ATOM     18  C   UNL     1      85.799  71.391  87.639  0.00  0.00    +0.000 A 
ATOM     19  C   UNL     1      89.357  70.058  87.587  0.00  0.00    +0.000 C 
ENDBRANCH  11  15
ENDBRANCH   1  11
TORSDOF 4
ENDMDL
