MODEL 1
REMARK VINA RESULT:      -5.3      0.000      0.000
REMARK  Name = *****
REMARK  4 active torsions:
REMARK  status: ('A' for Active; 'I' for Inactive)
REMARK    1  A    between atoms: C_1  and  C_2
REMARK    2  A    between atoms: C_3  and  C_17
REMARK    3  A    between atoms: C_4  and  C_8
REMARK    4  A    between atoms: C_9  and  C_10
REMARK                            x       y       z     vdW  Elec       q    Type
REMARK                         _______ _______ _______ _____ _____    ______ ____
ROOT
ATOM      1  C   UNL     1     102.099 125.953  82.307  0.00  0.00    +0.000 C 
ATOM      2  C   UNL     1     102.925 126.022  81.251  0.00  0.00    +0.000 C 
ATOM      3  F   UNL     1     102.874 127.110  80.446  0.00  0.00    +0.000 F 
ENDROOT
BRANCH   1   7
ATOM      4  C   UNL     1     100.761 130.357  84.449  0.00  0.00    +0.000 C 
ATOM      5  C   UNL     1     100.448 129.087  83.702  0.00  0.00    +0.000 A 
ATOM      6  C   UNL     1     101.461 128.175  83.317  0.00  0.00    +0.000 A 
ATOM      7  C   UNL     1     101.100 126.985  82.640  0.00  0.00    +0.000 A 
ATOM      8  C   UNL     1      99.751 126.743  82.333  0.00  0.00    +0.000 A 
ATOM      9  C   UNL     1      98.765 127.660  82.683  0.00  0.00    +0.000 A 
ATOM     10  C   UNL     1      99.112 128.822  83.365  0.00  0.00    +0.000 A 
ATOM     11  C   UNL     1     102.905 128.448  83.667  0.00  0.00    +0.000 C 
ENDBRANCH   1   7
BRANCH   2  12
ATOM     12  C   UNL     1     103.946 125.011  80.914  0.00  0.00    +0.000 A 
ATOM     13  C   UNL     1     104.127 123.830  81.651  0.00  0.00    +0.000 A 
ATOM     14  C   UNL     1     105.100 122.897  81.279  0.00  0.00    +0.000 A 
ATOM     15  C   UNL     1     105.900 123.127  80.162  0.00  0.00    +0.000 A 
ATOM     16  C   UNL     1     105.724 124.287  79.412  0.00  0.00    +0.000 A 
ATOM     17  C   UNL     1     104.752 125.219  79.784  0.00  0.00    +0.000 A 
ENDBRANCH   2  12
TORSDOF 2
ENDMDL
