MODEL 1
REMARK VINA RESULT:      -4.4      0.000      0.000
REMARK  Name = *****
REMARK  4 active torsions:
REMARK  status: ('A' for Active; 'I' for Inactive)
REMARK    1  A    between atoms: C_1  and  C_2
REMARK    2  A    between atoms: C_5  and  C_7
REMARK    3  A    between atoms: C_7  and  C_8
REMARK    4  A    between atoms: C_8  and  C_9
REMARK                            x       y       z     vdW  Elec       q    Type
REMARK                         _______ _______ _______ _____ _____    ______ ____
ROOT
ATOM      1  C   UNL     1     103.226 127.344  81.207  0.00  0.00    +0.000 C 
ENDROOT
BRANCH   1   6
ATOM      2  C   UNL     1     104.812 122.495  80.633  0.00  0.00    +0.000 C 
ATOM      3  C   UNL     1     104.598 123.956  80.516  0.00  0.00    +0.000 A 
ATOM      4  C   UNL     1     105.215 124.827  79.642  0.00  0.00    +0.000 A 
ATOM      5  O   UNL     1     104.771 126.094  79.825  0.00  0.00    +0.000 OA
ATOM      6  C   UNL     1     103.852 126.052  80.828  0.00  0.00    +0.000 A 
ATOM      7  C   UNL     1     103.711 124.759  81.285  0.00  0.00    +0.000 A 
ENDBRANCH   1   6
BRANCH   1   8
ATOM      8  C   UNL     1     102.809 127.346  82.679  0.00  0.00    +0.000 C 
BRANCH   8   9
ATOM      9  C   UNL     1     101.326 127.576  82.838  0.00  0.00    +0.000 A 
ATOM     10  C   UNL     1     100.850 128.710  83.510  0.00  0.00    +0.000 A 
ATOM     11  C   UNL     1      99.478 128.910  83.674  0.00  0.00    +0.000 A 
ATOM     12  C   UNL     1      98.572 127.978  83.172  0.00  0.00    +0.000 A 
ATOM     13  C   UNL     1      99.035 126.845  82.508  0.00  0.00    +0.000 A 
ATOM     14  C   UNL     1     100.407 126.642  82.343  0.00  0.00    +0.000 A 
ENDBRANCH   8   9
ENDBRANCH   1   8
TORSDOF 3
ENDMDL
