REMARK  Name = *****
REMARK  3 active torsions:
REMARK  status: ('A' for Active; 'I' for Inactive)
REMARK    1  A    between atoms: C_2  and  C_3
REMARK    2  A    between atoms: C_5  and  C_10
REMARK    3  A    between atoms: C_11  and  C_12
REMARK                            x       y       z     vdW  Elec       q    Type
REMARK                         _______ _______ _______ _____ _____    ______ ____
ROOT
ATOM      1  C   UNL     1       4.887  -0.071   0.601  0.00  0.00    +0.000 C 
ATOM      2  C   UNL     1       5.328   1.075  -0.355  0.00  0.00    +0.000 C 
ATOM      3  C   UNL     1       6.212  -0.057  -0.086  0.00  0.00    +0.000 C 
ATOM      4  C   UNL     1       5.353  -1.207  -0.355  0.00  0.00    +0.000 C 
ATOM      5  C   UNL     1       4.890  -1.345  -1.783  0.00  0.00    +0.000 C 
ATOM      6  C   UNL     1       4.212  -0.079  -2.312  0.00  0.00    +0.000 C 
ATOM      7  C   UNL     1       4.862   1.202  -1.783  0.00  0.00    +0.000 C 
ENDROOT
BRANCH   1   9
ATOM      8  C   UNL     1       2.274  -0.100   0.791  0.00  0.00    +0.000 C 
ATOM      9  C   UNL     1       3.470  -0.087   0.684  0.00  0.00    +0.000 C 
ENDBRANCH   1   9
BRANCH   3  10
ATOM     10  C   UNL     1       7.357  -0.044   0.749  0.00  0.00    +0.000 C 
ATOM     11  C   UNL     1       8.333  -0.034   1.449  0.00  0.00    +0.000 C 
BRANCH  11  12
ATOM     12  C   UNL     1       9.497  -0.021   2.281  0.00  0.00    +0.000 A 
ATOM     13  C   UNL     1      10.058   1.194   2.682  0.00  0.00    +0.000 A 
ATOM     14  C   UNL     1      11.195   1.206   3.492  0.00  0.00    +0.000 A 
ATOM     15  C   UNL     1      11.772   0.004   3.901  0.00  0.00    +0.000 A 
ATOM     16  C   UNL     1      11.214  -1.210   3.502  0.00  0.00    +0.000 A 
ATOM     17  C   UNL     1      10.077  -1.224   2.692  0.00  0.00    +0.000 A 
ENDBRANCH  11  12
ENDBRANCH   3  10
TORSDOF 3
