MODEL 1
REMARK VINA RESULT:      -4.4      0.000      0.000
REMARK  Name = *****
REMARK  3 active torsions:
REMARK  status: ('A' for Active; 'I' for Inactive)
REMARK    1  A    between atoms: C_5  and  C_7
REMARK    2  A    between atoms: C_7  and  N_9
REMARK    3  A    between atoms: N_9  and  C_10
REMARK                            x       y       z     vdW  Elec       q    Type
REMARK                         _______ _______ _______ _____ _____    ______ ____
ROOT
ATOM      1  C   UNL     1      87.699  63.538  86.459  0.00  0.00    +0.000 C 
ATOM      2  S   UNL     1      86.387  63.555  85.407  0.00  0.00    +0.000 S 
ENDROOT
BRANCH   1   7
ATOM      3  C   UNL     1      91.099  64.561  85.094  0.00  0.00    +0.000 A 
ATOM      4  C   UNL     1      91.184  65.885  85.529  0.00  0.00    +0.000 A 
ATOM      5  C   UNL     1      90.140  66.444  86.265  0.00  0.00    +0.000 A 
ATOM      6  C   UNL     1      89.015  65.678  86.560  0.00  0.00    +0.000 A 
ATOM      7  C   UNL     1      88.913  64.352  86.127  0.00  0.00    +0.000 A 
ATOM      8  C   UNL     1      89.970  63.793  85.392  0.00  0.00    +0.000 A 
ATOM      9  F   UNL     1      88.033  66.237  87.281  0.00  0.00    +0.000 F 
ENDBRANCH   1   7
BRANCH   1  10
ATOM     10  N   UNL     1      87.816  62.876  87.676  0.00  0.00    +0.000 N 
ATOM     11  H   UNL     1      87.856  61.897  87.582  0.00  0.00    +0.000 HD
BRANCH  10  12
ATOM     12  C   UNL     1      87.889  63.310  89.028  0.00  0.00    +0.000 A 
ATOM     13  C   UNL     1      89.068  63.617  89.707  0.00  0.00    +0.000 A 
ATOM     14  C   UNL     1      89.040  64.050  91.040  0.00  0.00    +0.000 A 
ATOM     15  C   UNL     1      87.831  64.194  91.713  0.00  0.00    +0.000 A 
ATOM     16  C   UNL     1      86.640  63.914  91.051  0.00  0.00    +0.000 A 
ATOM     17  C   UNL     1      86.670  63.483  89.721  0.00  0.00    +0.000 A 
ATOM     18 CL   UNL     1      85.152  63.163  88.946  0.00  0.00    +0.000 Cl
ENDBRANCH  10  12
ENDBRANCH   1  10
TORSDOF 3
ENDMDL
