MODEL 1
REMARK VINA RESULT:      -3.7      0.000      0.000
REMARK  Name = *****
REMARK  4 active torsions:
REMARK  status: ('A' for Active; 'I' for Inactive)
REMARK    1  A    between atoms: C_4  and  C_7
REMARK    2  A    between atoms: N_8  and  O_9
REMARK    3  A    between atoms: O_9  and  C_10
REMARK    4  A    between atoms: C_10  and  C_11
REMARK                            x       y       z     vdW  Elec       q    Type
REMARK                         _______ _______ _______ _____ _____    ______ ____
ROOT
ATOM      1  O   UNL     1      90.595  69.688  83.642  0.00  0.00    +0.000 OA
ENDROOT
BRANCH   1   3
ATOM      2  C   UNL     1      89.250  68.017  82.978  0.00  0.00    +0.000 C 
ATOM      3  N   UNL     1      89.884  69.087  82.597  0.00  0.00    +0.000 NA
BRANCH   2   7
ATOM      4  C   UNL     1      88.760  66.455  86.921  0.00  0.00    +0.000 A 
ATOM      5  C   UNL     1      90.014  66.386  86.313  0.00  0.00    +0.000 A 
ATOM      6  C   UNL     1      90.193  66.882  85.020  0.00  0.00    +0.000 A 
ATOM      7  C   UNL     1      89.112  67.436  84.330  0.00  0.00    +0.000 A 
ATOM      8  C   UNL     1      87.859  67.525  84.949  0.00  0.00    +0.000 A 
ATOM      9  C   UNL     1      87.684  67.027  86.241  0.00  0.00    +0.000 A 
ENDBRANCH   2   7
ENDBRANCH   1   3
BRANCH   1  10
ATOM     10  C   UNL     1      90.017  70.961  83.923  0.00  0.00    +0.000 C 
BRANCH  10  11
ATOM     11  C   UNL     1      89.221  70.856  85.198  0.00  0.00    +0.000 A 
ATOM     12  C   UNL     1      89.854  70.391  86.364  0.00  0.00    +0.000 A 
ATOM     13  C   UNL     1      89.149  70.261  87.562  0.00  0.00    +0.000 A 
ATOM     14  C   UNL     1      87.796  70.586  87.612  0.00  0.00    +0.000 A 
ATOM     15  C   UNL     1      87.149  71.037  86.462  0.00  0.00    +0.000 A 
ATOM     16  C   UNL     1      87.854  71.167  85.261  0.00  0.00    +0.000 A 
ATOM     17 CL   UNL     1      86.977  71.720  83.878  0.00  0.00    +0.000 Cl
ENDBRANCH  10  11
ENDBRANCH   1  10
TORSDOF 4
ENDMDL
