MODEL 1
REMARK VINA RESULT:      -3.9      0.000      0.000
REMARK  Name = *****
REMARK  3 active torsions:
REMARK  status: ('A' for Active; 'I' for Inactive)
REMARK    1  A    between atoms: C_4  and  S_7
REMARK    2  A    between atoms: S_7  and  S_8
REMARK    3  A    between atoms: S_8  and  C_9
REMARK                            x       y       z     vdW  Elec       q    Type
REMARK                         _______ _______ _______ _____ _____    ______ ____
ROOT
ATOM      1  S   UNL     1     103.205 127.422  83.138  0.00  0.00    +0.000 S 
ENDROOT
BRANCH   1   5
ATOM      2  C   UNL     1      98.638 128.170  82.732  0.00  0.00    +0.000 C 
ATOM      3  C   UNL     1      99.114 126.729  82.594  0.00  0.00    +0.000 C 
ATOM      4  C   UNL     1     100.624 126.647  82.369  0.00  0.00    +0.000 C 
ATOM      5  C   UNL     1     101.398 127.386  83.467  0.00  0.00    +0.000 C 
ATOM      6  C   UNL     1     100.913 128.837  83.596  0.00  0.00    +0.000 C 
ATOM      7  C   UNL     1      99.404 128.906  83.826  0.00  0.00    +0.000 C 
ENDBRANCH   1   5
BRANCH   1   8
ATOM      8  S   UNL     1     103.379 126.657  81.234  0.00  0.00    +0.000 S 
BRANCH   8   9
ATOM      9  C   UNL     1     103.960 124.989  81.502  0.00  0.00    +0.000 A 
ATOM     10  C   UNL     1     103.928 124.394  82.768  0.00  0.00    +0.000 A 
ATOM     11  C   UNL     1     104.374 123.082  82.945  0.00  0.00    +0.000 A 
ATOM     12  C   UNL     1     104.846 122.353  81.856  0.00  0.00    +0.000 A 
ATOM     13  C   UNL     1     104.867 122.931  80.587  0.00  0.00    +0.000 A 
ATOM     14  C   UNL     1     104.420 124.243  80.412  0.00  0.00    +0.000 A 
ENDBRANCH   8   9
ENDBRANCH   1   8
TORSDOF 3
ENDMDL
