REMARK  Name = *****
REMARK  7 active torsions:
REMARK  status: ('A' for Active; 'I' for Inactive)
REMARK    1  A    between atoms: C_1  and  C_2
REMARK    2  A    between atoms: C_5  and  N_8
REMARK    3  A    between atoms: N_8  and  C_9
REMARK    4  A    between atoms: N_8  and  N_10
REMARK    5  A    between atoms: N_10  and  C_11
REMARK    6  A    between atoms: N_10  and  C_12
REMARK    7  A    between atoms: C_15  and  C_18
REMARK                            x       y       z     vdW  Elec       q    Type
REMARK                         _______ _______ _______ _____ _____    ______ ____
ROOT
ATOM      1  N   UNL     1      -3.236   0.113  -0.095  0.00  0.00    +0.000 N 
ATOM      2  C   UNL     1      -3.984  -1.145  -0.105  0.00  0.00    +0.000 C 
ENDROOT
BRANCH   1   7
ATOM      3  C   UNL     1       2.502   0.125   0.439  0.00  0.00    +0.000 C 
ATOM      4  C   UNL     1       1.012   0.113   0.273  0.00  0.00    +0.000 A 
ATOM      5  C   UNL     1       0.298   1.306   0.164  0.00  0.00    +0.000 A 
ATOM      6  C   UNL     1      -1.097   1.289   0.042  0.00  0.00    +0.000 A 
ATOM      7  C   UNL     1      -1.829   0.089   0.032  0.00  0.00    +0.000 A 
ATOM      8  C   UNL     1      -1.093  -1.099   0.167  0.00  0.00    +0.000 A 
ATOM      9  C   UNL     1       0.304  -1.090   0.289  0.00  0.00    +0.000 A 
ENDBRANCH   1   7
BRANCH   1  10
ATOM     10  N   UNL     1      -3.939   1.260  -0.433  0.00  0.00    +0.000 N 
ATOM     11  C   UNL     1      -4.087   1.546  -1.861  0.00  0.00    +0.000 C 
BRANCH  10  12
ATOM     12  C   UNL     1      -4.678   2.009   0.510  0.00  0.00    +0.000 A 
ATOM     13  C   UNL     1      -4.545   1.748   1.885  0.00  0.00    +0.000 A 
ATOM     14  C   UNL     1      -5.260   2.467   2.850  0.00  0.00    +0.000 A 
ATOM     15  C   UNL     1      -6.129   3.489   2.468  0.00  0.00    +0.000 A 
ATOM     16  C   UNL     1      -6.285   3.760   1.108  0.00  0.00    +0.000 A 
ATOM     17  C   UNL     1      -5.564   3.035   0.148  0.00  0.00    +0.000 A 
ATOM     18  C   UNL     1      -6.925   4.238   3.494  0.00  0.00    +0.000 C 
ENDBRANCH  10  12
ENDBRANCH   1  10
TORSDOF 3
