REMARK  Name = *****
REMARK  2 active torsions:
REMARK  status: ('A' for Active; 'I' for Inactive)
REMARK    1  A    between atoms: C_5  and  C_6
REMARK    2  A    between atoms: N_7  and  C_8
REMARK                            x       y       z     vdW  Elec       q    Type
REMARK                         _______ _______ _______ _____ _____    ______ ____
ROOT
ATOM      1  C   UNL     1       4.956  -1.831   0.030  0.00  0.00    +0.000 A 
ATOM      2  C   UNL     1       6.119  -1.341  -0.585  0.00  0.00    +0.000 A 
ATOM      3  C   UNL     1       7.285  -2.103  -0.646  0.00  0.00    +0.000 A 
ATOM      4  C   UNL     1       7.315  -3.373  -0.093  0.00  0.00    +0.000 A 
ATOM      5  C   UNL     1       6.188  -3.875   0.536  0.00  0.00    +0.000 A 
ATOM      6  C   UNL     1       5.027  -3.109   0.610  0.00  0.00    +0.000 A 
ATOM      7  F   UNL     1       3.965  -3.622   1.251  0.00  0.00    +0.000 F 
ATOM      8  F   UNL     1       6.210  -5.103   1.073  0.00  0.00    +0.000 F 
ATOM      9  F   UNL     1       8.430  -4.113  -0.164  0.00  0.00    +0.000 F 
ATOM     10  F   UNL     1       8.378  -1.610  -1.245  0.00  0.00    +0.000 F 
ATOM     11  F   UNL     1       6.121  -0.116  -1.134  0.00  0.00    +0.000 F 
ENDROOT
BRANCH   1  13
ATOM     12  C   UNL     1       2.637  -1.539  -0.021  0.00  0.00    +0.000 C 
ATOM     13  N   UNL     1       3.809  -1.003   0.072  0.00  0.00    +0.000 NA
BRANCH  12  18
ATOM     14  C   UNL     1       1.421   0.741   0.000  0.00  0.00    +0.000 A 
ATOM     15  C   UNL     1       0.136   1.239  -0.005  0.00  0.00    +0.000 A 
ATOM     16  S   UNL     1      -1.033  -0.006   0.009  0.00  0.00    +0.000 S 
ATOM     17  C   UNL     1       0.178  -1.214   0.012  0.00  0.00    +0.000 A 
ATOM     18  C   UNL     1       1.458  -0.692   0.001  0.00  0.00    +0.000 A 
ENDBRANCH  12  18
ENDBRANCH   1  13
TORSDOF 2
