MODEL 1
REMARK VINA RESULT:      -4.9      0.000      0.000
REMARK  Name = *****
REMARK  4 active torsions:
REMARK  status: ('A' for Active; 'I' for Inactive)
REMARK    1  A    between atoms: C_4  and  O_7
REMARK    2  A    between atoms: O_7  and  C_8
REMARK    3  A    between atoms: C_8  and  C_10
REMARK    4  A    between atoms: C_12  and  C_17
REMARK                            x       y       z     vdW  Elec       q    Type
REMARK                         _______ _______ _______ _____ _____    ______ ____
ROOT
ATOM      1  C   UNL     1      88.756  69.717  86.647  0.00  0.00    +0.000 A 
ATOM      2  C   UNL     1      87.570  70.314  86.186  0.00  0.00    +0.000 A 
ATOM      3  C   UNL     1      86.762  71.074  87.053  0.00  0.00    +0.000 A 
ATOM      4  C   UNL     1      87.149  71.212  88.392  0.00  0.00    +0.000 A 
ATOM      5  C   UNL     1      88.323  70.618  88.842  0.00  0.00    +0.000 A 
ATOM      6  C   UNL     1      89.128  69.878  87.987  0.00  0.00    +0.000 A 
ATOM      7  F   UNL     1      88.681  70.764  90.123  0.00  0.00    +0.000 F 
ENDROOT
BRANCH   3   8
ATOM      8  C   UNL     1      85.477  71.696  86.560  0.00  0.00    +0.000 C 
ATOM      9  F   UNL     1      84.495  70.778  86.341  0.00  0.00    +0.000 F 
ATOM     10  F   UNL     1      84.967  72.591  87.447  0.00  0.00    +0.000 F 
ATOM     11  F   UNL     1      85.626  72.368  85.385  0.00  0.00    +0.000 F 
ENDBRANCH   3   8
BRANCH   1  12
ATOM     12  C   UNL     1      89.649  68.910  85.769  0.00  0.00    +0.000 C 
ATOM     13  O   UNL     1      89.696  69.057  84.559  0.00  0.00    +0.000 OA
BRANCH  12  14
ATOM     14  O   UNL     1      90.370  68.016  86.539  0.00  0.00    +0.000 OA
BRANCH  14  18
ATOM     15  C   UNL     1      89.855  63.933  85.828  0.00  0.00    +0.000 A 
ATOM     16  C   UNL     1      90.953  64.587  85.267  0.00  0.00    +0.000 A 
ATOM     17  C   UNL     1      91.137  65.953  85.481  0.00  0.00    +0.000 A 
ATOM     18  C   UNL     1      90.203  66.655  86.242  0.00  0.00    +0.000 A 
ATOM     19  C   UNL     1      89.114  66.007  86.824  0.00  0.00    +0.000 A 
ATOM     20  C   UNL     1      88.938  64.640  86.608  0.00  0.00    +0.000 A 
ENDBRANCH  14  18
ENDBRANCH  12  14
ENDBRANCH   1  12
TORSDOF 4
ENDMDL
