MODEL 1
REMARK VINA RESULT:      -4.6      0.000      0.000
REMARK  Name = *****
REMARK  3 active torsions:
REMARK  status: ('A' for Active; 'I' for Inactive)
REMARK    1  A    between atoms: C_4  and  O_7
REMARK    2  A    between atoms: O_7  and  C_8
REMARK    3  A    between atoms: C_8  and  C_9
REMARK                            x       y       z     vdW  Elec       q    Type
REMARK                         _______ _______ _______ _____ _____    ______ ____
ROOT
ATOM      1  C   UNL     1     102.914 125.855  82.740  0.00  0.00    +0.000 C 
ENDROOT
BRANCH   1   2
ATOM      2  C   UNL     1     103.796 125.179  81.716  0.00  0.00    +0.000 A 
ATOM      3  C   UNL     1     104.382 123.925  81.974  0.00  0.00    +0.000 A 
ATOM      4  C   UNL     1     105.215 123.308  81.033  0.00  0.00    +0.000 A 
ATOM      5  C   UNL     1     105.491 123.933  79.821  0.00  0.00    +0.000 A 
ATOM      6  C   UNL     1     104.939 125.182  79.555  0.00  0.00    +0.000 A 
ATOM      7  C   UNL     1     104.105 125.803  80.493  0.00  0.00    +0.000 A 
ATOM      8 CL   UNL     1     103.488 127.364  80.072  0.00  0.00    +0.000 Cl
ATOM      9 CL   UNL     1     104.121 123.072  83.458  0.00  0.00    +0.000 Cl
ENDBRANCH   1   2
BRANCH   1  10
ATOM     10  O   UNL     1     101.568 125.772  82.278  0.00  0.00    +0.000 OA
BRANCH  10  14
ATOM     11  C   UNL     1      99.239 129.037  83.402  0.00  0.00    +0.000 A 
ATOM     12  C   UNL     1      98.610 127.961  82.779  0.00  0.00    +0.000 A 
ATOM     13  C   UNL     1      99.351 126.842  82.383  0.00  0.00    +0.000 A 
ATOM     14  C   UNL     1     100.728 126.798  82.611  0.00  0.00    +0.000 A 
ATOM     15  C   UNL     1     101.351 127.881  83.236  0.00  0.00    +0.000 A 
ATOM     16  C   UNL     1     100.612 128.998  83.630  0.00  0.00    +0.000 A 
ENDBRANCH  10  14
ENDBRANCH   1  10
TORSDOF 3
ENDMDL
