MODEL 1
REMARK VINA RESULT:      -4.7      0.000      0.000
REMARK  Name = *****
REMARK  5 active torsions:
REMARK  status: ('A' for Active; 'I' for Inactive)
REMARK    1  A    between atoms: C_1  and  C_2
REMARK    2  A    between atoms: C_4  and  C_21
REMARK    3  A    between atoms: C_5  and  O_8
REMARK    4  A    between atoms: O_8  and  C_9
REMARK    5  A    between atoms: C_9  and  C_10
REMARK                            x       y       z     vdW  Elec       q    Type
REMARK                         _______ _______ _______ _____ _____    ______ ____
ROOT
ATOM      1  C   UNL     1      88.025  68.380  85.832  0.00  0.00    +0.000 A 
ATOM      2  C   UNL     1      89.316  67.866  85.683  0.00  0.00    +0.000 A 
ATOM      3  C   UNL     1      89.694  66.681  86.309  0.00  0.00    +0.000 A 
ATOM      4  C   UNL     1      88.781  65.988  87.090  0.00  0.00    +0.000 A 
ATOM      5  C   UNL     1      87.492  66.478  87.246  0.00  0.00    +0.000 A 
ATOM      6  C   UNL     1      87.119  67.664  86.617  0.00  0.00    +0.000 A 
ATOM      7  F   UNL     1      85.871  68.127  86.780  0.00  0.00    +0.000 F 
ATOM      8  F   UNL     1      86.608  65.815  88.003  0.00  0.00    +0.000 F 
ATOM      9  F   UNL     1      89.143  64.849  87.697  0.00  0.00    +0.000 F 
ATOM     10  F   UNL     1      90.940  66.212  86.159  0.00  0.00    +0.000 F 
ATOM     11  F   UNL     1      90.210  68.525  84.933  0.00  0.00    +0.000 F 
ENDROOT
BRANCH   1  12
ATOM     12  C   UNL     1      87.607  69.629  85.115  0.00  0.00    +0.000 C 
BRANCH  12  13
ATOM     13  O   UNL     1      87.750  70.708  86.032  0.00  0.00    +0.000 OA
BRANCH  13  18
ATOM     14  C   UNL     1      83.109  73.050  88.336  0.00  0.00    +0.000 C 
ATOM     15  C   UNL     1      84.328  72.435  87.712  0.00  0.00    +0.000 A 
ATOM     16  C   UNL     1      85.346  71.893  88.502  0.00  0.00    +0.000 A 
ATOM     17  C   UNL     1      86.487  71.320  87.915  0.00  0.00    +0.000 A 
ATOM     18  C   UNL     1      86.607  71.288  86.515  0.00  0.00    +0.000 A 
ATOM     19  C   UNL     1      85.589  71.832  85.726  0.00  0.00    +0.000 A 
ATOM     20  C   UNL     1      84.459  72.401  86.322  0.00  0.00    +0.000 A 
ATOM     21  C   UNL     1      87.565  70.744  88.792  0.00  0.00    +0.000 C 
ENDBRANCH  13  18
ENDBRANCH  12  13
ENDBRANCH   1  12
TORSDOF 3
ENDMDL
