MODEL 1
REMARK VINA RESULT:      -4.1      0.000      0.000
REMARK  Name = *****
REMARK  4 active torsions:
REMARK  status: ('A' for Active; 'I' for Inactive)
REMARK    1  A    between atoms: C_1  and  N_2
REMARK    2  A    between atoms: N_2  and  C_3
REMARK    3  A    between atoms: N_2  and  C_10
REMARK    4  A    between atoms: C_3  and  C_4
REMARK                            x       y       z     vdW  Elec       q    Type
REMARK                         _______ _______ _______ _____ _____    ______ ____
ROOT
ATOM      1  C   UNL     1     103.718 127.754  83.502  0.00  0.00    +0.000 C 
ATOM      2  N   UNL     1     102.582 126.879  83.227  0.00  0.00    +0.000 N 
ENDROOT
BRANCH   2   3
ATOM      3  C   UNL     1     101.297 127.411  83.123  0.00  0.00    +0.000 A 
ATOM      4  C   UNL     1     100.971 128.690  83.609  0.00  0.00    +0.000 A 
ATOM      5  C   UNL     1      99.678 129.225  83.513  0.00  0.00    +0.000 A 
ATOM      6  C   UNL     1      98.660 128.488  82.926  0.00  0.00    +0.000 A 
ATOM      7  C   UNL     1      98.938 127.217  82.442  0.00  0.00    +0.000 A 
ATOM      8  C   UNL     1     100.235 126.693  82.545  0.00  0.00    +0.000 A 
ENDBRANCH   2   3
BRANCH   2   9
ATOM      9  C   UNL     1     102.806 125.438  83.413  0.00  0.00    +0.000 C 
BRANCH   9  10
ATOM     10  C   UNL     1     103.944 124.915  82.511  0.00  0.00    +0.000 C 
ATOM     11  C   UNL     1     103.528 125.028  81.035  0.00  0.00    +0.000 C 
ATOM     12  C   UNL     1     104.601 124.484  80.095  0.00  0.00    +0.000 C 
ATOM     13  C   UNL     1     104.976 123.049  80.442  0.00  0.00    +0.000 C 
ATOM     14  C   UNL     1     105.397 122.922  81.903  0.00  0.00    +0.000 C 
ATOM     15  C   UNL     1     104.328 123.464  82.849  0.00  0.00    +0.000 C 
ENDBRANCH   9  10
ENDBRANCH   2   9
TORSDOF 3
ENDMDL
