MODEL 1
REMARK VINA RESULT:      -4.7      0.000      0.000
REMARK  Name = *****
REMARK  3 active torsions:
REMARK  status: ('A' for Active; 'I' for Inactive)
REMARK    1  A    between atoms: C_3  and  N_8
REMARK    2  A    between atoms: N_8  and  C_9
REMARK    3  A    between atoms: C_9  and  C_10
REMARK                            x       y       z     vdW  Elec       q    Type
REMARK                         _______ _______ _______ _____ _____    ______ ____
ROOT
ATOM      1  N   UNL     1      88.848  70.084  86.522  0.00  0.00    +0.000 N 
ATOM      2  O   UNL     1      89.718  70.799  87.115  0.00  0.00    +0.000 OA
ENDROOT
BRANCH   1   5
ATOM      3  C   UNL     1      87.994  66.545  87.443  0.00  0.00    +0.000 A 
ATOM      4  C   UNL     1      87.910  67.934  87.338  0.00  0.00    +0.000 A 
ATOM      5  C   UNL     1      88.916  68.636  86.661  0.00  0.00    +0.000 A 
ATOM      6  C   UNL     1      89.986  67.958  86.066  0.00  0.00    +0.000 A 
ATOM      7  C   UNL     1      90.057  66.571  86.178  0.00  0.00    +0.000 A 
ATOM      8  C   UNL     1      89.068  65.864  86.867  0.00  0.00    +0.000 A 
ATOM      9 CL   UNL     1      91.370  65.721  85.464  0.00  0.00    +0.000 Cl
ENDBRANCH   1   5
BRANCH   1  10
ATOM     10  C   UNL     1      87.848  70.576  85.826  0.00  0.00    +0.000 C 
BRANCH  10  11
ATOM     11  C   UNL     1      86.635  71.205  86.376  0.00  0.00    +0.000 A 
ATOM     12  C   UNL     1      86.350  71.313  87.740  0.00  0.00    +0.000 A 
ATOM     13  C   UNL     1      85.180  71.953  88.165  0.00  0.00    +0.000 A 
ATOM     14  C   UNL     1      84.301  72.490  87.228  0.00  0.00    +0.000 A 
ATOM     15  C   UNL     1      84.582  72.399  85.867  0.00  0.00    +0.000 A 
ATOM     16  C   UNL     1      85.750  71.760  85.442  0.00  0.00    +0.000 A 
ATOM     17 CL   UNL     1      82.865  73.277  87.753  0.00  0.00    +0.000 Cl
ENDBRANCH  10  11
ENDBRANCH   1  10
TORSDOF 3
ENDMDL
