REMARK  Name = *****
REMARK  3 active torsions:
REMARK  status: ('A' for Active; 'I' for Inactive)
REMARK    1  A    between atoms: C_3  and  C_7
REMARK    2  A    between atoms: C_7  and  C_8
REMARK    3  A    between atoms: C_9  and  C_10
REMARK                            x       y       z     vdW  Elec       q    Type
REMARK                         _______ _______ _______ _____ _____    ______ ____
ROOT
ATOM      1  C   UNL     1       2.819  -2.628  -0.135  0.00  0.00    +0.000 C 
ATOM      2  C   UNL     1       3.249  -3.660  -0.877  0.00  0.00    +0.000 C 
ENDROOT
BRANCH   2   3
ATOM      3  C   UNL     1       4.652  -3.883  -1.256  0.00  0.00    +0.000 A 
ATOM      4  C   UNL     1       5.717  -3.593  -0.394  0.00  0.00    +0.000 A 
ATOM      5  C   UNL     1       7.036  -3.849  -0.780  0.00  0.00    +0.000 A 
ATOM      6  C   UNL     1       7.302  -4.408  -2.029  0.00  0.00    +0.000 A 
ATOM      7  C   UNL     1       6.251  -4.715  -2.889  0.00  0.00    +0.000 A 
ATOM      8  C   UNL     1       4.932  -4.459  -2.502  0.00  0.00    +0.000 A 
ENDBRANCH   2   3
BRANCH   1   9
ATOM      9  C   UNL     1       1.376  -2.412   0.235  0.00  0.00    +0.000 C 
BRANCH   9  12
ATOM     10  C   UNL     1      -1.175   0.199  -0.773  0.00  0.00    +0.000 C 
ATOM     11  C   UNL     1      -0.590  -0.796   0.236  0.00  0.00    +0.000 C 
ATOM     12  C   UNL     1       0.844  -1.065  -0.266  0.00  0.00    +0.000 C 
ATOM     13  C   UNL     1       0.698  -0.983  -1.772  0.00  0.00    +0.000 C 
ATOM     14  C   UNL     1      -0.542  -0.194  -2.077  0.00  0.00    +0.000 C 
ATOM     15  C   UNL     1       0.803   0.334  -2.493  0.00  0.00    +0.000 C 
ENDBRANCH   9  12
ENDBRANCH   1   9
TORSDOF 3
