REMARK  Name = *****
REMARK  2 active torsions:
REMARK  status: ('A' for Active; 'I' for Inactive)
REMARK    1  A    between atoms: C_1  and  C_2
REMARK    2  A    between atoms: N_10  and  C_11
REMARK                            x       y       z     vdW  Elec       q    Type
REMARK                         _______ _______ _______ _____ _____    ______ ____
ROOT
ATOM      1  C   UNL     1       1.920   0.323   1.339  0.00  0.00    +0.000 C 
ATOM      2  C   UNL     1       2.295  -0.094  -0.098  0.00  0.00    +0.000 C 
ATOM      3  C   UNL     1       1.035  -0.262  -0.952  0.00  0.00    +0.000 C 
ATOM      4  C   UNL     1       0.236  -1.501  -0.510  0.00  0.00    +0.000 C 
ATOM      5  C   UNL     1       1.088  -2.777  -0.381  0.00  0.00    +0.000 C 
ATOM      6  C   UNL     1       2.423  -2.572   0.355  0.00  0.00    +0.000 C 
ATOM      7  C   UNL     1       3.118  -1.365  -0.242  0.00  0.00    +0.000 C 
ATOM      8  C   UNL     1       4.466  -0.925   0.269  0.00  0.00    +0.000 C 
ATOM      9  C   UNL     1       4.475   0.493  -0.252  0.00  0.00    +0.000 C 
ATOM     10  N   UNL     1       5.458   1.303  -0.388  0.00  0.00    +0.000 NA
ATOM     11  O   UNL     1       3.205   0.892  -0.596  0.00  0.00    +0.000 OA
ENDROOT
BRANCH  10  12
ATOM     12  C   UNL     1       6.800   0.869   0.008  0.00  0.00    +0.000 C 
ATOM     13  C   UNL     1       7.520   2.060   0.656  0.00  0.00    +0.000 C 
ATOM     14  C   UNL     1       7.867   3.163  -0.343  0.00  0.00    +0.000 C 
ATOM     15  C   UNL     1       8.648   2.618  -1.534  0.00  0.00    +0.000 C 
ATOM     16  C   UNL     1       7.904   1.473  -2.213  0.00  0.00    +0.000 C 
ATOM     17  C   UNL     1       7.558   0.360  -1.224  0.00  0.00    +0.000 C 
ENDBRANCH  10  12
TORSDOF 1
