MODEL 1
REMARK VINA RESULT:      -4.7      0.000      0.000
REMARK  Name = *****
REMARK  4 active torsions:
REMARK  status: ('A' for Active; 'I' for Inactive)
REMARK    1  A    between atoms: C_1  and  C_2
REMARK    2  A    between atoms: C_5  and  C_8
REMARK    3  A    between atoms: C_9  and  C_10
REMARK    4  A    between atoms: C_13  and  C_15
REMARK                            x       y       z     vdW  Elec       q    Type
REMARK                         _______ _______ _______ _____ _____    ______ ____
ROOT
ATOM      1  C   UNL     1     102.201 125.919  82.013  0.00  0.00    +0.000 C 
ATOM      2  C   UNL     1     103.300 126.130  81.272  0.00  0.00    +0.000 C 
ENDROOT
BRANCH   1   7
ATOM      3  C   UNL     1      99.007 130.166  84.310  0.00  0.00    +0.000 C 
ATOM      4  C   UNL     1      99.824 129.076  83.681  0.00  0.00    +0.000 A 
ATOM      5  C   UNL     1      99.202 127.979  83.075  0.00  0.00    +0.000 A 
ATOM      6  C   UNL     1      99.965 126.949  82.518  0.00  0.00    +0.000 A 
ATOM      7  C   UNL     1     101.364 126.996  82.558  0.00  0.00    +0.000 A 
ATOM      8  C   UNL     1     101.983 128.078  83.193  0.00  0.00    +0.000 A 
ATOM      9  C   UNL     1     101.221 129.111  83.750  0.00  0.00    +0.000 A 
ENDBRANCH   1   7
BRANCH   2  10
ATOM     10  C   UNL     1     104.076 125.043  80.783  0.00  0.00    +0.000 A 
ATOM     11  C   UNL     1     105.008 125.042  79.750  0.00  0.00    +0.000 A 
ATOM     12  C   UNL     1     105.523 123.730  79.625  0.00  0.00    +0.000 A 
ATOM     13  C   UNL     1     104.886 122.981  80.583  0.00  0.00    +0.000 A 
ATOM     14  O   UNL     1     104.017 123.760  81.281  0.00  0.00    +0.000 OA
ATOM     15  C   UNL     1     104.956 121.563  80.985  0.00  0.00    +0.000 C 
ENDBRANCH   2  10
TORSDOF 2
ENDMDL
