MODEL 1
REMARK VINA RESULT:      -4.9      0.000      0.000
REMARK  Name = *****
REMARK  5 active torsions:
REMARK  status: ('A' for Active; 'I' for Inactive)
REMARK    1  A    between atoms: C_1  and  C_2
REMARK    2  A    between atoms: C_4  and  C_8
REMARK    3  A    between atoms: C_9  and  C_10
REMARK    4  A    between atoms: C_11  and  C_17
REMARK    5  A    between atoms: C_15  and  C_16
REMARK                            x       y       z     vdW  Elec       q    Type
REMARK                         _______ _______ _______ _____ _____    ______ ____
ROOT
ATOM      1  C   UNL     1     103.015 126.481  81.758  0.00  0.00    +0.000 C 
ATOM      2  C   UNL     1     102.290 127.224  82.363  0.00  0.00    +0.000 C 
ENDROOT
BRANCH   2   3
ATOM      3  C   UNL     1     101.431 128.103  83.109  0.00  0.00    +0.000 A 
ATOM      4  C   UNL     1     100.039 127.880  83.135  0.00  0.00    +0.000 A 
ATOM      5  C   UNL     1      99.219 128.764  83.854  0.00  0.00    +0.000 A 
ATOM      6  C   UNL     1      99.769 129.833  84.557  0.00  0.00    +0.000 A 
ATOM      7  C   UNL     1     101.145 130.043  84.542  0.00  0.00    +0.000 A 
ATOM      8  C   UNL     1     101.991 129.186  83.820  0.00  0.00    +0.000 A 
ATOM      9  C   UNL     1     103.473 129.450  83.821  0.00  0.00    +0.000 C 
ATOM     10  C   UNL     1      99.388 126.763  82.364  0.00  0.00    +0.000 C 
ENDBRANCH   2   3
BRANCH   1  14
ATOM     11  C   UNL     1     104.768 121.881  81.058  0.00  0.00    +0.000 C 
ATOM     12  C   UNL     1     104.758 123.343  80.722  0.00  0.00    +0.000 A 
ATOM     13  C   UNL     1     103.899 124.226  81.390  0.00  0.00    +0.000 A 
ATOM     14  C   UNL     1     103.880 125.584  81.057  0.00  0.00    +0.000 A 
ATOM     15  C   UNL     1     104.713 126.065  80.046  0.00  0.00    +0.000 A 
ATOM     16  C   UNL     1     105.562 125.189  79.367  0.00  0.00    +0.000 A 
ATOM     17  C   UNL     1     105.581 123.835  79.701  0.00  0.00    +0.000 A 
ENDBRANCH   1  14
TORSDOF 2
ENDMDL
