MODEL 1
REMARK VINA RESULT:      -4.5      0.000      0.000
REMARK  Name = *****
REMARK  4 active torsions:
REMARK  status: ('A' for Active; 'I' for Inactive)
REMARK    1  A    between atoms: C_4  and  N_7
REMARK    2  A    between atoms: N_7  and  C_8
REMARK    3  A    between atoms: C_8  and  C_9
REMARK    4  A    between atoms: C_14  and  C_15
REMARK                            x       y       z     vdW  Elec       q    Type
REMARK                         _______ _______ _______ _____ _____    ______ ____
ROOT
ATOM      1  C   UNL     1      86.875  71.249  86.374  0.00  0.00    +0.000 A 
ATOM      2  C   UNL     1      85.717  71.784  85.797  0.00  0.00    +0.000 A 
ATOM      3  C   UNL     1      84.672  72.237  86.603  0.00  0.00    +0.000 A 
ATOM      4  C   UNL     1      84.771  72.148  87.988  0.00  0.00    +0.000 A 
ATOM      5  C   UNL     1      85.917  71.605  88.569  0.00  0.00    +0.000 A 
ATOM      6  C   UNL     1      86.985  71.147  87.773  0.00  0.00    +0.000 A 
ENDROOT
BRANCH   6   7
ATOM      7  C   UNL     1      88.206  70.565  88.435  0.00  0.00    +0.000 C 
ATOM      8  F   UNL     1      88.176  69.204  88.520  0.00  0.00    +0.000 F 
ATOM      9  F   UNL     1      89.371  70.863  87.792  0.00  0.00    +0.000 F 
ATOM     10  F   UNL     1      88.368  71.012  89.712  0.00  0.00    +0.000 F 
ENDBRANCH   6   7
BRANCH   1  11
ATOM     11  C   UNL     1      87.952  70.719  85.518  0.00  0.00    +0.000 C 
BRANCH  11  12
ATOM     12  N   UNL     1      87.870  69.604  84.825  0.00  0.00    +0.000 N 
ATOM     13  O   UNL     1      87.387  69.553  83.646  0.00  0.00    +0.000 OA
BRANCH  12  17
ATOM     14  C   UNL     1      89.315  66.078  86.681  0.00  0.00    +0.000 A 
ATOM     15  C   UNL     1      90.205  67.070  86.266  0.00  0.00    +0.000 A 
ATOM     16  C   UNL     1      89.724  68.229  85.655  0.00  0.00    +0.000 A 
ATOM     17  C   UNL     1      88.347  68.382  85.454  0.00  0.00    +0.000 A 
ATOM     18  C   UNL     1      87.450  67.398  85.887  0.00  0.00    +0.000 A 
ATOM     19  C   UNL     1      87.941  66.243  86.496  0.00  0.00    +0.000 A 
ENDBRANCH  12  17
ENDBRANCH  11  12
ENDBRANCH   1  11
TORSDOF 4
ENDMDL
