MODEL 1
REMARK VINA RESULT:      -5.0      0.000      0.000
REMARK  Name = *****
REMARK  2 active torsions:
REMARK  status: ('A' for Active; 'I' for Inactive)
REMARK    1  A    between atoms: C_5  and  C_7
REMARK    2  A    between atoms: C_8  and  C_9
REMARK                            x       y       z     vdW  Elec       q    Type
REMARK                         _______ _______ _______ _____ _____    ______ ____
ROOT
ATOM      1  C   UNL     1     101.986 126.324  82.327  0.00  0.00    +0.000 C 
ATOM      2  C   UNL     1     102.814 125.528  81.979  0.00  0.00    +0.000 C 
ENDROOT
BRANCH   1   7
ATOM      3  C   UNL     1     100.437 129.354  83.854  0.00  0.00    +0.000 A 
ATOM      4  C   UNL     1      99.085 129.140  83.576  0.00  0.00    +0.000 A 
ATOM      5  C   UNL     1      98.692 127.995  82.884  0.00  0.00    +0.000 A 
ATOM      6  C   UNL     1      99.650 127.072  82.474  0.00  0.00    +0.000 A 
ATOM      7  C   UNL     1     101.003 127.276  82.747  0.00  0.00    +0.000 A 
ATOM      8  C   UNL     1     101.396 128.424  83.441  0.00  0.00    +0.000 A 
ATOM      9  F   UNL     1      99.246 125.977  81.810  0.00  0.00    +0.000 F 
ENDBRANCH   1   7
BRANCH   2  10
ATOM     10  C   UNL     1     103.807 124.582  81.575  0.00  0.00    +0.000 A 
ATOM     11  C   UNL     1     104.260 123.616  82.481  0.00  0.00    +0.000 A 
ATOM     12  C   UNL     1     105.232 122.692  82.089  0.00  0.00    +0.000 A 
ATOM     13  C   UNL     1     105.741 122.743  80.796  0.00  0.00    +0.000 A 
ATOM     14  C   UNL     1     105.299 123.698  79.886  0.00  0.00    +0.000 A 
ATOM     15  C   UNL     1     104.327 124.622  80.277  0.00  0.00    +0.000 A 
ATOM     16  F   UNL     1     106.673 121.857  80.419  0.00  0.00    +0.000 F 
ENDBRANCH   2  10
TORSDOF 2
ENDMDL
