MODEL 1
REMARK VINA RESULT:      -5.1      0.000      0.000
REMARK  Name = *****
REMARK  4 active torsions:
REMARK  status: ('A' for Active; 'I' for Inactive)
REMARK    1  A    between atoms: C_1  and  C_2
REMARK    2  A    between atoms: C_2  and  N_3
REMARK    3  A    between atoms: C_10  and  C_18
REMARK    4  A    between atoms: N_11  and  C_12
REMARK                            x       y       z     vdW  Elec       q    Type
REMARK                         _______ _______ _______ _____ _____    ______ ____
ROOT
ATOM      1  N   UNL     1     103.014 126.493  81.274  0.00  0.00    +0.000 N 
ATOM      2  C   UNL     1     103.659 125.249  81.336  0.00  0.00    +0.000 A 
ATOM      3  C   UNL     1     104.255 124.512  80.330  0.00  0.00    +0.000 A 
ATOM      4  C   UNL     1     104.819 123.272  80.648  0.00  0.00    +0.000 A 
ATOM      5  C   UNL     1     104.782 122.784  81.964  0.00  0.00    +0.000 A 
ATOM      6  C   UNL     1     104.184 123.531  82.979  0.00  0.00    +0.000 A 
ATOM      7  C   UNL     1     103.633 124.761  82.649  0.00  0.00    +0.000 A 
ATOM      8  C   UNL     1     102.965 125.784  83.540  0.00  0.00    +0.000 C 
ATOM      9  N   UNL     1     102.616 126.889  82.571  0.00  0.00    +0.000 N 
ATOM     10  C   UNL     1     103.928 126.298  84.605  0.00  0.00    +0.000 C 
ENDROOT
BRANCH   9  11
ATOM     11  C   UNL     1     101.292 127.368  82.784  0.00  0.00    +0.000 A 
ATOM     12  C   UNL     1     100.194 126.618  82.338  0.00  0.00    +0.000 A 
ATOM     13  C   UNL     1      98.886 127.068  82.538  0.00  0.00    +0.000 A 
ATOM     14  C   UNL     1      98.658 128.277  83.193  0.00  0.00    +0.000 A 
ATOM     15  C   UNL     1      99.735 129.030  83.651  0.00  0.00    +0.000 A 
ATOM     16  C   UNL     1     101.042 128.576  83.450  0.00  0.00    +0.000 A 
ENDBRANCH   9  11
BRANCH   1  18
ATOM     17  C   UNL     1     104.447 128.481  81.183  0.00  0.00    +0.000 C 
ATOM     18  C   UNL     1     103.578 127.518  80.390  0.00  0.00    +0.000 C 
ENDBRANCH   1  18
TORSDOF 2
ENDMDL
