MODEL 1
REMARK VINA RESULT:      -4.7      0.000      0.000
REMARK  Name = *****
REMARK  3 active torsions:
REMARK  status: ('A' for Active; 'I' for Inactive)
REMARK    1  A    between atoms: C_4  and  C_15
REMARK    2  A    between atoms: C_6  and  C_7
REMARK    3  A    between atoms: C_8  and  C_9
REMARK                            x       y       z     vdW  Elec       q    Type
REMARK                         _______ _______ _______ _____ _____    ______ ____
ROOT
ATOM      1  C   UNL     1      90.475  70.221  83.701  0.00  0.00    +0.000 C 
ATOM      2  C   UNL     1      89.691  69.245  82.860  0.00  0.00    +0.000 C 
ATOM      3  O   UNL     1      89.697  67.938  83.446  0.00  0.00    +0.000 OA
ATOM      4  C   UNL     1      89.774  67.808  84.797  0.00  0.00    +0.000 C 
ATOM      5  N   UNL     1      89.903  68.797  85.617  0.00  0.00    +0.000 NA
ATOM      6  C   UNL     1      89.970  70.167  85.132  0.00  0.00    +0.000 C 
ENDROOT
BRANCH   4   7
ATOM      7  C   UNL     1      89.708  66.350  85.292  0.00  0.00    +0.000 C 
ATOM      8 CL   UNL     1      88.774  65.291  84.196  0.00  0.00    +0.000 Cl
ATOM      9 CL   UNL     1      91.377  65.722  85.413  0.00  0.00    +0.000 Cl
ATOM     10 CL   UNL     1      88.928  66.333  86.901  0.00  0.00    +0.000 Cl
ENDBRANCH   4   7
BRANCH   6  11
ATOM     11  C   UNL     1      88.614  70.797  85.317  0.00  0.00    +0.000 C 
ATOM     12  C   UNL     1      87.904  70.721  86.456  0.00  0.00    +0.000 C 
BRANCH  12  13
ATOM     13  C   UNL     1      86.572  71.314  86.654  0.00  0.00    +0.000 A 
ATOM     14  C   UNL     1      86.024  71.535  87.925  0.00  0.00    +0.000 A 
ATOM     15  C   UNL     1      84.768  72.130  88.067  0.00  0.00    +0.000 A 
ATOM     16  C   UNL     1      84.049  72.522  86.941  0.00  0.00    +0.000 A 
ATOM     17  C   UNL     1      84.588  72.326  85.672  0.00  0.00    +0.000 A 
ATOM     18  C   UNL     1      85.843  71.729  85.530  0.00  0.00    +0.000 A 
ENDBRANCH  12  13
ENDBRANCH   6  11
TORSDOF 3
ENDMDL
