MODEL 1
REMARK VINA RESULT:      -4.8      0.000      0.000
REMARK  Name = *****
REMARK  3 active torsions:
REMARK  status: ('A' for Active; 'I' for Inactive)
REMARK    1  A    between atoms: C_3  and  C_8
REMARK    2  A    between atoms: C_9  and  C_10
REMARK    3  A    between atoms: C_13  and  C_16
REMARK                            x       y       z     vdW  Elec       q    Type
REMARK                         _______ _______ _______ _____ _____    ______ ____
ROOT
ATOM      1  C   UNL     1     101.959 126.118  82.318  0.00  0.00    +0.000 C 
ATOM      2  C   UNL     1     102.834 125.346  82.035  0.00  0.00    +0.000 C 
ENDROOT
BRANCH   1   5
ATOM      3  C   UNL     1      98.601 127.701  82.677  0.00  0.00    +0.000 A 
ATOM      4  C   UNL     1      99.600 126.782  82.349  0.00  0.00    +0.000 A 
ATOM      5  C   UNL     1     100.934 127.053  82.667  0.00  0.00    +0.000 A 
ATOM      6  C   UNL     1     101.269 128.245  83.314  0.00  0.00    +0.000 A 
ATOM      7  C   UNL     1     100.267 129.158  83.638  0.00  0.00    +0.000 A 
ATOM      8  C   UNL     1      98.935 128.892  83.321  0.00  0.00    +0.000 A 
ATOM      9 CL   UNL     1     100.678 130.628  84.432  0.00  0.00    +0.000 Cl
ENDBRANCH   1   5
BRANCH   2  10
ATOM     10  C   UNL     1     103.893 124.441  81.712  0.00  0.00    +0.000 A 
ATOM     11  C   UNL     1     104.432 123.613  82.700  0.00  0.00    +0.000 A 
ATOM     12  C   UNL     1     105.483 122.744  82.390  0.00  0.00    +0.000 A 
ATOM     13  C   UNL     1     105.997 122.702  81.090  0.00  0.00    +0.000 A 
ATOM     14  C   UNL     1     105.453 123.528  80.101  0.00  0.00    +0.000 A 
ATOM     15  C   UNL     1     104.402 124.396  80.413  0.00  0.00    +0.000 A 
BRANCH  13  16
ATOM     16  C   UNL     1     107.082 121.819  80.773  0.00  0.00    +0.000 C 
ATOM     17  N   UNL     1     107.961 121.105  80.516  0.00  0.00    +0.000 NA
ENDBRANCH  13  16
ENDBRANCH   2  10
TORSDOF 3
ENDMDL
