MODEL 1
REMARK VINA RESULT:      -4.7      0.000      0.000
REMARK  Name = *****
REMARK  4 active torsions:
REMARK  status: ('A' for Active; 'I' for Inactive)
REMARK    1  A    between atoms: C_1  and  C_2
REMARK    2  A    between atoms: C_2  and  C_3
REMARK    3  A    between atoms: C_2  and  C_11
REMARK    4  A    between atoms: C_4  and  C_5
REMARK                            x       y       z     vdW  Elec       q    Type
REMARK                         _______ _______ _______ _____ _____    ______ ____
ROOT
ATOM      1  C   UNL     1      86.048  67.697  89.246  0.00  0.00    +0.000 C 
ATOM      2  C   UNL     1      86.808  68.595  88.261  0.00  0.00    +0.000 C 
ENDROOT
BRANCH   2   3
ATOM      3  C   UNL     1      87.923  67.860  87.531  0.00  0.00    +0.000 A 
ATOM      4  C   UNL     1      88.915  68.600  86.865  0.00  0.00    +0.000 A 
ATOM      5  C   UNL     1      89.960  67.959  86.199  0.00  0.00    +0.000 A 
ATOM      6  C   UNL     1      90.036  66.569  86.195  0.00  0.00    +0.000 A 
ATOM      7  C   UNL     1      89.068  65.819  86.861  0.00  0.00    +0.000 A 
ATOM      8  C   UNL     1      88.021  66.459  87.528  0.00  0.00    +0.000 A 
ENDBRANCH   2   3
BRANCH   2   9
ATOM      9  C   UNL     1      87.343  69.817  88.980  0.00  0.00    +0.000 C 
ATOM     10  C   UNL     1      87.053  71.103  88.721  0.00  0.00    +0.000 C 
BRANCH  10  11
ATOM     11  C   UNL     1      86.151  71.552  87.663  0.00  0.00    +0.000 A 
ATOM     12  C   UNL     1      84.896  72.082  87.983  0.00  0.00    +0.000 A 
ATOM     13  C   UNL     1      84.032  72.496  86.968  0.00  0.00    +0.000 A 
ATOM     14  C   UNL     1      84.416  72.381  85.632  0.00  0.00    +0.000 A 
ATOM     15  C   UNL     1      85.665  71.852  85.309  0.00  0.00    +0.000 A 
ATOM     16  C   UNL     1      86.532  71.438  86.322  0.00  0.00    +0.000 A 
ENDBRANCH  10  11
ENDBRANCH   2   9
TORSDOF 3
ENDMDL
