MODEL 1
REMARK VINA RESULT:      -5.1      0.000      0.000
REMARK  Name = *****
REMARK  4 active torsions:
REMARK  status: ('A' for Active; 'I' for Inactive)
REMARK    1  A    between atoms: C_1  and  C_2
REMARK    2  A    between atoms: C_5  and  C_8
REMARK    3  A    between atoms: C_9  and  C_10
REMARK    4  A    between atoms: C_9  and  C_12
REMARK                            x       y       z     vdW  Elec       q    Type
REMARK                         _______ _______ _______ _____ _____    ______ ____
ROOT
ATOM      1  C   UNL     1     101.618 127.822  83.258  0.00  0.00    +0.000 C 
ATOM      2  C   UNL     1     100.272 127.904  83.286  0.00  0.00    +0.000 C 
ENDROOT
BRANCH   1   7
ATOM      3  C   UNL     1     104.725 123.908  80.366  0.00  0.00    +0.000 C 
ATOM      4  C   UNL     1     103.897 124.917  81.107  0.00  0.00    +0.000 A 
ATOM      5  C   UNL     1     103.577 126.144  80.515  0.00  0.00    +0.000 A 
ATOM      6  C   UNL     1     102.833 127.096  81.217  0.00  0.00    +0.000 A 
ATOM      7  C   UNL     1     102.409 126.833  82.522  0.00  0.00    +0.000 A 
ATOM      8  C   UNL     1     102.741 125.617  83.124  0.00  0.00    +0.000 A 
ATOM      9  C   UNL     1     103.485 124.666  82.421  0.00  0.00    +0.000 A 
ENDBRANCH   1   7
BRANCH   2  10
ATOM     10  C   UNL     1      99.642 128.974  84.091  0.00  0.00    +0.000 A 
ATOM     11  C   UNL     1      99.882 130.328  83.806  0.00  0.00    +0.000 A 
ATOM     12  C   UNL     1      99.292 131.334  84.576  0.00  0.00    +0.000 A 
ATOM     13  C   UNL     1      98.453 130.999  85.637  0.00  0.00    +0.000 A 
ATOM     14  C   UNL     1      98.200 129.660  85.925  0.00  0.00    +0.000 A 
ATOM     15  C   UNL     1      98.790 128.653  85.156  0.00  0.00    +0.000 A 
ENDBRANCH   2  10
BRANCH   2  16
ATOM     16  C   UNL     1      99.430 126.908  82.551  0.00  0.00    +0.000 C 
ATOM     17  O   UNL     1      98.370 127.192  82.002  0.00  0.00    +0.000 OA
ENDBRANCH   2  16
TORSDOF 3
ENDMDL
