REMARK  Name = *****
REMARK  5 active torsions:
REMARK  status: ('A' for Active; 'I' for Inactive)
REMARK    1  A    between atoms: C_1  and  C_2
REMARK    2  A    between atoms: C_5  and  S_8
REMARK    3  A    between atoms: S_8  and  O_10
REMARK    4  A    between atoms: O_10  and  C_11
REMARK    5  A    between atoms: C_16  and  C_18
REMARK                            x       y       z     vdW  Elec       q    Type
REMARK                         _______ _______ _______ _____ _____    ______ ____
ROOT
ATOM      1  S   UNL     1      -5.170  -1.067  -0.258  0.00  0.00    +0.000 S 
ATOM      2  O   UNL     1      -5.541  -1.039  -1.711  0.00  0.00    +0.000 OA
ENDROOT
BRANCH   1   7
ATOM      3  C   UNL     1      -8.754  -5.253   2.413  0.00  0.00    +0.000 C 
ATOM      4  C   UNL     1      -7.862  -4.245   1.751  0.00  0.00    +0.000 A 
ATOM      5  C   UNL     1      -7.030  -3.424   2.522  0.00  0.00    +0.000 A 
ATOM      6  C   UNL     1      -6.222  -2.462   1.910  0.00  0.00    +0.000 A 
ATOM      7  C   UNL     1      -6.247  -2.297   0.520  0.00  0.00    +0.000 A 
ATOM      8  C   UNL     1      -7.086  -3.108  -0.250  0.00  0.00    +0.000 A 
ATOM      9  C   UNL     1      -7.894  -4.070   0.363  0.00  0.00    +0.000 A 
ENDBRANCH   1   7
BRANCH   1  10
ATOM     10  O   UNL     1      -5.918   0.166   0.462  0.00  0.00    +0.000 OA
BRANCH  10  11
ATOM     11  C   UNL     1      -5.643   1.454  -0.083  0.00  0.00    +0.000 C 
ATOM     12  C   UNL     1      -6.714   1.833  -1.127  0.00  0.00    +0.000 C 
ATOM     13  C   UNL     1      -7.362   3.092  -0.527  0.00  0.00    +0.000 C 
ATOM     14  C   UNL     1      -6.361   4.255  -0.607  0.00  0.00    +0.000 C 
ATOM     15  C   UNL     1      -5.317   3.887   0.457  0.00  0.00    +0.000 C 
ATOM     16  C   UNL     1      -5.842   2.543   1.010  0.00  0.00    +0.000 C 
ATOM     17  C   UNL     1      -7.359   2.769   0.966  0.00  0.00    +0.000 C 
ATOM     18  C   UNL     1      -5.291   2.195   2.379  0.00  0.00    +0.000 C 
ENDBRANCH  10  11
ENDBRANCH   1  10
TORSDOF 3
