MODEL 1
REMARK VINA RESULT:      -4.3      0.000      0.000
REMARK  Name = *****
REMARK  3 active torsions:
REMARK  status: ('A' for Active; 'I' for Inactive)
REMARK    1  A    between atoms: C_4  and  P_7
REMARK    2  A    between atoms: P_7  and  S_8
REMARK    3  A    between atoms: S_8  and  C_9
REMARK                            x       y       z     vdW  Elec       q    Type
REMARK                         _______ _______ _______ _____ _____    ______ ____
ROOT
ATOM      1  P   UNL     1     103.319 126.956  81.118  0.00  0.00    +0.000 P 
ATOM      2 CL   UNL     1     105.133 127.927  80.672  0.00  0.00    +0.000 Cl
ENDROOT
BRANCH   1   6
ATOM      3  C   UNL     1     104.773 122.589  81.852  0.00  0.00    +0.000 A 
ATOM      4  C   UNL     1     104.835 123.143  80.577  0.00  0.00    +0.000 A 
ATOM      5  C   UNL     1     104.391 124.451  80.357  0.00  0.00    +0.000 A 
ATOM      6  C   UNL     1     103.859 125.224  81.403  0.00  0.00    +0.000 A 
ATOM      7  C   UNL     1     103.829 124.653  82.686  0.00  0.00    +0.000 A 
ATOM      8  C   UNL     1     104.274 123.345  82.907  0.00  0.00    +0.000 A 
ENDBRANCH   1   6
BRANCH   1   9
ATOM      9  S   UNL     1     103.000 127.704  83.072  0.00  0.00    +0.000 S 
BRANCH   9  10
ATOM     10  C   UNL     1     101.220 127.767  83.037  0.00  0.00    +0.000 A 
ATOM     11  C   UNL     1     100.541 128.873  83.565  0.00  0.00    +0.000 A 
ATOM     12  C   UNL     1      99.147 128.928  83.525  0.00  0.00    +0.000 A 
ATOM     13  C   UNL     1      98.423 127.884  82.951  0.00  0.00    +0.000 A 
ATOM     14  C   UNL     1      99.092 126.786  82.412  0.00  0.00    +0.000 A 
ATOM     15  C   UNL     1     100.487 126.730  82.451  0.00  0.00    +0.000 A 
ENDBRANCH   9  10
ENDBRANCH   1   9
TORSDOF 3
ENDMDL
