REMARK  Name = *****
REMARK  3 active torsions:
REMARK  status: ('A' for Active; 'I' for Inactive)
REMARK    1  A    between atoms: C_4  and  N_7
REMARK    2  A    between atoms: C_8  and  S_9
REMARK    3  A    between atoms: S_9  and  C_10
REMARK                            x       y       z     vdW  Elec       q    Type
REMARK                         _______ _______ _______ _____ _____    ______ ____
ROOT
ATOM      1  N   UNL     1      -2.431   1.309  -0.295  0.00  0.00    +0.000 NA
ATOM      2  C   UNL     1      -3.204   0.690  -1.125  0.00  0.00    +0.000 C 
ENDROOT
BRANCH   1   6
ATOM      3  C   UNL     1       1.237  -0.562   0.532  0.00  0.00    +0.000 A 
ATOM      4  C   UNL     1       1.122   0.291  -0.566  0.00  0.00    +0.000 A 
ATOM      5  C   UNL     1      -0.097   0.914  -0.839  0.00  0.00    +0.000 A 
ATOM      6  C   UNL     1      -1.209   0.680  -0.026  0.00  0.00    +0.000 A 
ATOM      7  C   UNL     1      -1.081  -0.161   1.082  0.00  0.00    +0.000 A 
ATOM      8  C   UNL     1       0.137  -0.786   1.359  0.00  0.00    +0.000 A 
ENDBRANCH   1   6
BRANCH   2   9
ATOM      9  S   UNL     1      -4.755   1.402  -1.525  0.00  0.00    +0.000 S 
BRANCH   9  10
ATOM     10  C   UNL     1      -5.283   0.288  -2.808  0.00  0.00    +0.000 A 
ATOM     11  C   UNL     1      -6.157  -0.762  -2.510  0.00  0.00    +0.000 A 
ATOM     12  C   UNL     1      -6.568  -1.640  -3.514  0.00  0.00    +0.000 A 
ATOM     13  C   UNL     1      -6.111  -1.469  -4.821  0.00  0.00    +0.000 A 
ATOM     14  C   UNL     1      -5.247  -0.419  -5.125  0.00  0.00    +0.000 A 
ATOM     15  C   UNL     1      -4.835   0.460  -4.122  0.00  0.00    +0.000 A 
ENDBRANCH   9  10
ENDBRANCH   2   9
TORSDOF 3
