REMARK  Name = *****
REMARK  3 active torsions:
REMARK  status: ('A' for Active; 'I' for Inactive)
REMARK    1  A    between atoms: C_5  and  C_7
REMARK    2  A    between atoms: C_7  and  O_9
REMARK    3  A    between atoms: O_9  and  C_10
REMARK                            x       y       z     vdW  Elec       q    Type
REMARK                         _______ _______ _______ _____ _____    ______ ____
ROOT
ATOM      1  C   UNL     1       0.940  -2.225  -0.522  0.00  0.00    +0.000 C 
ATOM      2  O   UNL     1       0.560  -3.347  -0.219  0.00  0.00    +0.000 OA
ENDROOT
BRANCH   1   7
ATOM      3  C   UNL     1      -1.890   0.014   0.547  0.00  0.00    +0.000 A 
ATOM      4  C   UNL     1      -1.256   1.251   0.666  0.00  0.00    +0.000 A 
ATOM      5  C   UNL     1       0.110   1.361   0.405  0.00  0.00    +0.000 A 
ATOM      6  C   UNL     1       0.838   0.236   0.018  0.00  0.00    +0.000 A 
ATOM      7  C   UNL     1       0.211  -1.003  -0.118  0.00  0.00    +0.000 A 
ATOM      8  C   UNL     1      -1.159  -1.112   0.159  0.00  0.00    +0.000 A 
ATOM      9  F   UNL     1       2.155   0.380  -0.187  0.00  0.00    +0.000 F 
ENDBRANCH   1   7
BRANCH   1  10
ATOM     10  O   UNL     1       2.027  -1.893  -1.303  0.00  0.00    +0.000 OA
BRANCH  10  11
ATOM     11  C   UNL     1       2.678  -3.017  -1.811  0.00  0.00    +0.000 A 
ATOM     12  C   UNL     1       2.162  -3.687  -2.921  0.00  0.00    +0.000 A 
ATOM     13  C   UNL     1       2.830  -4.783  -3.450  0.00  0.00    +0.000 A 
ATOM     14  C   UNL     1       4.022  -5.188  -2.861  0.00  0.00    +0.000 A 
ATOM     15  C   UNL     1       4.556  -4.514  -1.763  0.00  0.00    +0.000 A 
ATOM     16  C   UNL     1       3.884  -3.412  -1.233  0.00  0.00    +0.000 A 
ATOM     17  F   UNL     1       4.678  -6.243  -3.364  0.00  0.00    +0.000 F 
ATOM     18  F   UNL     1       1.023  -3.271  -3.492  0.00  0.00    +0.000 F 
ENDBRANCH  10  11
ENDBRANCH   1  10
TORSDOF 3
