MODEL 1
REMARK VINA RESULT:      -4.5      0.000      0.000
REMARK  Name = *****
REMARK  4 active torsions:
REMARK  status: ('A' for Active; 'I' for Inactive)
REMARK    1  A    between atoms: C_1  and  C_2
REMARK    2  A    between atoms: C_7  and  O_8
REMARK    3  A    between atoms: O_8  and  C_9
REMARK    4  A    between atoms: C_9  and  C_11
REMARK                            x       y       z     vdW  Elec       q    Type
REMARK                         _______ _______ _______ _____ _____    ______ ____
ROOT
ATOM      1  O   UNL     1      88.194  69.493  87.123  0.00  0.00    +0.000 OA
ENDROOT
BRANCH   1   8
ATOM      2  C   UNL     1      89.339  66.928  86.632  0.00  0.00    +0.000 C 
ATOM      3  C   UNL     1      89.913  68.191  85.991  0.00  0.00    +0.000 C 
ATOM      4  C   UNL     1      89.402  68.347  84.549  0.00  0.00    +0.000 C 
ATOM      5  C   UNL     1      90.044  69.554  83.858  0.00  0.00    +0.000 C 
ATOM      6  C   UNL     1      90.146  70.761  84.743  0.00  0.00    +0.000 C 
ATOM      7  C   UNL     1      89.929  70.719  86.066  0.00  0.00    +0.000 C 
ATOM      8  C   UNL     1      89.600  69.459  86.823  0.00  0.00    +0.000 C 
ENDBRANCH   1   8
BRANCH   1   9
ATOM      9  C   UNL     1      87.810  70.329  88.117  0.00  0.00    +0.000 C 
ATOM     10  O   UNL     1      88.358  70.463  89.199  0.00  0.00    +0.000 OA
BRANCH   9  11
ATOM     11  C   UNL     1      86.596  71.089  87.713  0.00  0.00    +0.000 A 
ATOM     12  C   UNL     1      86.385  71.320  86.346  0.00  0.00    +0.000 A 
ATOM     13  C   UNL     1      85.261  72.028  85.915  0.00  0.00    +0.000 A 
ATOM     14  C   UNL     1      84.341  72.509  86.847  0.00  0.00    +0.000 A 
ATOM     15  C   UNL     1      84.543  72.283  88.209  0.00  0.00    +0.000 A 
ATOM     16  C   UNL     1      85.666  71.575  88.643  0.00  0.00    +0.000 A 
ENDBRANCH   9  11
ENDBRANCH   1   9
TORSDOF 3
ENDMDL
