MODEL 1
REMARK VINA RESULT:      -3.9      0.000      0.000
REMARK  Name = *****
REMARK  2 active torsions:
REMARK  status: ('A' for Active; 'I' for Inactive)
REMARK    1  A    between atoms: C_4  and  C_6
REMARK    2  A    between atoms: C_7  and  C_8
REMARK                            x       y       z     vdW  Elec       q    Type
REMARK                         _______ _______ _______ _____ _____    ______ ____
ROOT
ATOM      1  C   UNL     1     102.721 125.905  81.187  0.00  0.00    +0.000 C 
ATOM      2  C   UNL     1     102.065 125.927  82.361  0.00  0.00    +0.000 C 
ENDROOT
BRANCH   2   3
ATOM      3  C   UNL     1     101.033 126.913  82.703  0.00  0.00    +0.000 A 
ATOM      4  C   UNL     1     101.415 128.103  83.336  0.00  0.00    +0.000 A 
ATOM      5  C   UNL     1     100.464 129.078  83.651  0.00  0.00    +0.000 A 
ATOM      6  C   UNL     1      99.125 128.877  83.324  0.00  0.00    +0.000 A 
ATOM      7  C   UNL     1      98.736 127.704  82.679  0.00  0.00    +0.000 A 
ATOM      8  C   UNL     1      99.686 126.730  82.365  0.00  0.00    +0.000 A 
ENDBRANCH   2   3
BRANCH   1  12
ATOM      9  C   UNL     1     106.286 125.633  81.517  0.00  0.00    +0.000 C 
ATOM     10  C   UNL     1     106.072 124.271  82.145  0.00  0.00    +0.000 C 
ATOM     11  S   UNL     1     104.288 124.030  82.353  0.00  0.00    +0.000 S 
ATOM     12  C   UNL     1     103.773 124.896  80.838  0.00  0.00    +0.000 C 
ATOM     13  S   UNL     1     105.192 125.741  80.081  0.00  0.00    +0.000 S 
ENDBRANCH   1  12
TORSDOF 2
ENDMDL
