MODEL 1
REMARK VINA RESULT:      -3.8      0.000      0.000
REMARK  Name = *****
REMARK  0 active torsions:
REMARK  status: ('A' for Active; 'I' for Inactive)
REMARK                            x       y       z     vdW  Elec       q    Type
REMARK                         _______ _______ _______ _____ _____    ______ ____
ROOT
ATOM      1  C   UNL     1      86.552  61.929  88.563  0.00  0.00    +0.000 C 
ATOM      2  C   UNL     1      86.280  62.829  87.351  0.00  0.00    +0.000 C 
ATOM      3  C   UNL     1      87.539  63.283  86.659  0.00  0.00    +0.000 A 
ATOM      4  C   UNL     1      87.942  62.804  85.425  0.00  0.00    +0.000 A 
ATOM      5  S   UNL     1      89.406  63.490  84.885  0.00  0.00    +0.000 S 
ATOM      6  C   UNL     1      89.528  64.446  86.291  0.00  0.00    +0.000 A 
ATOM      7  C   UNL     1      88.478  64.256  87.171  0.00  0.00    +0.000 A 
ATOM      8  C   UNL     1      88.361  64.981  88.488  0.00  0.00    +0.000 C 
ATOM      9  C   UNL     1      88.631  64.079  89.698  0.00  0.00    +0.000 C 
ATOM     10  C   UNL     1      87.369  63.629  90.388  0.00  0.00    +0.000 A 
ATOM     11  C   UNL     1      86.961  64.117  91.619  0.00  0.00    +0.000 A 
ATOM     12  S   UNL     1      85.493  63.437  92.154  0.00  0.00    +0.000 S 
ATOM     13  C   UNL     1      85.374  62.475  90.752  0.00  0.00    +0.000 A 
ATOM     14  C   UNL     1      86.430  62.658  89.877  0.00  0.00    +0.000 A 
ENDROOT
TORSDOF 0
ENDMDL
