REMARK  Name = *****
REMARK  4 active torsions:
REMARK  status: ('A' for Active; 'I' for Inactive)
REMARK    1  A    between atoms: C_4  and  C_7
REMARK    2  A    between atoms: C_7  and  C_8
REMARK    3  A    between atoms: C_8  and  C_9
REMARK    4  A    between atoms: C_9  and  C_10
REMARK                            x       y       z     vdW  Elec       q    Type
REMARK                         _______ _______ _______ _____ _____    ______ ____
ROOT
ATOM      1  C   UNL     1      -3.565  -0.859  -0.318  0.00  0.00    +0.000 C 
ENDROOT
BRANCH   1   2
ATOM      2  C   UNL     1      -2.826   0.470  -0.155  0.00  0.00    +0.000 C 
BRANCH   2   6
ATOM      3  C   UNL     1       1.391  -0.154   0.492  0.00  0.00    +0.000 A 
ATOM      4  C   UNL     1       0.896  -0.027  -0.804  0.00  0.00    +0.000 A 
ATOM      5  C   UNL     1      -0.468   0.179  -1.014  0.00  0.00    +0.000 A 
ATOM      6  C   UNL     1      -1.349   0.265   0.072  0.00  0.00    +0.000 A 
ATOM      7  C   UNL     1      -0.842   0.129   1.371  0.00  0.00    +0.000 A 
ATOM      8  C   UNL     1       0.523  -0.077   1.579  0.00  0.00    +0.000 A 
ENDBRANCH   2   6
ENDBRANCH   1   2
BRANCH   1   9
ATOM      9  C   UNL     1      -5.062  -0.630  -0.535  0.00  0.00    +0.000 C 
BRANCH   9  10
ATOM     10  C   UNL     1      -5.807  -1.929  -0.708  0.00  0.00    +0.000 A 
ATOM     11  C   UNL     1      -6.315  -2.611   0.407  0.00  0.00    +0.000 A 
ATOM     12  C   UNL     1      -6.990  -3.821   0.248  0.00  0.00    +0.000 A 
ATOM     13  C   UNL     1      -7.161  -4.364  -1.024  0.00  0.00    +0.000 A 
ATOM     14  C   UNL     1      -6.654  -3.698  -2.138  0.00  0.00    +0.000 A 
ATOM     15  C   UNL     1      -5.978  -2.487  -1.981  0.00  0.00    +0.000 A 
ENDBRANCH   9  10
ENDBRANCH   1   9
TORSDOF 4
