MODEL 1
REMARK VINA RESULT:      -4.7      0.000      0.000
REMARK  Name = *****
REMARK  2 active torsions:
REMARK  status: ('A' for Active; 'I' for Inactive)
REMARK    1  A    between atoms: C_4  and  C_6
REMARK    2  A    between atoms: C_8  and  C_11
REMARK                            x       y       z     vdW  Elec       q    Type
REMARK                         _______ _______ _______ _____ _____    ______ ____
ROOT
ATOM      1  C   UNL     1     100.919 127.764  83.452  0.00  0.00    +0.000 C 
ATOM      2  C   UNL     1     100.505 126.679  82.409  0.00  0.00    +0.000 C 
ATOM      3  C   UNL     1     102.084 126.524  82.678  0.00  0.00    +0.000 C 
ATOM      4  C   UNL     1     101.640 126.610  84.189  0.00  0.00    +0.000 C 
ATOM      5  C   UNL     1     102.325 128.102  82.858  0.00  0.00    +0.000 C 
ENDROOT
BRANCH   3   6
ATOM      6  C   UNL     1     103.043 125.509  82.068  0.00  0.00    +0.000 A 
ATOM      7  C   UNL     1     103.401 125.546  80.707  0.00  0.00    +0.000 A 
ATOM      8  C   UNL     1     104.283 124.620  80.141  0.00  0.00    +0.000 A 
ATOM      9  C   UNL     1     104.840 123.620  80.931  0.00  0.00    +0.000 A 
ATOM     10  C   UNL     1     104.515 123.552  82.280  0.00  0.00    +0.000 A 
ATOM     11  C   UNL     1     103.632 124.483  82.834  0.00  0.00    +0.000 A 
ENDBRANCH   3   6
BRANCH   1  15
ATOM     12  C   UNL     1      99.403 129.895  83.400  0.00  0.00    +0.000 C 
ATOM     13  C   UNL     1      98.907 129.942  84.898  0.00  0.00    +0.000 C 
ATOM     14  C   UNL     1     100.468 129.709  85.219  0.00  0.00    +0.000 C 
ATOM     15  C   UNL     1     100.047 128.683  84.118  0.00  0.00    +0.000 C 
ATOM     16  C   UNL     1      98.607 128.380  84.646  0.00  0.00    +0.000 C 
ENDBRANCH   1  15
TORSDOF 2
ENDMDL
