MODEL 1
REMARK VINA RESULT:      -4.5      0.000      0.000
REMARK  Name = *****
REMARK  3 active torsions:
REMARK  status: ('A' for Active; 'I' for Inactive)
REMARK    1  A    between atoms: C_5  and  C_7
REMARK    2  A    between atoms: C_7  and  O_9
REMARK    3  A    between atoms: O_9  and  C_10
REMARK                            x       y       z     vdW  Elec       q    Type
REMARK                         _______ _______ _______ _____ _____    ______ ____
ROOT
ATOM      1  C   UNL     1      88.516  70.405  86.055  0.00  0.00    +0.000 C 
ATOM      2  O   UNL     1      89.618  70.921  86.153  0.00  0.00    +0.000 OA
ENDROOT
BRANCH   1   7
ATOM      3  C   UNL     1      85.176  72.077  86.354  0.00  0.00    +0.000 A 
ATOM      4  C   UNL     1      84.962  72.071  87.730  0.00  0.00    +0.000 A 
ATOM      5  C   UNL     1      85.925  71.532  88.587  0.00  0.00    +0.000 A 
ATOM      6  C   UNL     1      87.105  70.984  88.070  0.00  0.00    +0.000 A 
ATOM      7  C   UNL     1      87.307  70.967  86.686  0.00  0.00    +0.000 A 
ATOM      8  C   UNL     1      86.349  71.531  85.831  0.00  0.00    +0.000 A 
ATOM      9 CL   UNL     1      88.278  70.411  89.201  0.00  0.00    +0.000 Cl
ENDBRANCH   1   7
BRANCH   1  10
ATOM     10  O   UNL     1      88.142  69.336  85.264  0.00  0.00    +0.000 OA
BRANCH  10  11
ATOM     11  C   UNL     1      88.537  68.087  85.754  0.00  0.00    +0.000 A 
ATOM     12  C   UNL     1      89.725  67.495  85.330  0.00  0.00    +0.000 A 
ATOM     13  C   UNL     1      90.105  66.277  85.887  0.00  0.00    +0.000 A 
ATOM     14  C   UNL     1      89.319  65.669  86.868  0.00  0.00    +0.000 A 
ATOM     15  C   UNL     1      88.142  66.284  87.301  0.00  0.00    +0.000 A 
ATOM     16  C   UNL     1      87.750  67.503  86.748  0.00  0.00    +0.000 A 
ATOM     17 CL   UNL     1      91.561  65.517  85.371  0.00  0.00    +0.000 Cl
ENDBRANCH  10  11
ENDBRANCH   1  10
TORSDOF 3
ENDMDL
