REMARK  Name = *****
REMARK  4 active torsions:
REMARK  status: ('A' for Active; 'I' for Inactive)
REMARK    1  A    between atoms: C_1  and  C_2
REMARK    2  A    between atoms: C_4  and  S_10
REMARK    3  A    between atoms: S_10  and  C_11
REMARK    4  A    between atoms: C_11  and  C_12
REMARK                            x       y       z     vdW  Elec       q    Type
REMARK                         _______ _______ _______ _____ _____    ______ ____
ROOT
ATOM      1  C   UNL     1       2.424   1.766   0.353  0.00  0.00    +0.000 C 
ATOM      2  C   UNL     1       1.071   1.133   0.180  0.00  0.00    +0.000 A 
ATOM      3  C   UNL     1      -0.071   1.949   0.117  0.00  0.00    +0.000 A 
ATOM      4  C   UNL     1      -1.355   1.402  -0.041  0.00  0.00    +0.000 A 
ATOM      5  C   UNL     1      -1.486   0.011  -0.165  0.00  0.00    +0.000 A 
ATOM      6  C   UNL     1      -0.359  -0.812  -0.100  0.00  0.00    +0.000 A 
ATOM      7  C   UNL     1       0.909  -0.255   0.075  0.00  0.00    +0.000 A 
ATOM      8 CL   UNL     1       2.260  -1.329   0.150  0.00  0.00    +0.000 Cl
ATOM      9 CL   UNL     1      -3.011  -0.762  -0.429  0.00  0.00    +0.000 Cl
ENDROOT
BRANCH   4  10
ATOM     10  S   UNL     1      -2.721   2.561  -0.097  0.00  0.00    +0.000 S 
BRANCH  10  11
ATOM     11  C   UNL     1      -3.512   2.223   1.520  0.00  0.00    +0.000 C 
BRANCH  11  12
ATOM     12  C   UNL     1      -2.595   2.423   2.673  0.00  0.00    +0.000 A 
ATOM     13  N   UNL     1      -2.356   3.627   3.215  0.00  0.00    +0.000 NA
ATOM     14  O   UNL     1      -1.460   3.338   4.248  0.00  0.00    +0.000 OA
ATOM     15  C   UNL     1      -1.265   1.995   4.220  0.00  0.00    +0.000 A 
ATOM     16  N   UNL     1      -1.936   1.379   3.280  0.00  0.00    +0.000 NA
ENDBRANCH  11  12
ENDBRANCH  10  11
ENDBRANCH   4  10
TORSDOF 3
