MODEL 1
REMARK VINA RESULT:      -4.5      0.000      0.000
REMARK  Name = *****
REMARK  3 active torsions:
REMARK  status: ('A' for Active; 'I' for Inactive)
REMARK    1  A    between atoms: C_3  and  C_8
REMARK    2  A    between atoms: C_8  and  O_9
REMARK    3  A    between atoms: O_9  and  C_10
REMARK                            x       y       z     vdW  Elec       q    Type
REMARK                         _______ _______ _______ _____ _____    ______ ____
ROOT
ATOM      1  C   UNL     1     102.593 126.986  83.295  0.00  0.00    +0.000 C 
ENDROOT
BRANCH   1   4
ATOM      2  C   UNL     1      98.874 127.155  82.441  0.00  0.00    +0.000 A 
ATOM      3  C   UNL     1     100.186 126.692  82.571  0.00  0.00    +0.000 A 
ATOM      4  C   UNL     1     101.182 127.503  83.142  0.00  0.00    +0.000 A 
ATOM      5  C   UNL     1     100.835 128.786  83.583  0.00  0.00    +0.000 A 
ATOM      6  C   UNL     1      99.526 129.236  83.450  0.00  0.00    +0.000 A 
ATOM      7  C   UNL     1      98.543 128.433  82.884  0.00  0.00    +0.000 A 
ATOM      8  F   UNL     1      99.207 130.466  83.877  0.00  0.00    +0.000 F 
ENDBRANCH   1   4
BRANCH   1   9
ATOM      9  O   UNL     1     102.558 125.560  83.308  0.00  0.00    +0.000 OA
BRANCH   9  10
ATOM     10  C   UNL     1     103.384 124.909  82.434  0.00  0.00    +0.000 A 
ATOM     11  C   UNL     1     104.206 123.819  82.735  0.00  0.00    +0.000 A 
ATOM     12  C   UNL     1     105.003 123.249  81.737  0.00  0.00    +0.000 A 
ATOM     13  C   UNL     1     104.974 123.767  80.449  0.00  0.00    +0.000 A 
ATOM     14  C   UNL     1     104.163 124.849  80.135  0.00  0.00    +0.000 A 
ATOM     15  C   UNL     1     103.369 125.419  81.131  0.00  0.00    +0.000 A 
ATOM     16  F   UNL     1     105.739 123.215  79.497  0.00  0.00    +0.000 F 
ENDBRANCH   9  10
ENDBRANCH   1   9
TORSDOF 3
ENDMDL
