MODEL 1
REMARK VINA RESULT:      -4.9      0.000      0.000
REMARK  Name = *****
REMARK  3 active torsions:
REMARK  status: ('A' for Active; 'I' for Inactive)
REMARK    1  A    between atoms: C_1  and  O_2
REMARK    2  A    between atoms: O_2  and  C_3
REMARK    3  A    between atoms: C_12  and  C_13
REMARK                            x       y       z     vdW  Elec       q    Type
REMARK                         _______ _______ _______ _____ _____    ______ ____
ROOT
ATOM      1  C   UNL     1     103.507 127.416  82.993  0.00  0.00    +0.000 A 
ATOM      2  N   UNL     1     102.643 128.372  83.407  0.00  0.00    +0.000 NA
ATOM      3  C   UNL     1     101.331 128.173  83.209  0.00  0.00    +0.000 A 
ATOM      4  C   UNL     1     100.424 129.140  83.622  0.00  0.00    +0.000 A 
ATOM      5  C   UNL     1      99.046 128.981  83.443  0.00  0.00    +0.000 A 
ATOM      6  C   UNL     1      98.556 127.831  82.836  0.00  0.00    +0.000 A 
ATOM      7  C   UNL     1      99.444 126.846  82.412  0.00  0.00    +0.000 A 
ATOM      8  C   UNL     1     100.829 127.010  82.593  0.00  0.00    +0.000 A 
ATOM      9  C   UNL     1     101.750 126.040  82.177  0.00  0.00    +0.000 A 
ATOM     10  C   UNL     1     103.125 126.231  82.364  0.00  0.00    +0.000 A 
ENDROOT
BRANCH  10  11
ATOM     11  C   UNL     1     104.134 125.186  81.924  0.00  0.00    +0.000 C 
ATOM     12  C   UNL     1     104.034 124.874  80.419  0.00  0.00    +0.000 C 
ATOM     13  C   UNL     1     105.058 123.821  79.998  0.00  0.00    +0.000 C 
ATOM     14  C   UNL     1     104.933 122.550  80.835  0.00  0.00    +0.000 C 
ATOM     15  C   UNL     1     105.027 122.848  82.329  0.00  0.00    +0.000 C 
ATOM     16  C   UNL     1     104.006 123.900  82.760  0.00  0.00    +0.000 C 
ENDBRANCH  10  11
BRANCH   1  18
ATOM     17  C   UNL     1     105.401 128.692  82.453  0.00  0.00    +0.000 C 
ATOM     18  O   UNL     1     104.858 127.615  83.208  0.00  0.00    +0.000 OA
ENDBRANCH   1  18
TORSDOF 2
ENDMDL
