MODEL 1
REMARK VINA RESULT:      -4.5      0.000      0.000
REMARK  Name = *****
REMARK  5 active torsions:
REMARK  status: ('A' for Active; 'I' for Inactive)
REMARK    1  A    between atoms: C_1  and  C_2
REMARK    2  A    between atoms: C_2  and  N_3
REMARK    3  A    between atoms: N_3  and  C_4
REMARK    4  A    between atoms: N_3  and  C_11
REMARK    5  A    between atoms: C_4  and  C_5
REMARK                            x       y       z     vdW  Elec       q    Type
REMARK                         _______ _______ _______ _____ _____    ______ ____
ROOT
ATOM      1  N   UNL     1     102.958 126.399  81.378  0.00  0.00    +0.000 N 
ENDROOT
BRANCH   1   2
ATOM      2  C   UNL     1     103.637 125.168  81.544  0.00  0.00    +0.000 A 
ATOM      3  C   UNL     1     103.739 124.508  82.777  0.00  0.00    +0.000 A 
ATOM      4  C   UNL     1     104.404 123.283  82.884  0.00  0.00    +0.000 A 
ATOM      5  C   UNL     1     104.974 122.697  81.756  0.00  0.00    +0.000 A 
ATOM      6  C   UNL     1     104.878 123.335  80.523  0.00  0.00    +0.000 A 
ATOM      7  C   UNL     1     104.213 124.558  80.421  0.00  0.00    +0.000 A 
ENDBRANCH   1   2
BRANCH   1   9
ATOM      8  C   UNL     1     104.336 128.391  80.952  0.00  0.00    +0.000 C 
ATOM      9  C   UNL     1     103.525 127.261  80.328  0.00  0.00    +0.000 C 
ENDBRANCH   1   9
BRANCH   1  10
ATOM     10  C   UNL     1     102.735 127.062  82.681  0.00  0.00    +0.000 C 
BRANCH  10  11
ATOM     11  C   UNL     1     101.290 127.473  82.868  0.00  0.00    +0.000 A 
ATOM     12  C   UNL     1     100.968 128.676  83.515  0.00  0.00    +0.000 A 
ATOM     13  C   UNL     1      99.635 129.059  83.674  0.00  0.00    +0.000 A 
ATOM     14  C   UNL     1      98.611 128.246  83.190  0.00  0.00    +0.000 A 
ATOM     15  C   UNL     1      98.918 127.048  82.549  0.00  0.00    +0.000 A 
ATOM     16  C   UNL     1     100.250 126.663  82.388  0.00  0.00    +0.000 A 
ENDBRANCH  10  11
ENDBRANCH   1  10
TORSDOF 4
ENDMDL
