REMARK  Name = *****
REMARK  3 active torsions:
REMARK  status: ('A' for Active; 'I' for Inactive)
REMARK    1  A    between atoms: C_1  and  C_2
REMARK    2  A    between atoms: C_8  and  C_18
REMARK    3  A    between atoms: C_10  and  C_12
REMARK                            x       y       z     vdW  Elec       q    Type
REMARK                         _______ _______ _______ _____ _____    ______ ____
ROOT
ATOM      1  C   UNL     1       0.622  -3.203   0.332  0.00  0.00    +0.000 C 
ATOM      2  C   UNL     1       0.520  -1.681   0.353  0.00  0.00    +0.000 C 
ATOM      3  C   UNL     1       1.191  -1.014  -0.850  0.00  0.00    +0.000 C 
ATOM      4  C   UNL     1       2.712  -1.296  -0.827  0.00  0.00    +0.000 C 
ATOM      5  C   UNL     1       3.529  -0.273  -1.598  0.00  0.00    +0.000 C 
ATOM      6  C   UNL     1       3.322   1.145  -1.071  0.00  0.00    +0.000 C 
ATOM      7  C   UNL     1       1.999   1.340  -0.329  0.00  0.00    +0.000 C 
ATOM      8  C   UNL     1       0.843   0.496  -0.898  0.00  0.00    +0.000 C 
ATOM      9  N   UNL     1      -0.358   0.855  -0.133  0.00  0.00    +0.000 NA
ATOM     10  C   UNL     1      -1.131  -0.040   0.360  0.00  0.00    +0.000 C 
ATOM     11  O   UNL     1      -0.872  -1.362   0.371  0.00  0.00    +0.000 OA
ATOM     12  C   UNL     1       0.529   0.934  -2.345  0.00  0.00    +0.000 C 
ENDROOT
BRANCH  10  13
ATOM     13  C   UNL     1      -2.434   0.269   1.000  0.00  0.00    +0.000 A 
ATOM     14  C   UNL     1      -2.855   1.604   1.067  0.00  0.00    +0.000 A 
ATOM     15  C   UNL     1      -4.076   1.931   1.662  0.00  0.00    +0.000 A 
ATOM     16  C   UNL     1      -4.883   0.927   2.194  0.00  0.00    +0.000 A 
ATOM     17  C   UNL     1      -4.473  -0.404   2.132  0.00  0.00    +0.000 A 
ATOM     18  C   UNL     1      -3.253  -0.735   1.536  0.00  0.00    +0.000 A 
ENDBRANCH  10  13
TORSDOF 1
