MODEL 1
REMARK VINA RESULT:      -4.5      0.000      0.000
REMARK  Name = *****
REMARK  3 active torsions:
REMARK  status: ('A' for Active; 'I' for Inactive)
REMARK    1  A    between atoms: C_4  and  C_7
REMARK    2  A    between atoms: C_7  and  C_8
REMARK    3  A    between atoms: C_8  and  C_9
REMARK                            x       y       z     vdW  Elec       q    Type
REMARK                         _______ _______ _______ _____ _____    ______ ____
ROOT
ATOM      1  C   UNL     1      88.195  70.186  86.090  0.00  0.00    +0.000 C 
ATOM      2 CL   UNL     1      89.552  70.694  87.184  0.00  0.00    +0.000 Cl
ENDROOT
BRANCH   1   6
ATOM      3  C   UNL     1      84.637  72.348  87.357  0.00  0.00    +0.000 A 
ATOM      4  C   UNL     1      84.890  72.187  85.998  0.00  0.00    +0.000 A 
ATOM      5  C   UNL     1      86.030  71.503  85.566  0.00  0.00    +0.000 A 
ATOM      6  C   UNL     1      86.944  70.967  86.484  0.00  0.00    +0.000 A 
ATOM      7  C   UNL     1      86.663  71.136  87.857  0.00  0.00    +0.000 A 
ATOM      8  C   UNL     1      85.524  71.821  88.288  0.00  0.00    +0.000 A 
ENDBRANCH   1   6
BRANCH   1   9
ATOM      9  C   UNL     1      88.699  70.144  84.615  0.00  0.00    +0.000 C 
ATOM     10 CL   UNL     1      89.493  68.567  84.209  0.00  0.00    +0.000 Cl
BRANCH   9  11
ATOM     11  C   UNL     1      89.541  71.313  84.103  0.00  0.00    +0.000 A 
ATOM     12  C   UNL     1      90.899  71.101  83.789  0.00  0.00    +0.000 A 
ATOM     13  C   UNL     1      91.703  72.130  83.292  0.00  0.00    +0.000 A 
ATOM     14  C   UNL     1      91.162  73.392  83.079  0.00  0.00    +0.000 A 
ATOM     15  C   UNL     1      89.819  73.622  83.357  0.00  0.00    +0.000 A 
ATOM     16  C   UNL     1      89.015  72.592  83.857  0.00  0.00    +0.000 A 
ENDBRANCH   9  11
ENDBRANCH   1   9
TORSDOF 3
ENDMDL
