REMARK  Name = *****
REMARK  4 active torsions:
REMARK  status: ('A' for Active; 'I' for Inactive)
REMARK    1  A    between atoms: C_1  and  C_2
REMARK    2  A    between atoms: C_2  and  C_8
REMARK    3  A    between atoms: C_8  and  C_9
REMARK    4  A    between atoms: C_9  and  C_10
REMARK                            x       y       z     vdW  Elec       q    Type
REMARK                         _______ _______ _______ _____ _____    ______ ____
ROOT
ATOM      1  C   UNL     1       3.269  -0.892  -0.907  0.00  0.00    +0.000 C 
ENDROOT
BRANCH   1   3
ATOM      2  C   UNL     1       2.518  -0.374   1.463  0.00  0.00    +0.000 C 
ATOM      3  C   UNL     1       2.642   0.119   0.041  0.00  0.00    +0.000 C 
ATOM      4  C   UNL     1       2.187   1.328  -0.341  0.00  0.00    +0.000 C 
ATOM      5  C   UNL     1       1.482   2.347   0.530  0.00  0.00    +0.000 C 
ATOM      6  C   UNL     1       0.862   3.347  -0.449  0.00  0.00    +0.000 C 
ATOM      7  C   UNL     1       1.535   3.027  -1.741  0.00  0.00    +0.000 C 
ATOM      8  C   UNL     1       2.252   1.903  -1.665  0.00  0.00    +0.000 C 
ENDBRANCH   1   3
BRANCH   1   9
ATOM      9  C   UNL     1       4.801  -0.922  -0.802  0.00  0.00    +0.000 C 
BRANCH   9  10
ATOM     10  C   UNL     1       5.490  -1.975  -1.645  0.00  0.00    +0.000 A 
ATOM     11  C   UNL     1       6.707  -1.666  -2.272  0.00  0.00    +0.000 A 
ATOM     12  C   UNL     1       7.407  -2.636  -2.994  0.00  0.00    +0.000 A 
ATOM     13  C   UNL     1       6.903  -3.929  -3.096  0.00  0.00    +0.000 A 
ATOM     14  C   UNL     1       5.702  -4.255  -2.471  0.00  0.00    +0.000 A 
ATOM     15  C   UNL     1       5.005  -3.287  -1.743  0.00  0.00    +0.000 A 
ENDBRANCH   9  10
ENDBRANCH   1   9
TORSDOF 3
