MODEL 1
REMARK VINA RESULT:      -4.2      0.000      0.000
REMARK  Name = *****
REMARK  3 active torsions:
REMARK  status: ('A' for Active; 'I' for Inactive)
REMARK    1  A    between atoms: C_6  and  O_8
REMARK    2  A    between atoms: O_8  and  C_9
REMARK    3  A    between atoms: C_9  and  C_10
REMARK                            x       y       z     vdW  Elec       q    Type
REMARK                         _______ _______ _______ _____ _____    ______ ____
ROOT
ATOM      1  O   UNL     1     103.173 126.282  83.140  0.00  0.00    +0.000 OA
ENDROOT
BRANCH   1   7
ATOM      2  C   UNL     1     104.633 123.952  81.548  0.00  0.00    +0.000 C 
ATOM      3  C   UNL     1     104.360 124.610  80.166  0.00  0.00    +0.000 C 
ATOM      4  C   UNL     1     103.539 125.817  80.443  0.00  0.00    +0.000 C 
ATOM      5  C   UNL     1     103.527 127.290  80.163  0.00  0.00    +0.000 C 
ATOM      6  C   UNL     1     104.482 126.767  81.186  0.00  0.00    +0.000 C 
ATOM      7  C   UNL     1     104.499 126.339  82.620  0.00  0.00    +0.000 C 
ATOM      8  C   UNL     1     105.181 124.936  82.623  0.00  0.00    +0.000 C 
ENDBRANCH   1   7
BRANCH   1   9
ATOM      9  C   UNL     1     102.727 127.528  83.666  0.00  0.00    +0.000 C 
BRANCH   9  10
ATOM     10  C   UNL     1     101.271 127.721  83.321  0.00  0.00    +0.000 A 
ATOM     11  C   UNL     1     100.548 126.707  82.676  0.00  0.00    +0.000 A 
ATOM     12  C   UNL     1      99.194 126.878  82.384  0.00  0.00    +0.000 A 
ATOM     13  C   UNL     1      98.546 128.061  82.738  0.00  0.00    +0.000 A 
ATOM     14  C   UNL     1      99.252 129.073  83.386  0.00  0.00    +0.000 A 
ATOM     15  C   UNL     1     100.605 128.903  83.677  0.00  0.00    +0.000 A 
ENDBRANCH   9  10
ENDBRANCH   1   9
TORSDOF 3
ENDMDL
