REMARK  Name = *****
REMARK  4 active torsions:
REMARK  status: ('A' for Active; 'I' for Inactive)
REMARK    1  A    between atoms: C_4  and  C_7
REMARK    2  A    between atoms: C_4  and  S_9
REMARK    3  A    between atoms: S_9  and  C_10
REMARK    4  A    between atoms: C_10  and  C_11
REMARK                            x       y       z     vdW  Elec       q    Type
REMARK                         _______ _______ _______ _____ _____    ______ ____
ROOT
ATOM      1  C   UNL     1      -1.503   0.307  -0.166  0.00  0.00    +0.000 C 
ATOM      2  C   UNL     1      -1.070  -1.087   0.271  0.00  0.00    +0.000 C 
ATOM      3  C   UNL     1       0.341  -1.430  -0.217  0.00  0.00    +0.000 C 
ATOM      4  C   UNL     1       1.385  -0.367   0.171  0.00  0.00    +0.000 C 
ATOM      5  C   UNL     1       0.909   1.044  -0.235  0.00  0.00    +0.000 C 
ATOM      6  C   UNL     1      -0.497   1.362   0.276  0.00  0.00    +0.000 C 
ENDROOT
BRANCH   4   7
ATOM      7  C   UNL     1       1.697  -0.375   1.669  0.00  0.00    +0.000 C 
ATOM      8  O   UNL     1       1.461  -1.316   2.423  0.00  0.00    +0.000 OA
ENDBRANCH   4   7
BRANCH   4   9
ATOM      9  S   UNL     1       2.994  -0.658  -0.711  0.00  0.00    +0.000 S 
BRANCH   9  10
ATOM     10  C   UNL     1       3.425  -2.335  -0.124  0.00  0.00    +0.000 C 
BRANCH  10  11
ATOM     11  C   UNL     1       4.762  -2.767  -0.676  0.00  0.00    +0.000 A 
ATOM     12  C   UNL     1       5.944  -2.515   0.036  0.00  0.00    +0.000 A 
ATOM     13  C   UNL     1       7.180  -2.908  -0.479  0.00  0.00    +0.000 A 
ATOM     14  C   UNL     1       7.249  -3.552  -1.713  0.00  0.00    +0.000 A 
ATOM     15  C   UNL     1       6.083  -3.800  -2.435  0.00  0.00    +0.000 A 
ATOM     16  C   UNL     1       4.846  -3.408  -1.922  0.00  0.00    +0.000 A 
ENDBRANCH  10  11
ENDBRANCH   9  10
ENDBRANCH   4   9
TORSDOF 4
