REMARK  Name = *****
REMARK  4 active torsions:
REMARK  status: ('A' for Active; 'I' for Inactive)
REMARK    1  A    between atoms: C_1  and  C_2
REMARK    2  A    between atoms: C_4  and  C_8
REMARK    3  A    between atoms: N_9  and  C_10
REMARK    4  A    between atoms: C_14  and  C_16
REMARK                            x       y       z     vdW  Elec       q    Type
REMARK                         _______ _______ _______ _____ _____    ______ ____
ROOT
ATOM      1  C   UNL     1      -1.777   4.933   0.416  0.00  0.00    +0.000 A 
ATOM      2  C   UNL     1      -2.762   5.157   1.380  0.00  0.00    +0.000 A 
ATOM      3  C   UNL     1      -3.474   6.357   1.398  0.00  0.00    +0.000 A 
ATOM      4  C   UNL     1      -3.195   7.346   0.453  0.00  0.00    +0.000 A 
ATOM      5  C   UNL     1      -2.203   7.142  -0.518  0.00  0.00    +0.000 A 
ATOM      6  C   UNL     1      -1.492   5.931  -0.517  0.00  0.00    +0.000 A 
ENDROOT
BRANCH   5   7
ATOM      7  C   UNL     1      -1.867   8.218  -1.518  0.00  0.00    +0.000 C 
ATOM      8  F   UNL     1      -2.913   9.055  -1.773  0.00  0.00    +0.000 F 
ATOM      9  F   UNL     1      -0.845   9.015  -1.102  0.00  0.00    +0.000 F 
ATOM     10  F   UNL     1      -1.489   7.722  -2.729  0.00  0.00    +0.000 F 
ENDBRANCH   5   7
BRANCH   1  12
ATOM     11  C   UNL     1      -1.614   2.723  -0.155  0.00  0.00    +0.000 C 
ATOM     12  N   UNL     1      -1.041   3.741   0.406  0.00  0.00    +0.000 NA
BRANCH  11  16
ATOM     13  C   UNL     1       2.314  -0.263   0.751  0.00  0.00    +0.000 C 
ATOM     14  C   UNL     1       0.945  -0.046   0.176  0.00  0.00    +0.000 A 
ATOM     15  C   UNL     1       0.331   1.210   0.271  0.00  0.00    +0.000 A 
ATOM     16  C   UNL     1      -0.957   1.403  -0.239  0.00  0.00    +0.000 A 
ATOM     17  C   UNL     1      -1.647   0.345  -0.835  0.00  0.00    +0.000 A 
ATOM     18  C   UNL     1      -1.045  -0.911  -0.916  0.00  0.00    +0.000 A 
ATOM     19  C   UNL     1       0.241  -1.106  -0.409  0.00  0.00    +0.000 A 
ENDBRANCH  11  16
ENDBRANCH   1  12
TORSDOF 3
