MODEL 1
REMARK VINA RESULT:      -4.3      0.000      0.000
REMARK  Name = *****
REMARK  3 active torsions:
REMARK  status: ('A' for Active; 'I' for Inactive)
REMARK    1  A    between atoms: C_1  and  C_2
REMARK    2  A    between atoms: C_2  and  C_3
REMARK    3  A    between atoms: C_2  and  N_9
REMARK                            x       y       z     vdW  Elec       q    Type
REMARK                         _______ _______ _______ _____ _____    ______ ____
ROOT
ATOM      1  C   UNL     1     103.173 129.348  83.799  0.00  0.00    +0.000 C 
ATOM      2  C   UNL     1     102.755 127.956  83.323  0.00  0.00    +0.000 C 
ENDROOT
BRANCH   2   3
ATOM      3  N   UNL     1     103.440 127.652  82.063  0.00  0.00    +0.000 NA
ATOM      4  C   UNL     1     104.142 126.588  81.900  0.00  0.00    +0.000 C 
ATOM      5  C   UNL     1     104.429 125.510  82.927  0.00  0.00    +0.000 C 
ATOM      6  C   UNL     1     103.998 124.161  82.358  0.00  0.00    +0.000 C 
ATOM      7  C   UNL     1     104.643 123.888  80.997  0.00  0.00    +0.000 C 
ATOM      8  C   UNL     1     104.352 125.010  80.001  0.00  0.00    +0.000 C 
ATOM      9  C   UNL     1     104.782 126.369  80.542  0.00  0.00    +0.000 C 
ENDBRANCH   2   3
BRANCH   2  10
ATOM     10  C   UNL     1     101.242 127.908  83.157  0.00  0.00    +0.000 A 
ATOM     11  C   UNL     1     100.607 126.813  82.553  0.00  0.00    +0.000 A 
ATOM     12  C   UNL     1      99.221 126.793  82.385  0.00  0.00    +0.000 A 
ATOM     13  C   UNL     1      98.452 127.873  82.814  0.00  0.00    +0.000 A 
ATOM     14  C   UNL     1      99.067 128.972  83.410  0.00  0.00    +0.000 A 
ATOM     15  C   UNL     1     100.454 128.991  83.578  0.00  0.00    +0.000 A 
ENDBRANCH   2  10
TORSDOF 2
ENDMDL
