MODEL 1
REMARK VINA RESULT:      -4.4      0.000      0.000
REMARK  Name = *****
REMARK  5 active torsions:
REMARK  status: ('A' for Active; 'I' for Inactive)
REMARK    1  A    between atoms: C_1  and  O_2
REMARK    2  A    between atoms: O_2  and  N_3
REMARK    3  A    between atoms: C_4  and  C_5
REMARK    4  A    between atoms: C_4  and  C_12
REMARK    5  A    between atoms: C_5  and  C_6
REMARK                            x       y       z     vdW  Elec       q    Type
REMARK                         _______ _______ _______ _____ _____    ______ ____
ROOT
ATOM      1  N   UNL     1      89.059  71.162  84.901  0.00  0.00    +0.000 NA
ATOM      2  C   UNL     1      88.543  70.802  86.046  0.00  0.00    +0.000 C 
ENDROOT
BRANCH   2   3
ATOM      3  C   UNL     1      87.145  71.256  86.362  0.00  0.00    +0.000 A 
ATOM      4  C   UNL     1      86.732  71.286  87.703  0.00  0.00    +0.000 A 
ATOM      5  C   UNL     1      85.444  71.705  88.042  0.00  0.00    +0.000 A 
ATOM      6  C   UNL     1      84.553  72.095  87.044  0.00  0.00    +0.000 A 
ATOM      7  C   UNL     1      84.950  72.064  85.709  0.00  0.00    +0.000 A 
ATOM      8  C   UNL     1      86.240  71.645  85.367  0.00  0.00    +0.000 A 
ENDBRANCH   2   3
BRANCH   1  10
ATOM      9  C   UNL     1      90.442  70.062  83.446  0.00  0.00    +0.000 C 
ATOM     10  O   UNL     1      90.358  70.671  84.728  0.00  0.00    +0.000 OA
ENDBRANCH   1  10
BRANCH   2  11
ATOM     11  C   UNL     1      89.279  69.932  87.067  0.00  0.00    +0.000 C 
BRANCH  11  12
ATOM     12  C   UNL     1      89.039  68.443  86.927  0.00  0.00    +0.000 A 
ATOM     13  C   UNL     1      87.880  67.828  87.422  0.00  0.00    +0.000 A 
ATOM     14  C   UNL     1      87.700  66.449  87.299  0.00  0.00    +0.000 A 
ATOM     15  C   UNL     1      88.680  65.664  86.695  0.00  0.00    +0.000 A 
ATOM     16  C   UNL     1      89.846  66.259  86.218  0.00  0.00    +0.000 A 
ATOM     17  C   UNL     1      90.027  67.638  86.339  0.00  0.00    +0.000 A 
ENDBRANCH  11  12
ENDBRANCH   2  11
TORSDOF 4
ENDMDL
