MODEL 1
REMARK VINA RESULT:      -4.3      0.000      0.000
REMARK  Name = *****
REMARK  5 active torsions:
REMARK  status: ('A' for Active; 'I' for Inactive)
REMARK    1  A    between atoms: C_1  and  O_2
REMARK    2  A    between atoms: O_2  and  C_3
REMARK    3  A    between atoms: C_5  and  S_9
REMARK    4  A    between atoms: S_9  and  C_10
REMARK    5  A    between atoms: C_10  and  C_12
REMARK                            x       y       z     vdW  Elec       q    Type
REMARK                         _______ _______ _______ _____ _____    ______ ____
ROOT
ATOM      1  S   UNL     1     103.196 127.848  83.833  0.00  0.00    +0.000 S 
ENDROOT
BRANCH   1   4
ATOM      2  C   UNL     1      99.267 127.643  82.752  0.00  0.00    +0.000 A 
ATOM      3  C   UNL     1     100.609 127.319  82.955  0.00  0.00    +0.000 A 
ATOM      4  C   UNL     1     101.474 128.236  83.570  0.00  0.00    +0.000 A 
ATOM      5  C   UNL     1     100.991 129.489  83.958  0.00  0.00    +0.000 A 
ATOM      6  C   UNL     1      99.652 129.818  83.752  0.00  0.00    +0.000 A 
ATOM      7  C   UNL     1      98.795 128.895  83.153  0.00  0.00    +0.000 A 
BRANCH   2   9
ATOM      8  C   UNL     1      97.463 126.125  83.057  0.00  0.00    +0.000 C 
ATOM      9  O   UNL     1      98.324 126.836  82.176  0.00  0.00    +0.000 OA
ENDBRANCH   2   9
ENDBRANCH   1   4
BRANCH   1  10
ATOM     10  C   UNL     1     103.711 127.565  82.173  0.00  0.00    +0.000 C 
ATOM     11  O   UNL     1     103.841 128.503  81.394  0.00  0.00    +0.000 OA
BRANCH  10  12
ATOM     12  C   UNL     1     103.994 126.163  81.737  0.00  0.00    +0.000 A 
ATOM     13  C   UNL     1     104.314 125.804  80.419  0.00  0.00    +0.000 A 
ATOM     14  C   UNL     1     104.565 124.466  80.090  0.00  0.00    +0.000 A 
ATOM     15  C   UNL     1     104.497 123.481  81.074  0.00  0.00    +0.000 A 
ATOM     16  C   UNL     1     104.178 123.820  82.386  0.00  0.00    +0.000 A 
ATOM     17  C   UNL     1     103.926 125.156  82.715  0.00  0.00    +0.000 A 
ATOM     18 CL   UNL     1     104.805 121.840  80.664  0.00  0.00    +0.000 Cl
ENDBRANCH  10  12
ENDBRANCH   1  10
TORSDOF 4
ENDMDL
