REMARK  Name = *****
REMARK  3 active torsions:
REMARK  status: ('A' for Active; 'I' for Inactive)
REMARK    1  A    between atoms: C_2  and  C_3
REMARK    2  A    between atoms: C_2  and  S_9
REMARK    3  A    between atoms: S_9  and  C_10
REMARK                            x       y       z     vdW  Elec       q    Type
REMARK                         _______ _______ _______ _____ _____    ______ ____
ROOT
ATOM      1  C   UNL     1       1.578  -0.168   1.139  0.00  0.00    +0.000 C 
ATOM      2  C   UNL     1       2.839  -0.087   0.693  0.00  0.00    +0.000 C 
ENDROOT
BRANCH   2   3
ATOM      3  C   UNL     1       3.284  -0.878  -0.465  0.00  0.00    +0.000 A 
ATOM      4  C   UNL     1       2.813  -0.577  -1.751  0.00  0.00    +0.000 A 
ATOM      5  C   UNL     1       3.229  -1.328  -2.853  0.00  0.00    +0.000 A 
ATOM      6  C   UNL     1       4.114  -2.390  -2.678  0.00  0.00    +0.000 A 
ATOM      7  C   UNL     1       4.586  -2.702  -1.404  0.00  0.00    +0.000 A 
ATOM      8  C   UNL     1       4.172  -1.951  -0.302  0.00  0.00    +0.000 A 
ENDBRANCH   2   3
BRANCH   2   9
ATOM      9  S   UNL     1       4.022   0.898   1.493  0.00  0.00    +0.000 S 
BRANCH   9  10
ATOM     10  C   UNL     1       4.151   2.209   0.290  0.00  0.00    +0.000 A 
ATOM     11  C   UNL     1       3.259   3.287   0.322  0.00  0.00    +0.000 A 
ATOM     12  C   UNL     1       3.365   4.316  -0.616  0.00  0.00    +0.000 A 
ATOM     13  C   UNL     1       4.365   4.274  -1.587  0.00  0.00    +0.000 A 
ATOM     14  C   UNL     1       5.261   3.207  -1.619  0.00  0.00    +0.000 A 
ATOM     15  C   UNL     1       5.157   2.179  -0.681  0.00  0.00    +0.000 A 
ENDBRANCH   9  10
ENDBRANCH   2   9
TORSDOF 3
