MODEL 1
REMARK VINA RESULT:      -3.8      0.000      0.000
REMARK  Name = *****
REMARK  4 active torsions:
REMARK  status: ('A' for Active; 'I' for Inactive)
REMARK    1  A    between atoms: C_4  and  O_7
REMARK    2  A    between atoms: O_7  and  S_8
REMARK    3  A    between atoms: S_8  and  S_10
REMARK    4  A    between atoms: S_10  and  C_11
REMARK                            x       y       z     vdW  Elec       q    Type
REMARK                         _______ _______ _______ _____ _____    ______ ____
ROOT
ATOM      1  S   UNL     1      89.794  67.906  85.263  0.00  0.00    +0.000 S 
ATOM      2  O   UNL     1      90.191  67.532  83.863  0.00  0.00    +0.000 OA
ENDROOT
BRANCH   1   3
ATOM      3  O   UNL     1      88.228  67.555  85.426  0.00  0.00    +0.000 OA
BRANCH   3   7
ATOM      4  C   UNL     1      87.432  65.373  88.868  0.00  0.00    +0.000 A 
ATOM      5  C   UNL     1      88.467  64.986  88.014  0.00  0.00    +0.000 A 
ATOM      6  C   UNL     1      88.727  65.719  86.856  0.00  0.00    +0.000 A 
ATOM      7  C   UNL     1      87.937  66.827  86.550  0.00  0.00    +0.000 A 
ATOM      8  C   UNL     1      86.917  67.232  87.413  0.00  0.00    +0.000 A 
ATOM      9  C   UNL     1      86.661  66.498  88.570  0.00  0.00    +0.000 A 
ENDBRANCH   3   7
ENDBRANCH   1   3
BRANCH   1  10
ATOM     10  S   UNL     1      89.651  69.915  85.037  0.00  0.00    +0.000 S 
BRANCH  10  11
ATOM     11  C   UNL     1      88.678  70.372  86.458  0.00  0.00    +0.000 A 
ATOM     12  C   UNL     1      87.381  70.879  86.319  0.00  0.00    +0.000 A 
ATOM     13  C   UNL     1      86.632  71.221  87.448  0.00  0.00    +0.000 A 
ATOM     14  C   UNL     1      87.171  71.048  88.721  0.00  0.00    +0.000 A 
ATOM     15  C   UNL     1      88.457  70.532  88.869  0.00  0.00    +0.000 A 
ATOM     16  C   UNL     1      89.207  70.191  87.741  0.00  0.00    +0.000 A 
ENDBRANCH  10  11
ENDBRANCH   1  10
TORSDOF 4
ENDMDL
