MODEL 1
REMARK VINA RESULT:      -4.7      0.000      0.000
REMARK  Name = *****
REMARK  6 active torsions:
REMARK  status: ('A' for Active; 'I' for Inactive)
REMARK    1  A    between atoms: C_1  and  C_2
REMARK    2  A    between atoms: C_5  and  C_8
REMARK    3  A    between atoms: C_8  and  C_9
REMARK    4  A    between atoms: C_9  and  C_10
REMARK    5  A    between atoms: C_13  and  O_16
REMARK    6  A    between atoms: O_16  and  C_17
REMARK                            x       y       z     vdW  Elec       q    Type
REMARK                         _______ _______ _______ _____ _____    ______ ____
ROOT
ATOM      1  C   UNL     1      88.952  70.015  86.920  0.00  0.00    +0.000 C 
ENDROOT
BRANCH   1   2
ATOM      2  C   UNL     1      88.982  68.507  86.863  0.00  0.00    +0.000 A 
ATOM      3  C   UNL     1      87.947  67.753  87.430  0.00  0.00    +0.000 A 
ATOM      4  C   UNL     1      87.983  66.354  87.398  0.00  0.00    +0.000 A 
ATOM      5  C   UNL     1      89.056  65.693  86.802  0.00  0.00    +0.000 A 
ATOM      6  C   UNL     1      90.091  66.443  86.240  0.00  0.00    +0.000 A 
ATOM      7  C   UNL     1      90.059  67.840  86.271  0.00  0.00    +0.000 A 
BRANCH   5   8
ATOM      8  O   UNL     1      89.214  64.338  86.704  0.00  0.00    +0.000 OA
ATOM      9  C   UNL     1      88.104  63.596  86.216  0.00  0.00    +0.000 C 
ENDBRANCH   5   8
ENDBRANCH   1   2
BRANCH   1  10
ATOM     10  C   UNL     1      88.104  70.519  88.091  0.00  0.00    +0.000 C 
BRANCH  10  15
ATOM     11  C   UNL     1      83.173  73.020  86.256  0.00  0.00    +0.000 C 
ATOM     12  C   UNL     1      84.453  72.400  86.731  0.00  0.00    +0.000 A 
ATOM     13  C   UNL     1      85.417  71.969  85.811  0.00  0.00    +0.000 A 
ATOM     14  C   UNL     1      86.594  71.360  86.249  0.00  0.00    +0.000 A 
ATOM     15  C   UNL     1      86.823  71.158  87.615  0.00  0.00    +0.000 A 
ATOM     16  C   UNL     1      85.855  71.580  88.535  0.00  0.00    +0.000 A 
ATOM     17  C   UNL     1      84.678  72.189  88.096  0.00  0.00    +0.000 A 
ENDBRANCH  10  15
ENDBRANCH   1  10
TORSDOF 4
ENDMDL
