REMARK  Name = *****
REMARK  3 active torsions:
REMARK  status: ('A' for Active; 'I' for Inactive)
REMARK    1  A    between atoms: C_1  and  C_2
REMARK    2  A    between atoms: C_5  and  S_8
REMARK    3  A    between atoms: S_8  and  C_10
REMARK                            x       y       z     vdW  Elec       q    Type
REMARK                         _______ _______ _______ _____ _____    ______ ____
ROOT
ATOM      1  S   UNL     1      -3.319   0.029  -0.174  0.00  0.00    +0.000 S 
ATOM      2  O   UNL     1      -1.817   0.056  -0.205  0.00  0.00    +0.000 OA
ENDROOT
BRANCH   1   3
ATOM      3  C   UNL     1      -3.913   1.710  -0.403  0.00  0.00    +0.000 C 
ATOM      4  C   UNL     1      -3.244   2.827  -0.040  0.00  0.00    +0.000 C 
ATOM      5  C   UNL     1      -3.746   4.236  -0.323  0.00  0.00    +0.000 C 
ATOM      6  C   UNL     1      -2.749   4.974  -1.223  0.00  0.00    +0.000 C 
ATOM      7  C   UNL     1      -1.338   4.985  -0.633  0.00  0.00    +0.000 C 
ATOM      8  C   UNL     1      -0.874   3.583  -0.237  0.00  0.00    +0.000 C 
ATOM      9  C   UNL     1      -1.900   2.892   0.661  0.00  0.00    +0.000 C 
ATOM     10 CL   UNL     1      -5.525   1.788  -1.052  0.00  0.00    +0.000 Cl
ENDBRANCH   1   3
BRANCH   1  15
ATOM     11  C   UNL     1      -4.846  -2.565  -5.505  0.00  0.00    +0.000 C 
ATOM     12  C   UNL     1      -4.483  -1.908  -4.205  0.00  0.00    +0.000 A 
ATOM     13  C   UNL     1      -5.254  -2.134  -3.058  0.00  0.00    +0.000 A 
ATOM     14  C   UNL     1      -4.900  -1.550  -1.839  0.00  0.00    +0.000 A 
ATOM     15  C   UNL     1      -3.769  -0.732  -1.756  0.00  0.00    +0.000 A 
ATOM     16  C   UNL     1      -2.982  -0.526  -2.894  0.00  0.00    +0.000 A 
ATOM     17  C   UNL     1      -3.335  -1.113  -4.110  0.00  0.00    +0.000 A 
ENDBRANCH   1  15
TORSDOF 2
