MODEL 1
REMARK VINA RESULT:      -4.5      0.000      0.000
REMARK  Name = *****
REMARK  5 active torsions:
REMARK  status: ('A' for Active; 'I' for Inactive)
REMARK    1  A    between atoms: C_1  and  N_2
REMARK    2  A    between atoms: N_2  and  C_3
REMARK    3  A    between atoms: N_2  and  C_4
REMARK    4  A    between atoms: C_9  and  C_10
REMARK    5  A    between atoms: C_11  and  C_12
REMARK                            x       y       z     vdW  Elec       q    Type
REMARK                         _______ _______ _______ _____ _____    ______ ____
ROOT
ATOM      1  C   UNL     1     101.442 127.998  83.656  0.00  0.00    +0.000 A 
ATOM      2  C   UNL     1     100.416 128.919  83.944  0.00  0.00    +0.000 A 
ATOM      3  C   UNL     1      99.122 128.755  83.443  0.00  0.00    +0.000 A 
ATOM      4  C   UNL     1      98.820 127.665  82.636  0.00  0.00    +0.000 A 
ATOM      5  C   UNL     1      99.814 126.736  82.334  0.00  0.00    +0.000 A 
ATOM      6  C   UNL     1     101.119 126.881  82.840  0.00  0.00    +0.000 A 
ENDROOT
BRANCH   1   8
ATOM      7  C   UNL     1     103.064 127.674  85.463  0.00  0.00    +0.000 C 
ATOM      8  N   UNL     1     102.760 128.191  84.131  0.00  0.00    +0.000 N 
ATOM      9  C   UNL     1     103.227 129.561  83.892  0.00  0.00    +0.000 C 
ENDBRANCH   1   8
BRANCH   6  10
ATOM     10  C   UNL     1     102.077 125.822  82.468  0.00  0.00    +0.000 C 
ATOM     11  C   UNL     1     102.893 125.916  81.405  0.00  0.00    +0.000 C 
BRANCH  11  12
ATOM     12  C   UNL     1     103.873 124.889  81.029  0.00  0.00    +0.000 A 
ATOM     13  C   UNL     1     104.657 124.994  79.873  0.00  0.00    +0.000 A 
ATOM     14  C   UNL     1     105.600 124.011  79.563  0.00  0.00    +0.000 A 
ATOM     15  C   UNL     1     105.775 122.919  80.410  0.00  0.00    +0.000 A 
ATOM     16  C   UNL     1     105.012 122.811  81.571  0.00  0.00    +0.000 A 
ATOM     17  C   UNL     1     104.070 123.795  81.882  0.00  0.00    +0.000 A 
ENDBRANCH  11  12
ENDBRANCH   6  10
TORSDOF 3
ENDMDL
