MODEL 1
REMARK VINA RESULT:      -4.4      0.000      0.000
REMARK  Name = *****
REMARK  4 active torsions:
REMARK  status: ('A' for Active; 'I' for Inactive)
REMARK    1  A    between atoms: C_1  and  N_2
REMARK    2  A    between atoms: N_2  and  C_3
REMARK    3  A    between atoms: N_2  and  P_9
REMARK    4  A    between atoms: P_9  and  C_11
REMARK                            x       y       z     vdW  Elec       q    Type
REMARK                         _______ _______ _______ _____ _____    ______ ____
ROOT
ATOM      1  P   UNL     1     100.474 126.956  83.950  0.00  0.00    +0.000 P 
ATOM      2  O   UNL     1      99.658 126.299  85.044  0.00  0.00    +0.000 OA
ATOM      3 CL   UNL     1      99.358 126.691  82.275  0.00  0.00    +0.000 Cl
ENDROOT
BRANCH   1   4
ATOM      4  C   UNL     1     100.463 128.744  84.117  0.00  0.00    +0.000 A 
ATOM      5  C   UNL     1     101.571 129.419  84.655  0.00  0.00    +0.000 A 
ATOM      6  C   UNL     1     101.575 130.810  84.769  0.00  0.00    +0.000 A 
ATOM      7  C   UNL     1     100.475 131.547  84.335  0.00  0.00    +0.000 A 
ATOM      8  C   UNL     1      99.376 130.896  83.780  0.00  0.00    +0.000 A 
ATOM      9  C   UNL     1      99.373 129.504  83.664  0.00  0.00    +0.000 A 
ENDBRANCH   1   4
BRANCH   1  11
ATOM     10  C   UNL     1     102.482 125.545  84.808  0.00  0.00    +0.000 C 
ATOM     11  N   UNL     1     101.988 126.317  83.677  0.00  0.00    +0.000 N 
BRANCH  11  12
ATOM     12  C   UNL     1     102.679 126.248  82.453  0.00  0.00    +0.000 A 
ATOM     13  C   UNL     1     103.218 125.045  81.961  0.00  0.00    +0.000 A 
ATOM     14  C   UNL     1     103.910 124.983  80.744  0.00  0.00    +0.000 A 
ATOM     15  C   UNL     1     104.083 126.130  79.981  0.00  0.00    +0.000 A 
ATOM     16  C   UNL     1     103.563 127.333  80.436  0.00  0.00    +0.000 A 
ATOM     17  C   UNL     1     102.871 127.387  81.654  0.00  0.00    +0.000 A 
ENDBRANCH  11  12
ENDBRANCH   1  11
TORSDOF 3
ENDMDL
