MODEL 1
REMARK VINA RESULT:      -4.0      0.000      0.000
REMARK  Name = *****
REMARK  4 active torsions:
REMARK  status: ('A' for Active; 'I' for Inactive)
REMARK    1  A    between atoms: C_4  and  C_7
REMARK    2  A    between atoms: C_7  and  N_8
REMARK    3  A    between atoms: N_8  and  C_9
REMARK    4  A    between atoms: C_9  and  C_10
REMARK                            x       y       z     vdW  Elec       q    Type
REMARK                         _______ _______ _______ _____ _____    ______ ____
ROOT
ATOM      1  N   UNL     1      87.573  69.928  87.910  0.00  0.00    +0.000 NA
ENDROOT
BRANCH   1   2
ATOM      2  C   UNL     1      88.857  70.008  87.955  0.00  0.00    +0.000 C 
BRANCH   2   6
ATOM      3  C   UNL     1      89.849  69.342  83.805  0.00  0.00    +0.000 C 
ATOM      4  C   UNL     1      90.413  70.586  84.485  0.00  0.00    +0.000 C 
ATOM      5  C   UNL     1      89.682  70.894  85.789  0.00  0.00    +0.000 C 
ATOM      6  C   UNL     1      89.686  69.689  86.733  0.00  0.00    +0.000 C 
ATOM      7  C   UNL     1      89.118  68.443  86.048  0.00  0.00    +0.000 C 
ATOM      8  C   UNL     1      89.849  68.139  84.743  0.00  0.00    +0.000 C 
ENDBRANCH   2   6
ENDBRANCH   1   2
BRANCH   1   9
ATOM      9  C   UNL     1      86.901  71.126  88.434  0.00  0.00    +0.000 C 
BRANCH   9  10
ATOM     10  C   UNL     1      85.834  71.640  87.497  0.00  0.00    +0.000 A 
ATOM     11  C   UNL     1      84.647  72.196  87.996  0.00  0.00    +0.000 A 
ATOM     12  C   UNL     1      83.680  72.707  87.129  0.00  0.00    +0.000 A 
ATOM     13  C   UNL     1      83.891  72.676  85.752  0.00  0.00    +0.000 A 
ATOM     14  C   UNL     1      85.069  72.135  85.242  0.00  0.00    +0.000 A 
ATOM     15  C   UNL     1      86.039  71.625  86.109  0.00  0.00    +0.000 A 
ENDBRANCH   9  10
ENDBRANCH   1   9
TORSDOF 4
ENDMDL
