MODEL 1
REMARK VINA RESULT:      -4.7      0.000      0.000
REMARK  Name = *****
REMARK  2 active torsions:
REMARK  status: ('A' for Active; 'I' for Inactive)
REMARK    1  A    between atoms: C_4  and  C_7
REMARK    2  A    between atoms: C_7  and  C_8
REMARK                            x       y       z     vdW  Elec       q    Type
REMARK                         _______ _______ _______ _____ _____    ______ ____
ROOT
ATOM      1  C   UNL     1      87.848  70.501  86.991  0.00  0.00    +0.000 C 
ATOM      2  C   UNL     1      88.696  70.492  88.038  0.00  0.00    +0.000 C 
ATOM      3  C   UNL     1      88.370  71.093  89.370  0.00  0.00    +0.000 C 
ATOM      4  C   UNL     1      86.870  71.045  89.648  0.00  0.00    +0.000 C 
ATOM      5  C   UNL     1      86.076  71.497  88.446  0.00  0.00    +0.000 A 
ATOM      6  C   UNL     1      84.842  72.139  88.633  0.00  0.00    +0.000 A 
ATOM      7  C   UNL     1      84.091  72.549  87.537  0.00  0.00    +0.000 A 
ATOM      8  C   UNL     1      84.567  72.316  86.250  0.00  0.00    +0.000 A 
ATOM      9  C   UNL     1      85.787  71.661  86.057  0.00  0.00    +0.000 A 
ATOM     10  C   UNL     1      86.556  71.224  87.145  0.00  0.00    +0.000 A 
ATOM     11  F   UNL     1      89.887  69.862  87.907  0.00  0.00    +0.000 F 
ENDROOT
BRANCH   1  12
ATOM     12  C   UNL     1      88.229  69.800  85.700  0.00  0.00    +0.000 C 
BRANCH  12  16
ATOM     13  C   UNL     1      89.906  66.366  84.881  0.00  0.00    +0.000 C 
ATOM     14  C   UNL     1      89.474  67.341  83.796  0.00  0.00    +0.000 C 
ATOM     15  S   UNL     1      87.700  67.702  83.835  0.00  0.00    +0.000 S 
ATOM     16  C   UNL     1      87.543  68.427  85.507  0.00  0.00    +0.000 C 
ATOM     17  S   UNL     1      88.051  67.216  86.783  0.00  0.00    +0.000 S 
ATOM     18  C   UNL     1      89.772  66.916  86.293  0.00  0.00    +0.000 C 
ENDBRANCH  12  16
ENDBRANCH   1  12
TORSDOF 2
ENDMDL
