MODEL 1
REMARK VINA RESULT:      -4.9      0.000      0.000
REMARK  Name = *****
REMARK  2 active torsions:
REMARK  status: ('A' for Active; 'I' for Inactive)
REMARK    1  A    between atoms: C_4  and  C_7
REMARK    2  A    between atoms: C_8  and  C_9
REMARK                            x       y       z     vdW  Elec       q    Type
REMARK                         _______ _______ _______ _____ _____    ______ ____
ROOT
ATOM      1  C   UNL     1     102.009 126.057  82.199  0.00  0.00    +0.000 C 
ATOM      2  C   UNL     1     103.032 126.372  81.387  0.00  0.00    +0.000 C 
ENDROOT
BRANCH   2   3
ATOM      3  C   UNL     1     104.071 125.438  80.948  0.00  0.00    +0.000 A 
ATOM      4  C   UNL     1     103.991 124.138  81.281  0.00  0.00    +0.000 A 
ATOM      5  C   UNL     1     104.943 123.079  81.068  0.00  0.00    +0.000 A 
ATOM      6  C   UNL     1     105.883 122.999  80.123  0.00  0.00    +0.000 A 
ATOM      7  C   UNL     1     106.179 123.972  79.109  0.00  0.00    +0.000 A 
ATOM      8  C   UNL     1     105.936 125.286  79.155  0.00  0.00    +0.000 A 
ATOM      9  C   UNL     1     105.223 126.053  80.202  0.00  0.00    +0.000 A 
ATOM     10  O   UNL     1     105.513 127.242  80.349  0.00  0.00    +0.000 OA
ENDBRANCH   2   3
BRANCH   1  14
ATOM     11  C   UNL     1      98.923 128.792  83.346  0.00  0.00    +0.000 A 
ATOM     12  C   UNL     1     100.250 129.094  83.644  0.00  0.00    +0.000 A 
ATOM     13  C   UNL     1     101.268 128.209  83.279  0.00  0.00    +0.000 A 
ATOM     14  C   UNL     1     100.970 127.007  82.624  0.00  0.00    +0.000 A 
ATOM     15  C   UNL     1      99.632 126.725  82.317  0.00  0.00    +0.000 A 
ATOM     16  C   UNL     1      98.613 127.609  82.680  0.00  0.00    +0.000 A 
ENDBRANCH   1  14
TORSDOF 2
ENDMDL
