MODEL 1
REMARK VINA RESULT:      -4.0      0.000      0.000
REMARK  Name = *****
REMARK  3 active torsions:
REMARK  status: ('A' for Active; 'I' for Inactive)
REMARK    1  A    between atoms: C_5  and  C_6
REMARK    2  A    between atoms: C_5  and  C_14
REMARK    3  A    between atoms: C_6  and  C_7
REMARK                            x       y       z     vdW  Elec       q    Type
REMARK                         _______ _______ _______ _____ _____    ______ ____
ROOT
ATOM      1  C   UNL     1     101.703 131.046  84.768  0.00  0.00    +0.000 C 
ATOM      2  C   UNL     1     100.205 131.278  84.754  0.00  0.00    +0.000 C 
ATOM      3  S   UNL     1      99.466 130.028  83.664  0.00  0.00    +0.000 S 
ATOM      4  C   UNL     1     100.613 128.749  84.022  0.00  0.00    +0.000 C 
ATOM      5  C   UNL     1     100.476 127.485  83.562  0.00  0.00    +0.000 C 
ATOM      6  S   UNL     1     101.969 129.264  85.004  0.00  0.00    +0.000 S 
ENDROOT
BRANCH   5   7
ATOM      7  C   UNL     1      99.339 127.115  82.773  0.00  0.00    +0.000 C 
ATOM      8  N   UNL     1      98.449 126.832  82.085  0.00  0.00    +0.000 NA
ENDBRANCH   5   7
BRANCH   5   9
ATOM      9  C   UNL     1     101.446 126.350  83.846  0.00  0.00    +0.000 C 
BRANCH   9  10
ATOM     10  C   UNL     1     102.404 126.082  82.704  0.00  0.00    +0.000 A 
ATOM     11  C   UNL     1     103.166 124.904  82.679  0.00  0.00    +0.000 A 
ATOM     12  C   UNL     1     104.070 124.664  81.642  0.00  0.00    +0.000 A 
ATOM     13  C   UNL     1     104.219 125.600  80.622  0.00  0.00    +0.000 A 
ATOM     14  C   UNL     1     103.466 126.772  80.627  0.00  0.00    +0.000 A 
ATOM     15  C   UNL     1     102.560 127.012  81.663  0.00  0.00    +0.000 A 
ATOM     16 CL   UNL     1     105.339 125.307  79.349  0.00  0.00    +0.000 Cl
ENDBRANCH   9  10
ENDBRANCH   5   9
TORSDOF 3
ENDMDL
