MODEL 1
REMARK VINA RESULT:      -4.3      0.000      0.000
REMARK  Name = *****
REMARK  5 active torsions:
REMARK  status: ('A' for Active; 'I' for Inactive)
REMARK    1  A    between atoms: C_1  and  C_2
REMARK    2  A    between atoms: C_4  and  C_17
REMARK    3  A    between atoms: C_6  and  O_8
REMARK    4  A    between atoms: O_8  and  C_9
REMARK    5  A    between atoms: C_9  and  C_11
REMARK                            x       y       z     vdW  Elec       q    Type
REMARK                         _______ _______ _______ _____ _____    ______ ____
ROOT
ATOM      1  O   UNL     1      87.399  64.134  86.381  0.00  0.00    +0.000 OA
ENDROOT
BRANCH   1   7
ATOM      2  C   UNL     1      89.128  63.774  90.493  0.00  0.00    +0.000 C 
ATOM      3  C   UNL     1      87.716  64.255  90.148  0.00  0.00    +0.000 C 
ATOM      4  C   UNL     1      86.657  63.185  90.450  0.00  0.00    +0.000 C 
ATOM      5  C   UNL     1      86.669  62.020  89.447  0.00  0.00    +0.000 C 
ATOM      6  C   UNL     1      86.556  62.539  88.008  0.00  0.00    +0.000 C 
ATOM      7  C   UNL     1      87.643  63.567  87.684  0.00  0.00    +0.000 C 
ATOM      8  C   UNL     1      87.615  64.722  88.690  0.00  0.00    +0.000 C 
ATOM      9  C   UNL     1      85.539  61.038  89.754  0.00  0.00    +0.000 C 
ENDBRANCH   1   7
BRANCH   1  10
ATOM     10  C   UNL     1      88.246  63.746  85.385  0.00  0.00    +0.000 C 
ATOM     11  O   UNL     1      88.594  62.593  85.174  0.00  0.00    +0.000 OA
BRANCH  10  12
ATOM     12  C   UNL     1      88.651  64.956  84.549  0.00  0.00    +0.000 C 
ATOM     13  C   UNL     1      89.982  64.731  83.817  0.00  0.00    +0.000 C 
ATOM     14  C   UNL     1      91.203  64.840  84.732  0.00  0.00    +0.000 C 
ATOM     15  C   UNL     1      91.200  66.134  85.536  0.00  0.00    +0.000 C 
ATOM     16  C   UNL     1      89.898  66.308  86.310  0.00  0.00    +0.000 C 
ATOM     17  C   UNL     1      88.685  66.241  85.386  0.00  0.00    +0.000 C 
ENDBRANCH  10  12
ENDBRANCH   1  10
TORSDOF 3
ENDMDL
