REMARK  Name = *****
REMARK  5 active torsions:
REMARK  status: ('A' for Active; 'I' for Inactive)
REMARK    1  A    between atoms: C_1  and  C_2
REMARK    2  A    between atoms: C_2  and  C_3
REMARK    3  A    between atoms: C_2  and  O_9
REMARK    4  A    between atoms: O_9  and  C_10
REMARK    5  A    between atoms: C_10  and  C_11
REMARK                            x       y       z     vdW  Elec       q    Type
REMARK                         _______ _______ _______ _____ _____    ______ ____
ROOT
ATOM      1  C   UNL     1       0.929   0.070   0.006  0.00  0.00    +0.000 C 
ATOM      2  C   UNL     1       2.453  -0.010   0.059  0.00  0.00    +0.000 C 
ENDROOT
BRANCH   2   3
ATOM      3  C   UNL     1       3.067   1.352  -0.208  0.00  0.00    +0.000 A 
ATOM      4  C   UNL     1       3.204   2.304   0.814  0.00  0.00    +0.000 A 
ATOM      5  C   UNL     1       3.749   3.561   0.549  0.00  0.00    +0.000 A 
ATOM      6  C   UNL     1       4.161   3.885  -0.742  0.00  0.00    +0.000 A 
ATOM      7  C   UNL     1       4.026   2.953  -1.769  0.00  0.00    +0.000 A 
ATOM      8  C   UNL     1       3.481   1.695  -1.505  0.00  0.00    +0.000 A 
ENDBRANCH   2   3
BRANCH   2   9
ATOM      9  O   UNL     1       2.868  -0.460   1.352  0.00  0.00    +0.000 OA
BRANCH   9  10
ATOM     10  C   UNL     1       2.978  -1.878   1.442  0.00  0.00    +0.000 C 
BRANCH  10  11
ATOM     11  C   UNL     1       3.414  -2.261   2.834  0.00  0.00    +0.000 A 
ATOM     12  C   UNL     1       2.797  -3.327   3.506  0.00  0.00    +0.000 A 
ATOM     13  C   UNL     1       3.225  -3.703   4.781  0.00  0.00    +0.000 A 
ATOM     14  C   UNL     1       4.277  -3.026   5.394  0.00  0.00    +0.000 A 
ATOM     15  C   UNL     1       4.904  -1.972   4.733  0.00  0.00    +0.000 A 
ATOM     16  C   UNL     1       4.478  -1.594   3.459  0.00  0.00    +0.000 A 
ENDBRANCH  10  11
ENDBRANCH   9  10
ENDBRANCH   2   9
TORSDOF 4
