REMARK  Name = *****
REMARK  2 active torsions:
REMARK  status: ('A' for Active; 'I' for Inactive)
REMARK    1  A    between atoms: C_5  and  C_7
REMARK    2  A    between atoms: C_8  and  C_9
REMARK                            x       y       z     vdW  Elec       q    Type
REMARK                         _______ _______ _______ _____ _____    ______ ____
ROOT
ATOM      1  C   UNL     1      -0.463  -1.248   0.028  0.00  0.00    +0.000 A 
ATOM      2  C   UNL     1      -1.276  -0.118   0.085  0.00  0.00    +0.000 A 
ATOM      3  C   UNL     1      -0.707   1.154   0.021  0.00  0.00    +0.000 A 
ATOM      4  C   UNL     1       0.679   1.298  -0.100  0.00  0.00    +0.000 A 
ATOM      5  C   UNL     1       1.502   0.165  -0.158  0.00  0.00    +0.000 A 
ATOM      6  C   UNL     1       0.922  -1.108  -0.094  0.00  0.00    +0.000 A 
ATOM      7 CL   UNL     1       1.321   2.903  -0.174  0.00  0.00    +0.000 Cl
ENDROOT
BRANCH   5   8
ATOM      8  C   UNL     1       2.926   0.262  -0.283  0.00  0.00    +0.000 C 
ATOM      9  C   UNL     1       4.120   0.346  -0.388  0.00  0.00    +0.000 C 
BRANCH   9  10
ATOM     10  C   UNL     1       5.524   0.456  -0.513  0.00  0.00    +0.000 A 
ATOM     11  C   UNL     1       6.352   1.550  -0.589  0.00  0.00    +0.000 A 
ATOM     12  C   UNL     1       7.667   1.033  -0.704  0.00  0.00    +0.000 A 
ATOM     13  C   UNL     1       7.543  -0.339  -0.690  0.00  0.00    +0.000 A 
ATOM     14  O   UNL     1       6.236  -0.698  -0.573  0.00  0.00    +0.000 OA
ENDBRANCH   9  10
ENDBRANCH   5   8
TORSDOF 2
