MODEL 1
REMARK VINA RESULT:      -5.3      0.000      0.000
REMARK  Name = *****
REMARK  7 active torsions:
REMARK  status: ('A' for Active; 'I' for Inactive)
REMARK    1  A    between atoms: C_1  and  C_2
REMARK    2  A    between atoms: C_1  and  C_8
REMARK    3  A    between atoms: C_8  and  C_9
REMARK    4  A    between atoms: C_9  and  C_11
REMARK    5  A    between atoms: C_12  and  C_19
REMARK    6  A    between atoms: C_14  and  C_18
REMARK    7  A    between atoms: C_16  and  C_17
REMARK                            x       y       z     vdW  Elec       q    Type
REMARK                         _______ _______ _______ _____ _____    ______ ____
ROOT
ATOM      1  C   UNL     1      88.775  70.198  87.023  0.00  0.00    +0.000 C 
ATOM      2  O   UNL     1      89.793  70.880  86.951  0.00  0.00    +0.000 OA
ENDROOT
BRANCH   1   3
ATOM      3  C   UNL     1      87.459  70.864  87.191  0.00  0.00    +0.000 A 
ATOM      4  C   UNL     1      86.945  71.103  88.481  0.00  0.00    +0.000 A 
ATOM      5  C   UNL     1      85.680  71.701  88.600  0.00  0.00    +0.000 A 
ATOM      6  C   UNL     1      84.948  72.079  87.469  0.00  0.00    +0.000 A 
ATOM      7  C   UNL     1      85.496  71.875  86.198  0.00  0.00    +0.000 A 
ATOM      8  C   UNL     1      86.745  71.257  86.040  0.00  0.00    +0.000 A 
ATOM      9  C   UNL     1      87.297  71.060  84.654  0.00  0.00    +0.000 C 
ATOM     10  C   UNL     1      83.622  72.767  87.621  0.00  0.00    +0.000 C 
ATOM     11  C   UNL     1      87.691  70.733  89.732  0.00  0.00    +0.000 C 
ENDBRANCH   1   3
BRANCH   1  12
ATOM     12  C   UNL     1      88.781  68.688  86.934  0.00  0.00    +0.000 C 
BRANCH  12  13
ATOM     13  C   UNL     1      90.017  68.201  86.183  0.00  0.00    +0.000 C 
BRANCH  13  14
ATOM     14  C   UNL     1      90.053  66.696  86.101  0.00  0.00    +0.000 A 
ATOM     15  C   UNL     1      91.084  66.045  85.411  0.00  0.00    +0.000 A 
ATOM     16  C   UNL     1      91.102  64.652  85.319  0.00  0.00    +0.000 A 
ATOM     17  C   UNL     1      90.089  63.899  85.910  0.00  0.00    +0.000 A 
ATOM     18  C   UNL     1      89.056  64.538  86.593  0.00  0.00    +0.000 A 
ATOM     19  C   UNL     1      89.036  65.931  86.687  0.00  0.00    +0.000 A 
ENDBRANCH  13  14
ENDBRANCH  12  13
ENDBRANCH   1  12
TORSDOF 4
ENDMDL
