MODEL 1
REMARK VINA RESULT:      -4.9      0.000      0.000
REMARK  Name = *****
REMARK  5 active torsions:
REMARK  status: ('A' for Active; 'I' for Inactive)
REMARK    1  A    between atoms: C_1  and  C_2
REMARK    2  A    between atoms: C_5  and  C_8
REMARK    3  A    between atoms: C_9  and  C_10
REMARK    4  A    between atoms: C_12  and  O_16
REMARK    5  A    between atoms: O_16  and  C_17
REMARK                            x       y       z     vdW  Elec       q    Type
REMARK                         _______ _______ _______ _____ _____    ______ ____
ROOT
ATOM      1  C   UNL     1     102.979 125.286  82.080  0.00  0.00    +0.000 C 
ATOM      2  C   UNL     1     102.107 126.062  82.365  0.00  0.00    +0.000 C 
ENDROOT
BRANCH   1   7
ATOM      3  C   UNL     1     107.160 121.597  80.733  0.00  0.00    +0.000 C 
ATOM      4  C   UNL     1     106.047 122.542  81.078  0.00  0.00    +0.000 A 
ATOM      5  C   UNL     1     105.507 123.390  80.102  0.00  0.00    +0.000 A 
ATOM      6  C   UNL     1     104.493 124.293  80.432  0.00  0.00    +0.000 A 
ATOM      7  C   UNL     1     104.016 124.361  81.742  0.00  0.00    +0.000 A 
ATOM      8  C   UNL     1     104.559 123.530  82.723  0.00  0.00    +0.000 A 
ATOM      9  C   UNL     1     105.574 122.628  82.393  0.00  0.00    +0.000 A 
ENDBRANCH   1   7
BRANCH   2  10
ATOM     10  C   UNL     1     101.068 126.986  82.704  0.00  0.00    +0.000 A 
ATOM     11  C   UNL     1      99.729 126.646  82.477  0.00  0.00    +0.000 A 
ATOM     12  C   UNL     1      98.713 127.546  82.805  0.00  0.00    +0.000 A 
ATOM     13  C   UNL     1      99.048 128.784  83.359  0.00  0.00    +0.000 A 
ATOM     14  C   UNL     1     100.382 129.126  83.586  0.00  0.00    +0.000 A 
ATOM     15  C   UNL     1     101.394 128.225  83.258  0.00  0.00    +0.000 A 
BRANCH  12  16
ATOM     16  O   UNL     1      97.371 127.341  82.636  0.00  0.00    +0.000 OA
ATOM     17  C   UNL     1      96.674 126.724  83.711  0.00  0.00    +0.000 C 
ENDBRANCH  12  16
ENDBRANCH   2  10
TORSDOF 3
ENDMDL
