REMARK  Name = *****
REMARK  3 active torsions:
REMARK  status: ('A' for Active; 'I' for Inactive)
REMARK    1  A    between atoms: C_2  and  C_3
REMARK    2  A    between atoms: C_2  and  S_9
REMARK    3  A    between atoms: S_9  and  C_12
REMARK                            x       y       z     vdW  Elec       q    Type
REMARK                         _______ _______ _______ _____ _____    ______ ____
ROOT
ATOM      1  S   UNL     1       3.414   0.505   1.455  0.00  0.00    +0.000 S 
ATOM      2  O   UNL     1       2.900   1.760   1.975  0.00  0.00    +0.000 OA
ATOM      3  O   UNL     1       3.518  -0.654   2.323  0.00  0.00    +0.000 OA
ENDROOT
BRANCH   1   4
ATOM      4  C   UNL     1       5.049   0.855   0.833  0.00  0.00    +0.000 A 
ATOM      5  C   UNL     1       5.267   2.039   0.121  0.00  0.00    +0.000 A 
ATOM      6  C   UNL     1       6.542   2.319  -0.368  0.00  0.00    +0.000 A 
ATOM      7  C   UNL     1       7.590   1.425  -0.139  0.00  0.00    +0.000 A 
ATOM      8  C   UNL     1       7.369   0.252   0.586  0.00  0.00    +0.000 A 
ATOM      9  C   UNL     1       6.097  -0.036   1.080  0.00  0.00    +0.000 A 
ENDBRANCH   1   4
BRANCH   1  11
ATOM     10  C   UNL     1       1.595   0.858  -0.474  0.00  0.00    +0.000 C 
ATOM     11  C   UNL     1       2.556   0.037  -0.011  0.00  0.00    +0.000 C 
BRANCH  11  12
ATOM     12  C   UNL     1       2.945  -1.281  -0.649  0.00  0.00    +0.000 C 
ATOM     13  C   UNL     1       3.399  -1.109  -2.110  0.00  0.00    +0.000 C 
ATOM     14  C   UNL     1       3.795  -2.447  -2.733  0.00  0.00    +0.000 C 
ATOM     15  C   UNL     1       2.671  -3.473  -2.621  0.00  0.00    +0.000 C 
ATOM     16  C   UNL     1       2.209  -3.648  -1.178  0.00  0.00    +0.000 C 
ATOM     17  C   UNL     1       1.810  -2.315  -0.547  0.00  0.00    +0.000 C 
ENDBRANCH  11  12
ENDBRANCH   1  11
TORSDOF 3
