MODEL 1
REMARK VINA RESULT:      -4.3      0.000      0.000
REMARK  Name = *****
REMARK  3 active torsions:
REMARK  status: ('A' for Active; 'I' for Inactive)
REMARK    1  A    between atoms: C_1  and  C_2
REMARK    2  A    between atoms: C_2  and  C_10
REMARK    3  A    between atoms: C_3  and  C_4
REMARK                            x       y       z     vdW  Elec       q    Type
REMARK                         _______ _______ _______ _____ _____    ______ ____
ROOT
ATOM      1  C   UNL     1     103.372 127.403  80.385  0.00  0.00    +0.000 C 
ATOM      2  C   UNL     1     103.419 126.241  81.339  0.00  0.00    +0.000 C 
ATOM      3  C   UNL     1     102.574 126.060  82.373  0.00  0.00    +0.000 C 
ENDROOT
BRANCH   3   4
ATOM      4  C   UNL     1     101.433 126.925  82.681  0.00  0.00    +0.000 A 
ATOM      5  C   UNL     1     100.142 126.554  82.291  0.00  0.00    +0.000 A 
ATOM      6  C   UNL     1      99.056 127.382  82.584  0.00  0.00    +0.000 A 
ATOM      7  C   UNL     1      99.258 128.582  83.265  0.00  0.00    +0.000 A 
ATOM      8  C   UNL     1     100.545 128.956  83.654  0.00  0.00    +0.000 A 
ATOM      9  C   UNL     1     101.631 128.129  83.364  0.00  0.00    +0.000 A 
ENDBRANCH   3   4
BRANCH   2  10
ATOM     10  C   UNL     1     104.544 125.264  81.191  0.00  0.00    +0.000 C 
ATOM     11  C   UNL     1     104.926 124.815  79.751  0.00  0.00    +0.000 C 
ATOM     12  C   UNL     1     105.228 123.424  80.345  0.00  0.00    +0.000 C 
ATOM     13  C   UNL     1     104.207 123.766  81.448  0.00  0.00    +0.000 C 
ENDBRANCH   2  10
TORSDOF 2
ENDMDL
