MODEL 1
REMARK VINA RESULT:      -4.2      0.000      0.000
REMARK  Name = *****
REMARK  7 active torsions:
REMARK  status: ('A' for Active; 'I' for Inactive)
REMARK    1  A    between atoms: C_1  and  C_2
REMARK    2  A    between atoms: C_5  and  S_8
REMARK    3  A    between atoms: S_8  and  C_9
REMARK    4  A    between atoms: C_9  and  C_10
REMARK    5  A    between atoms: C_11  and  C_15
REMARK    6  A    between atoms: C_15  and  O_17
REMARK    7  A    between atoms: O_17  and  C_18
REMARK                            x       y       z     vdW  Elec       q    Type
REMARK                         _______ _______ _______ _____ _____    ______ ____
ROOT
ATOM      1  C   UNL     1      89.287  68.970  86.411  0.00  0.00    +0.000 C 
ENDROOT
BRANCH   1   2
ATOM      2  C   UNL     1      88.884  67.553  86.722  0.00  0.00    +0.000 A 
ATOM      3  C   UNL     1      89.467  66.380  86.236  0.00  0.00    +0.000 A 
ATOM      4  S   UNL     1      88.677  64.982  86.864  0.00  0.00    +0.000 S 
ATOM      5  C   UNL     1      87.578  65.907  87.773  0.00  0.00    +0.000 A 
ATOM      6  C   UNL     1      87.791  67.254  87.614  0.00  0.00    +0.000 A 
BRANCH   3   7
ATOM      7  C   UNL     1      90.588  66.148  85.330  0.00  0.00    +0.000 C 
ATOM      8  O   UNL     1      91.698  65.729  85.643  0.00  0.00    +0.000 OA
BRANCH   7   9
ATOM      9  O   UNL     1      90.240  66.448  84.045  0.00  0.00    +0.000 OA
ATOM     10  C   UNL     1      89.932  65.311  83.239  0.00  0.00    +0.000 C 
ENDBRANCH   7   9
ENDBRANCH   3   7
ENDBRANCH   1   2
BRANCH   1  11
ATOM     11  S   UNL     1      88.907  70.059  87.825  0.00  0.00    +0.000 S 
BRANCH  11  16
ATOM     12  C   UNL     1      83.644  72.785  86.334  0.00  0.00    +0.000 C 
ATOM     13  C   UNL     1      84.960  72.150  86.676  0.00  0.00    +0.000 A 
ATOM     14  C   UNL     1      85.836  71.745  85.665  0.00  0.00    +0.000 A 
ATOM     15  C   UNL     1      87.046  71.115  85.978  0.00  0.00    +0.000 A 
ATOM     16  C   UNL     1      87.402  70.876  87.309  0.00  0.00    +0.000 A 
ATOM     17  C   UNL     1      86.511  71.264  88.317  0.00  0.00    +0.000 A 
ATOM     18  C   UNL     1      85.300  71.892  88.005  0.00  0.00    +0.000 A 
ENDBRANCH  11  16
ENDBRANCH   1  11
TORSDOF 5
ENDMDL
