REMARK  Name = *****
REMARK  5 active torsions:
REMARK  status: ('A' for Active; 'I' for Inactive)
REMARK    1  A    between atoms: C_1  and  N_2
REMARK    2  A    between atoms: N_2  and  C_3
REMARK    3  A    between atoms: C_4  and  C_5
REMARK    4  A    between atoms: C_4  and  C_12
REMARK    5  A    between atoms: C_5  and  C_6
REMARK                            x       y       z     vdW  Elec       q    Type
REMARK                         _______ _______ _______ _____ _____    ______ ____
ROOT
ATOM      1  C   UNL     1       2.975   0.909   0.835  0.00  0.00    +0.000 C 
ATOM      2  C   UNL     1       4.459   0.722   0.896  0.00  0.00    +0.000 C 
ENDROOT
BRANCH   2   3
ATOM      3  C   UNL     1       5.281   1.481   1.862  0.00  0.00    +0.000 A 
ATOM      4  C   UNL     1       5.273   2.883   1.854  0.00  0.00    +0.000 A 
ATOM      5  C   UNL     1       6.061   3.604   2.754  0.00  0.00    +0.000 A 
ATOM      6  C   UNL     1       6.865   2.932   3.672  0.00  0.00    +0.000 A 
ATOM      7  C   UNL     1       6.879   1.539   3.696  0.00  0.00    +0.000 A 
ATOM      8  C   UNL     1       6.090   0.817   2.796  0.00  0.00    +0.000 A 
ENDBRANCH   2   3
BRANCH   1  10
ATOM      9  C   UNL     1       0.881   1.704   1.350  0.00  0.00    +0.000 C 
ATOM     10  N   UNL     1       2.318   1.707   1.608  0.00  0.00    +0.000 NA
ENDBRANCH   1  10
BRANCH   2  11
ATOM     11  C   UNL     1       5.080  -0.122   0.048  0.00  0.00    +0.000 C 
BRANCH  11  12
ATOM     12  C   UNL     1       4.439  -0.947  -0.978  0.00  0.00    +0.000 A 
ATOM     13  C   UNL     1       4.283  -0.455  -2.277  0.00  0.00    +0.000 A 
ATOM     14  C   UNL     1       3.660  -1.236  -3.252  0.00  0.00    +0.000 A 
ATOM     15  C   UNL     1       3.191  -2.509  -2.931  0.00  0.00    +0.000 A 
ATOM     16  C   UNL     1       3.345  -3.005  -1.636  0.00  0.00    +0.000 A 
ATOM     17  C   UNL     1       3.968  -2.226  -0.660  0.00  0.00    +0.000 A 
ENDBRANCH  11  12
ENDBRANCH   2  11
TORSDOF 4
