MODEL 1
REMARK VINA RESULT:      -4.6      0.000      0.000
REMARK  Name = *****
REMARK  4 active torsions:
REMARK  status: ('A' for Active; 'I' for Inactive)
REMARK    1  A    between atoms: C_1  and  S_2
REMARK    2  A    between atoms: S_2  and  N_3
REMARK    3  A    between atoms: S_2  and  C_12
REMARK    4  A    between atoms: N_3  and  C_4
REMARK                            x       y       z     vdW  Elec       q    Type
REMARK                         _______ _______ _______ _____ _____    ______ ____
ROOT
ATOM      1  C   UNL     1      88.471  68.579  84.465  0.00  0.00    +0.000 C 
ATOM      2  S   UNL     1      89.492  69.272  85.743  0.00  0.00    +0.000 S 
ATOM      3  O   UNL     1      90.241  70.339  85.103  0.00  0.00    +0.000 OA
ENDROOT
BRANCH   2   4
ATOM      4  C   UNL     1      88.413  70.122  86.883  0.00  0.00    +0.000 A 
ATOM      5  C   UNL     1      88.803  70.191  88.225  0.00  0.00    +0.000 A 
ATOM      6  C   UNL     1      87.978  70.825  89.154  0.00  0.00    +0.000 A 
ATOM      7  C   UNL     1      86.774  71.394  88.740  0.00  0.00    +0.000 A 
ATOM      8  C   UNL     1      86.394  71.337  87.397  0.00  0.00    +0.000 A 
ATOM      9  C   UNL     1      87.214  70.702  86.461  0.00  0.00    +0.000 A 
ENDBRANCH   2   4
BRANCH   2  10
ATOM     10  N   UNL     1      90.150  68.105  86.495  0.00  0.00    +0.000 NA
BRANCH  10  11
ATOM     11  C   UNL     1      90.147  66.690  86.253  0.00  0.00    +0.000 A 
ATOM     12  C   UNL     1      91.120  66.035  85.489  0.00  0.00    +0.000 A 
ATOM     13  C   UNL     1      91.068  64.650  85.278  0.00  0.00    +0.000 A 
ATOM     14  C   UNL     1      90.037  63.895  85.828  0.00  0.00    +0.000 A 
ATOM     15  C   UNL     1      89.055  64.522  86.588  0.00  0.00    +0.000 A 
ATOM     16  C   UNL     1      89.105  65.907  86.799  0.00  0.00    +0.000 A 
ATOM     17 CL   UNL     1      87.836  66.597  87.760  0.00  0.00    +0.000 Cl
ENDBRANCH  10  11
ENDBRANCH   2  10
TORSDOF 3
ENDMDL
