REMARK  Name = *****
REMARK  4 active torsions:
REMARK  status: ('A' for Active; 'I' for Inactive)
REMARK    1  A    between atoms: C_1  and  O_2
REMARK    2  A    between atoms: O_2  and  C_3
REMARK    3  A    between atoms: C_7  and  C_9
REMARK    4  A    between atoms: C_10  and  C_11
REMARK                            x       y       z     vdW  Elec       q    Type
REMARK                         _______ _______ _______ _____ _____    ______ ____
ROOT
ATOM      1  C   UNL     1       6.195   0.766  -3.036  0.00  0.00    +0.000 C 
ATOM      2  C   UNL     1       7.004   1.536  -3.782  0.00  0.00    +0.000 C 
ENDROOT
BRANCH   2   3
ATOM      3  C   UNL     1       8.271   1.070  -4.364  0.00  0.00    +0.000 A 
ATOM      4  C   UNL     1       8.425  -0.221  -4.886  0.00  0.00    +0.000 A 
ATOM      5  C   UNL     1       9.639  -0.607  -5.457  0.00  0.00    +0.000 A 
ATOM      6  C   UNL     1      10.706   0.285  -5.527  0.00  0.00    +0.000 A 
ATOM      7  C   UNL     1      10.558   1.577  -5.027  0.00  0.00    +0.000 A 
ATOM      8  C   UNL     1       9.344   1.968  -4.454  0.00  0.00    +0.000 A 
ATOM      9 CL   UNL     1       9.817  -2.199  -6.086  0.00  0.00    +0.000 Cl
ENDBRANCH   2   3
BRANCH   1  14
ATOM     10  C   UNL     1       3.343   1.114  -0.593  0.00  0.00    +0.000 A 
ATOM     11  C   UNL     1       2.509   2.014  -1.255  0.00  0.00    +0.000 A 
ATOM     12  C   UNL     1       2.875   2.514  -2.506  0.00  0.00    +0.000 A 
ATOM     13  C   UNL     1       4.078   2.123  -3.097  0.00  0.00    +0.000 A 
ATOM     14  C   UNL     1       4.935   1.235  -2.438  0.00  0.00    +0.000 A 
ATOM     15  C   UNL     1       4.548   0.728  -1.191  0.00  0.00    +0.000 A 
BRANCH  10  17
ATOM     16  C   UNL     1       1.881   0.887   1.269  0.00  0.00    +0.000 C 
ATOM     17  O   UNL     1       3.102   0.543   0.627  0.00  0.00    +0.000 OA
ENDBRANCH  10  17
ENDBRANCH   1  14
TORSDOF 3
