MODEL 1
REMARK VINA RESULT:      -4.4      0.000      0.000
REMARK  Name = *****
REMARK  3 active torsions:
REMARK  status: ('A' for Active; 'I' for Inactive)
REMARK    1  A    between atoms: C_8  and  O_9
REMARK    2  A    between atoms: O_9  and  C_10
REMARK    3  A    between atoms: C_10  and  C_12
REMARK                            x       y       z     vdW  Elec       q    Type
REMARK                         _______ _______ _______ _____ _____    ______ ____
ROOT
ATOM      1  O   UNL     1     101.784 126.527  82.951  0.00  0.00    +0.000 OA
ENDROOT
BRANCH   1   9
ATOM      2  C   UNL     1     105.212 126.769  82.183  0.00  0.00    +0.000 C 
ATOM      3  C   UNL     1     104.581 125.611  82.967  0.00  0.00    +0.000 C 
ATOM      4  C   UNL     1     103.473 124.943  82.129  0.00  0.00    +0.000 C 
ATOM      5  C   UNL     1     104.098 124.416  80.827  0.00  0.00    +0.000 C 
ATOM      6  C   UNL     1     104.730 125.573  80.040  0.00  0.00    +0.000 C 
ATOM      7  C   UNL     1     104.553 126.898  80.800  0.00  0.00    +0.000 C 
ATOM      8  C   UNL     1     103.049 127.160  80.998  0.00  0.00    +0.000 C 
ATOM      9  C   UNL     1     102.397 125.992  81.763  0.00  0.00    +0.000 C 
ENDBRANCH   1   9
BRANCH   1  10
ATOM     10  C   UNL     1     100.558 127.084  82.790  0.00  0.00    +0.000 C 
ATOM     11  O   UNL     1      99.602 126.567  82.236  0.00  0.00    +0.000 OA
BRANCH  10  12
ATOM     12  C   UNL     1     100.525 128.447  83.389  0.00  0.00    +0.000 A 
ATOM     13  C   UNL     1      99.379 129.253  83.361  0.00  0.00    +0.000 A 
ATOM     14  C   UNL     1      99.403 130.527  83.936  0.00  0.00    +0.000 A 
ATOM     15  C   UNL     1     100.568 130.999  84.540  0.00  0.00    +0.000 A 
ATOM     16  C   UNL     1     101.712 130.203  84.570  0.00  0.00    +0.000 A 
ATOM     17  C   UNL     1     101.692 128.930  83.996  0.00  0.00    +0.000 A 
ENDBRANCH  10  12
ENDBRANCH   1  10
TORSDOF 3
ENDMDL
