MODEL 1
REMARK VINA RESULT:      -5.1      0.000      0.000
REMARK  Name = *****
REMARK  1 active torsions:
REMARK  status: ('A' for Active; 'I' for Inactive)
REMARK    1  A    between atoms: C_9  and  C_10
REMARK                            x       y       z     vdW  Elec       q    Type
REMARK                         _______ _______ _______ _____ _____    ______ ____
ROOT
ATOM      1  C   UNL     1      99.207 130.410  84.530  0.00  0.00    +0.000 A 
ATOM      2  C   UNL     1     100.501 130.728  84.907  0.00  0.00    +0.000 A 
ATOM      3  C   UNL     1     101.548 129.898  84.515  0.00  0.00    +0.000 A 
ATOM      4  C   UNL     1     101.319 128.737  83.742  0.00  0.00    +0.000 A 
ATOM      5  C   UNL     1     100.016 128.399  83.350  0.00  0.00    +0.000 A 
ATOM      6  C   UNL     1      98.975 129.264  83.765  0.00  0.00    +0.000 A 
ATOM      7  C   UNL     1      99.671 127.178  82.524  0.00  0.00    +0.000 A 
ATOM      8  C   UNL     1     100.707 126.393  82.155  0.00  0.00    +0.000 A 
ATOM      9  C   UNL     1     102.140 126.476  82.396  0.00  0.00    +0.000 A 
ATOM     10  S   UNL     1     102.772 127.801  83.337  0.00  0.00    +0.000 S 
ATOM     11  O   UNL     1      98.465 126.932  82.209  0.00  0.00    +0.000 OA
ENDROOT
BRANCH   9  12
ATOM     12  C   UNL     1     103.003 125.548  81.908  0.00  0.00    +0.000 C 
ATOM     13  C   UNL     1     103.496 125.429  80.535  0.00  0.00    +0.000 C 
ATOM     14  C   UNL     1     104.327 124.374  80.484  0.00  0.00    +0.000 C 
ATOM     15  C   UNL     1     104.411 123.768  81.795  0.00  0.00    +0.000 C 
ATOM     16  C   UNL     1     103.633 124.451  82.648  0.00  0.00    +0.000 C 
ENDBRANCH   9  12
TORSDOF 1
ENDMDL
