REMARK  Name = *****
REMARK  5 active torsions:
REMARK  status: ('A' for Active; 'I' for Inactive)
REMARK    1  A    between atoms: C_1  and  C_2
REMARK    2  A    between atoms: C_3  and  C_18
REMARK    3  A    between atoms: C_5  and  O_8
REMARK    4  A    between atoms: O_8  and  C_9
REMARK    5  A    between atoms: C_9  and  C_11
REMARK                            x       y       z     vdW  Elec       q    Type
REMARK                         _______ _______ _______ _____ _____    ______ ____
ROOT
ATOM      1  O   UNL     1      -3.163  -0.864   0.721  0.00  0.00    +0.000 OA
ENDROOT
BRANCH   1   6
ATOM      2  C   UNL     1       2.030   1.272  -0.245  0.00  0.00    +0.000 C 
ATOM      3  C   UNL     1       0.661   0.694  -0.004  0.00  0.00    +0.000 A 
ATOM      4  C   UNL     1       0.426  -0.695  -0.083  0.00  0.00    +0.000 A 
ATOM      5  C   UNL     1      -0.869  -1.186   0.147  0.00  0.00    +0.000 A 
ATOM      6  C   UNL     1      -1.909  -0.306   0.440  0.00  0.00    +0.000 A 
ATOM      7  C   UNL     1      -1.682   1.061   0.548  0.00  0.00    +0.000 A 
ATOM      8  C   UNL     1      -0.400   1.558   0.317  0.00  0.00    +0.000 A 
ATOM      9  C   UNL     1       1.531  -1.660  -0.413  0.00  0.00    +0.000 C 
ENDBRANCH   1   6
BRANCH   1  10
ATOM     10  C   UNL     1      -4.213  -0.436  -0.070  0.00  0.00    +0.000 C 
ATOM     11  O   UNL     1      -4.169   0.357  -0.998  0.00  0.00    +0.000 OA
BRANCH  10  12
ATOM     12  C   UNL     1      -5.474  -1.101   0.368  0.00  0.00    +0.000 A 
ATOM     13  C   UNL     1      -5.520  -2.014   1.433  0.00  0.00    +0.000 A 
ATOM     14  C   UNL     1      -6.734  -2.606   1.798  0.00  0.00    +0.000 A 
ATOM     15  C   UNL     1      -7.901  -2.289   1.104  0.00  0.00    +0.000 A 
ATOM     16  C   UNL     1      -7.867  -1.384   0.046  0.00  0.00    +0.000 A 
ATOM     17  C   UNL     1      -6.656  -0.791  -0.322  0.00  0.00    +0.000 A 
ATOM     18 CL   UNL     1      -9.390  -3.020   1.558  0.00  0.00    +0.000 Cl
ENDBRANCH  10  12
ENDBRANCH   1  10
TORSDOF 3
