MODEL 1
REMARK VINA RESULT:      -5.2      0.000      0.000
REMARK  Name = *****
REMARK  8 active torsions:
REMARK  status: ('A' for Active; 'I' for Inactive)
REMARK    1  A    between atoms: C_1  and  C_2
REMARK    2  A    between atoms: C_4  and  C_10
REMARK    3  A    between atoms: C_6  and  C_9
REMARK    4  A    between atoms: C_7  and  C_8
REMARK    5  A    between atoms: C_11  and  C_12
REMARK    6  A    between atoms: C_14  and  O_20
REMARK    7  A    between atoms: C_15  and  O_18
REMARK    8  A    between atoms: O_18  and  C_19
REMARK                            x       y       z     vdW  Elec       q    Type
REMARK                         _______ _______ _______ _____ _____    ______ ____
ROOT
ATOM      1  C   UNL     1     102.514 125.804  82.073  0.00  0.00    +0.000 C 
ATOM      2  C   UNL     1     103.284 125.034  82.859  0.00  0.00    +0.000 C 
ENDROOT
BRANCH   1   6
ATOM      3  C   UNL     1      97.919 127.607  82.909  0.00  0.00    +0.000 C 
ATOM      4  C   UNL     1      99.410 127.772  83.035  0.00  0.00    +0.000 A 
ATOM      5  C   UNL     1     100.241 126.767  82.507  0.00  0.00    +0.000 A 
ATOM      6  C   UNL     1     101.632 126.857  82.593  0.00  0.00    +0.000 A 
ATOM      7  C   UNL     1     102.196 127.955  83.246  0.00  0.00    +0.000 A 
ATOM      8  C   UNL     1     101.394 128.977  83.783  0.00  0.00    +0.000 A 
ATOM      9  C   UNL     1      99.988 128.907  83.648  0.00  0.00    +0.000 A 
ATOM     10  C   UNL     1      99.112 129.996  84.220  0.00  0.00    +0.000 C 
ATOM     11  C   UNL     1     102.071 130.135  84.466  0.00  0.00    +0.000 C 
ENDBRANCH   1   6
BRANCH   2  12
ATOM     12  C   UNL     1     104.148 123.966  82.341  0.00  0.00    +0.000 A 
ATOM     13  C   UNL     1     104.523 123.985  80.992  0.00  0.00    +0.000 A 
ATOM     14  C   UNL     1     105.329 122.969  80.457  0.00  0.00    +0.000 A 
ATOM     15  C   UNL     1     105.761 121.910  81.262  0.00  0.00    +0.000 A 
ATOM     16  C   UNL     1     105.366 121.889  82.605  0.00  0.00    +0.000 A 
ATOM     17  C   UNL     1     104.567 122.902  83.142  0.00  0.00    +0.000 A 
BRANCH  15  18
ATOM     18  O   UNL     1     106.541 120.840  80.921  0.00  0.00    +0.000 OA
ATOM     19  C   UNL     1     107.254 120.171  81.949  0.00  0.00    +0.000 C 
ENDBRANCH  15  18
BRANCH  14  20
ATOM     20  O   UNL     1     105.669 123.047  79.134  0.00  0.00    +0.000 OA
ATOM     21  H   UNL     1     106.379 122.534  78.803  0.00  0.00    +0.000 HD
ENDBRANCH  14  20
ENDBRANCH   2  12
TORSDOF 4
ENDMDL
