REMARK  Name = *****
REMARK  4 active torsions:
REMARK  status: ('A' for Active; 'I' for Inactive)
REMARK    1  A    between atoms: C_1  and  C_2
REMARK    2  A    between atoms: C_3  and  C_7
REMARK    3  A    between atoms: C_7  and  O_9
REMARK    4  A    between atoms: O_9  and  C_10
REMARK                            x       y       z     vdW  Elec       q    Type
REMARK                         _______ _______ _______ _____ _____    ______ ____
ROOT
ATOM      1  C   UNL     1       0.447  -2.536  -0.242  0.00  0.00    +0.000 C 
ATOM      2  O   UNL     1      -0.445  -3.374  -0.150  0.00  0.00    +0.000 OA
ENDROOT
BRANCH   1   5
ATOM      3  C   UNL     1       2.693  -0.172  -0.320  0.00  0.00    +0.000 C 
ATOM      4  C   UNL     1       1.233  -0.062  -0.010  0.00  0.00    +0.000 A 
ATOM      5  C   UNL     1       0.306  -1.105   0.014  0.00  0.00    +0.000 A 
ATOM      6  S   UNL     1      -1.266  -0.532   0.425  0.00  0.00    +0.000 S 
ATOM      7  C   UNL     1      -0.734   1.077   0.566  0.00  0.00    +0.000 A 
ATOM      8  C   UNL     1       0.611   1.194   0.312  0.00  0.00    +0.000 A 
ENDBRANCH   1   5
BRANCH   1   9
ATOM      9  O   UNL     1       1.759  -2.826  -0.614  0.00  0.00    +0.000 OA
BRANCH   9  10
ATOM     10  C   UNL     1       2.025  -4.167  -0.913  0.00  0.00    +0.000 A 
ATOM     11  C   UNL     1       1.491  -4.760  -2.059  0.00  0.00    +0.000 A 
ATOM     12  C   UNL     1       1.823  -6.081  -2.356  0.00  0.00    +0.000 A 
ATOM     13  C   UNL     1       2.691  -6.776  -1.517  0.00  0.00    +0.000 A 
ATOM     14  C   UNL     1       3.238  -6.175  -0.387  0.00  0.00    +0.000 A 
ATOM     15  C   UNL     1       2.910  -4.855  -0.083  0.00  0.00    +0.000 A 
ATOM     16  F   UNL     1       3.011  -8.044  -1.808  0.00  0.00    +0.000 F 
ENDBRANCH   9  10
ENDBRANCH   1   9
TORSDOF 3
