MODEL 1
REMARK VINA RESULT:      -4.5      0.000      0.000
REMARK  Name = *****
REMARK  4 active torsions:
REMARK  status: ('A' for Active; 'I' for Inactive)
REMARK    1  A    between atoms: C_1  and  C_2
REMARK    2  A    between atoms: C_5  and  S_8
REMARK    3  A    between atoms: S_8  and  S_11
REMARK    4  A    between atoms: S_11  and  C_12
REMARK                            x       y       z     vdW  Elec       q    Type
REMARK                         _______ _______ _______ _____ _____    ______ ____
ROOT
ATOM      1  S   UNL     1      87.951  70.842  85.193  0.00  0.00    +0.000 S 
ATOM      2  O   UNL     1      87.576  69.620  84.505  0.00  0.00    +0.000 OA
ATOM      3  O   UNL     1      88.528  71.963  84.476  0.00  0.00    +0.000 OA
ENDROOT
BRANCH   1   8
ATOM      4  C   UNL     1      83.070  72.967  88.117  0.00  0.00    +0.000 C 
ATOM      5  C   UNL     1      84.261  72.410  87.392  0.00  0.00    +0.000 A 
ATOM      6  C   UNL     1      85.335  71.865  88.109  0.00  0.00    +0.000 A 
ATOM      7  C   UNL     1      86.459  71.379  87.440  0.00  0.00    +0.000 A 
ATOM      8  C   UNL     1      86.509  71.440  86.045  0.00  0.00    +0.000 A 
ATOM      9  C   UNL     1      85.461  72.008  85.318  0.00  0.00    +0.000 A 
ATOM     10  C   UNL     1      84.339  72.493  85.994  0.00  0.00    +0.000 A 
ENDBRANCH   1   8
BRANCH   1  11
ATOM     11  S   UNL     1      89.235  70.340  86.769  0.00  0.00    +0.000 S 
BRANCH  11  12
ATOM     12  C   UNL     1      89.054  68.571  86.828  0.00  0.00    +0.000 A 
ATOM     13  C   UNL     1      90.015  67.728  86.261  0.00  0.00    +0.000 A 
ATOM     14  C   UNL     1      89.864  66.341  86.330  0.00  0.00    +0.000 A 
ATOM     15  C   UNL     1      88.757  65.790  86.974  0.00  0.00    +0.000 A 
ATOM     16  C   UNL     1      87.801  66.624  87.549  0.00  0.00    +0.000 A 
ATOM     17  C   UNL     1      87.950  68.011  87.480  0.00  0.00    +0.000 A 
ENDBRANCH  11  12
ENDBRANCH   1  11
TORSDOF 3
ENDMDL
