MODEL 1
REMARK VINA RESULT:      -4.7      0.000      0.000
REMARK  Name = *****
REMARK  1 active torsions:
REMARK  status: ('A' for Active; 'I' for Inactive)
REMARK    1  A    between atoms: C_8  and  C_9
REMARK                            x       y       z     vdW  Elec       q    Type
REMARK                         _______ _______ _______ _____ _____    ______ ____
ROOT
ATOM      1  C   UNL     1     101.315 127.404  85.562  0.00  0.00    +0.000 C 
ATOM      2  C   UNL     1     101.063 128.339  84.633  0.00  0.00    +0.000 C 
ATOM      3  C   UNL     1     101.688 129.713  84.669  0.00  0.00    +0.000 C 
ATOM      4  C   UNL     1     100.620 130.809  84.659  0.00  0.00    +0.000 C 
ATOM      5  C   UNL     1      99.629 130.613  83.509  0.00  0.00    +0.000 C 
ATOM      6  C   UNL     1      99.021 129.207  83.527  0.00  0.00    +0.000 C 
ATOM      7  C   UNL     1     100.098 128.138  83.554  0.00  0.00    +0.000 C 
ATOM      8  C   UNL     1     100.125 127.158  82.630  0.00  0.00    +0.000 C 
ENDROOT
BRANCH   8   9
ATOM      9  C   UNL     1     101.143 126.137  82.483  0.00  0.00    +0.000 C 
ATOM     10  C   UNL     1     102.404 126.306  82.037  0.00  0.00    +0.000 C 
ATOM     11  C   UNL     1     103.022 127.598  81.552  0.00  0.00    +0.000 C 
ATOM     12  C   UNL     1     103.595 127.434  80.143  0.00  0.00    +0.000 C 
ATOM     13  C   UNL     1     104.565 126.256  80.055  0.00  0.00    +0.000 C 
ATOM     14  C   UNL     1     103.922 124.964  80.558  0.00  0.00    +0.000 C 
ATOM     15  C   UNL     1     103.353 125.128  81.967  0.00  0.00    +0.000 C 
ENDBRANCH   8   9
TORSDOF 1
ENDMDL
