REMARK  Name = *****
REMARK  4 active torsions:
REMARK  status: ('A' for Active; 'I' for Inactive)
REMARK    1  A    between atoms: C_1  and  C_2
REMARK    2  A    between atoms: C_3  and  N_9
REMARK    3  A    between atoms: C_4  and  C_8
REMARK    4  A    between atoms: C_10  and  C_11
REMARK                            x       y       z     vdW  Elec       q    Type
REMARK                         _______ _______ _______ _____ _____    ______ ____
ROOT
ATOM      1  C   UNL     1       2.667   0.535   1.214  0.00  0.00    +0.000 C 
ATOM      2  C   UNL     1       1.372   0.091   0.594  0.00  0.00    +0.000 A 
ATOM      3  C   UNL     1       0.323   1.007   0.379  0.00  0.00    +0.000 A 
ATOM      4  C   UNL     1      -0.895   0.560  -0.173  0.00  0.00    +0.000 A 
ATOM      5  C   UNL     1      -1.031  -0.783  -0.553  0.00  0.00    +0.000 A 
ATOM      6  C   UNL     1       0.019  -1.680  -0.368  0.00  0.00    +0.000 A 
ATOM      7  C   UNL     1       1.213  -1.247   0.205  0.00  0.00    +0.000 A 
ATOM      8  C   UNL     1      -2.042   1.510  -0.378  0.00  0.00    +0.000 C 
ENDROOT
BRANCH   3   9
ATOM      9  N   UNL     1       0.476   2.358   0.747  0.00  0.00    +0.000 NA
ATOM     10  C   UNL     1       0.966   3.137  -0.165  0.00  0.00    +0.000 C 
BRANCH  10  11
ATOM     11  C   UNL     1       1.185   4.576   0.071  0.00  0.00    +0.000 A 
ATOM     12  C   UNL     1       0.854   5.159   1.298  0.00  0.00    +0.000 A 
ATOM     13  C   UNL     1       1.070   6.523   1.498  0.00  0.00    +0.000 A 
ATOM     14  C   UNL     1       1.614   7.301   0.475  0.00  0.00    +0.000 A 
ATOM     15  C   UNL     1       1.943   6.718  -0.750  0.00  0.00    +0.000 A 
ATOM     16  C   UNL     1       1.729   5.354  -0.955  0.00  0.00    +0.000 A 
ENDBRANCH  10  11
ENDBRANCH   3   9
TORSDOF 2
