MODEL 1
REMARK VINA RESULT:      -4.2      0.000      0.000
REMARK  Name = *****
REMARK  3 active torsions:
REMARK  status: ('A' for Active; 'I' for Inactive)
REMARK    1  A    between atoms: C_4  and  C_8
REMARK    2  A    between atoms: C_8  and  C_9
REMARK    3  A    between atoms: C_9  and  C_10
REMARK                            x       y       z     vdW  Elec       q    Type
REMARK                         _______ _______ _______ _____ _____    ______ ____
ROOT
ATOM      1  C   UNL     1      99.267 129.245  83.669  0.00  0.00    +0.000 A 
ATOM      2  C   UNL     1      98.784 128.141  82.971  0.00  0.00    +0.000 A 
ATOM      3  C   UNL     1      99.672 127.163  82.527  0.00  0.00    +0.000 A 
ATOM      4  C   UNL     1     101.049 127.253  82.770  0.00  0.00    +0.000 A 
ATOM      5  C   UNL     1     101.523 128.379  83.465  0.00  0.00    +0.000 A 
ATOM      6  C   UNL     1     100.632 129.354  83.909  0.00  0.00    +0.000 A 
ATOM      7  F   UNL     1     101.101 130.418  84.573  0.00  0.00    +0.000 F 
ATOM      8  F   UNL     1      99.185 126.122  81.838  0.00  0.00    +0.000 F 
ENDROOT
BRANCH   4   9
ATOM      9  C   UNL     1     101.972 126.175  82.242  0.00  0.00    +0.000 C 
ATOM     10 CL   UNL     1     102.725 125.293  83.618  0.00  0.00    +0.000 Cl
BRANCH   9  11
ATOM     11  C   UNL     1     103.042 126.763  81.304  0.00  0.00    +0.000 C 
BRANCH  11  12
ATOM     12  C   UNL     1     104.208 125.841  81.063  0.00  0.00    +0.000 A 
ATOM     13  C   UNL     1     105.497 126.068  81.509  0.00  0.00    +0.000 A 
ATOM     14  S   UNL     1     106.583 124.824  81.065  0.00  0.00    +0.000 S 
ATOM     15  C   UNL     1     105.344 123.954  80.273  0.00  0.00    +0.000 A 
ATOM     16  C   UNL     1     104.130 124.601  80.348  0.00  0.00    +0.000 A 
ENDBRANCH  11  12
ENDBRANCH   9  11
ENDBRANCH   4   9
TORSDOF 3
ENDMDL
