MODEL 1
REMARK VINA RESULT:      -4.7      0.000      0.000
REMARK  Name = *****
REMARK  3 active torsions:
REMARK  status: ('A' for Active; 'I' for Inactive)
REMARK    1  A    between atoms: C_1  and  C_2
REMARK    2  A    between atoms: C_2  and  C_11
REMARK    3  A    between atoms: N_3  and  C_4
REMARK                            x       y       z     vdW  Elec       q    Type
REMARK                         _______ _______ _______ _____ _____    ______ ____
ROOT
ATOM      1  C   UNL     1     103.272 127.206  80.587  0.00  0.00    +0.000 C 
ATOM      2  C   UNL     1     103.157 125.936  81.411  0.00  0.00    +0.000 C 
ATOM      3  N   UNL     1     102.319 125.782  82.396  0.00  0.00    +0.000 NA
ENDROOT
BRANCH   3   4
ATOM      4  C   UNL     1     101.438 126.812  82.744  0.00  0.00    +0.000 A 
ATOM      5  C   UNL     1     100.083 126.732  82.405  0.00  0.00    +0.000 A 
ATOM      6  C   UNL     1      99.202 127.750  82.778  0.00  0.00    +0.000 A 
ATOM      7  C   UNL     1      99.682 128.836  83.503  0.00  0.00    +0.000 A 
ATOM      8  C   UNL     1     101.021 128.920  83.866  0.00  0.00    +0.000 A 
ATOM      9  C   UNL     1     101.898 127.901  83.491  0.00  0.00    +0.000 A 
ATOM     10  F   UNL     1      98.838 129.812  83.862  0.00  0.00    +0.000 F 
ENDBRANCH   3   4
BRANCH   2  11
ATOM     11  C   UNL     1     104.053 124.791  81.060  0.00  0.00    +0.000 A 
ATOM     12  C   UNL     1     104.168 123.669  81.890  0.00  0.00    +0.000 A 
ATOM     13  C   UNL     1     105.018 122.619  81.534  0.00  0.00    +0.000 A 
ATOM     14  C   UNL     1     105.761 122.686  80.356  0.00  0.00    +0.000 A 
ATOM     15  C   UNL     1     105.661 123.806  79.533  0.00  0.00    +0.000 A 
ATOM     16  C   UNL     1     104.813 124.858  79.885  0.00  0.00    +0.000 A 
ENDBRANCH   2  11
TORSDOF 2
ENDMDL
