MODEL 1
REMARK VINA RESULT:      -4.4      0.000      0.000
REMARK  Name = *****
REMARK  5 active torsions:
REMARK  status: ('A' for Active; 'I' for Inactive)
REMARK    1  A    between atoms: C_1  and  O_2
REMARK    2  A    between atoms: O_2  and  C_3
REMARK    3  A    between atoms: C_6  and  C_9
REMARK    4  A    between atoms: C_9  and  S_11
REMARK    5  A    between atoms: S_11  and  C_12
REMARK                            x       y       z     vdW  Elec       q    Type
REMARK                         _______ _______ _______ _____ _____    ______ ____
ROOT
ATOM      1  C   UNL     1     103.469 127.010  81.694  0.00  0.00    +0.000 C 
ATOM      2  O   UNL     1     103.412 127.801  80.759  0.00  0.00    +0.000 OA
ENDROOT
BRANCH   1   6
ATOM      3  C   UNL     1     104.772 122.922  81.247  0.00  0.00    +0.000 A 
ATOM      4  C   UNL     1     104.332 123.412  82.476  0.00  0.00    +0.000 A 
ATOM      5  C   UNL     1     103.917 124.745  82.592  0.00  0.00    +0.000 A 
ATOM      6  C   UNL     1     103.931 125.605  81.483  0.00  0.00    +0.000 A 
ATOM      7  C   UNL     1     104.380 125.108  80.253  0.00  0.00    +0.000 A 
ATOM      8  C   UNL     1     104.796 123.776  80.143  0.00  0.00    +0.000 A 
BRANCH   3  10
ATOM      9  C   UNL     1     104.552 120.598  81.694  0.00  0.00    +0.000 C 
ATOM     10  O   UNL     1     105.204 121.650  80.995  0.00  0.00    +0.000 OA
ENDBRANCH   3  10
ENDBRANCH   1   6
BRANCH   1  11
ATOM     11  S   UNL     1     103.022 127.523  83.319  0.00  0.00    +0.000 S 
BRANCH  11  12
ATOM     12  C   UNL     1     101.259 127.681  83.110  0.00  0.00    +0.000 A 
ATOM     13  C   UNL     1     100.505 126.662  82.521  0.00  0.00    +0.000 A 
ATOM     14  C   UNL     1      99.124 126.803  82.368  0.00  0.00    +0.000 A 
ATOM     15  C   UNL     1      98.489 127.963  82.811  0.00  0.00    +0.000 A 
ATOM     16  C   UNL     1      99.233 128.979  83.409  0.00  0.00    +0.000 A 
ATOM     17  C   UNL     1     100.614 128.837  83.563  0.00  0.00    +0.000 A 
ENDBRANCH  11  12
ENDBRANCH   1  11
TORSDOF 4
ENDMDL
