REMARK  Name = *****
REMARK  3 active torsions:
REMARK  status: ('A' for Active; 'I' for Inactive)
REMARK    1  A    between atoms: C_5  and  S_7
REMARK    2  A    between atoms: S_7  and  S_8
REMARK    3  A    between atoms: S_8  and  C_11
REMARK                            x       y       z     vdW  Elec       q    Type
REMARK                         _______ _______ _______ _____ _____    ______ ____
ROOT
ATOM      1  S   UNL     1      -4.176  -2.312   0.168  0.00  0.00    +0.000 S 
ATOM      2  O   UNL     1      -4.206  -1.952   1.572  0.00  0.00    +0.000 OA
ATOM      3  O   UNL     1      -4.709  -1.426  -0.849  0.00  0.00    +0.000 OA
ENDROOT
BRANCH   1   4
ATOM      4  C   UNL     1      -5.004  -3.875  -0.001  0.00  0.00    +0.000 A 
ATOM      5  C   UNL     1      -5.164  -4.702   1.118  0.00  0.00    +0.000 A 
ATOM      6  C   UNL     1      -5.834  -5.919   0.985  0.00  0.00    +0.000 A 
ATOM      7  C   UNL     1      -6.345  -6.299  -0.257  0.00  0.00    +0.000 A 
ATOM      8  C   UNL     1      -6.189  -5.457  -1.356  0.00  0.00    +0.000 A 
ATOM      9  C   UNL     1      -5.527  -4.242  -1.243  0.00  0.00    +0.000 A 
ATOM     10  F   UNL     1      -6.688  -5.826  -2.542  0.00  0.00    +0.000 F 
ENDBRANCH   1   4
BRANCH   1  11
ATOM     11  S   UNL     1      -2.201  -2.780  -0.345  0.00  0.00    +0.000 S 
BRANCH  11  16
ATOM     12  C   UNL     1      -0.933   1.094  -0.443  0.00  0.00    +0.000 A 
ATOM     13  C   UNL     1      -0.001   1.130   0.591  0.00  0.00    +0.000 A 
ATOM     14  C   UNL     1       0.248  -0.024   1.326  0.00  0.00    +0.000 A 
ATOM     15  C   UNL     1      -0.420  -1.212   1.050  0.00  0.00    +0.000 A 
ATOM     16  C   UNL     1      -1.364  -1.252   0.020  0.00  0.00    +0.000 A 
ATOM     17  C   UNL     1      -1.609  -0.095  -0.731  0.00  0.00    +0.000 A 
ATOM     18  F   UNL     1       1.150   0.009   2.315  0.00  0.00    +0.000 F 
ENDBRANCH  11  16
ENDBRANCH   1  11
TORSDOF 3
