MODEL 1
REMARK VINA RESULT:      -4.7      0.000      0.000
REMARK  Name = *****
REMARK  4 active torsions:
REMARK  status: ('A' for Active; 'I' for Inactive)
REMARK    1  A    between atoms: C_4  and  C_7
REMARK    2  A    between atoms: C_7  and  C_8
REMARK    3  A    between atoms: C_8  and  C_9
REMARK    4  A    between atoms: C_9  and  C_10
REMARK                            x       y       z     vdW  Elec       q    Type
REMARK                         _______ _______ _______ _____ _____    ______ ____
ROOT
ATOM      1  C   UNL     1     103.316 126.453  81.554  0.00  0.00    +0.000 C 
ATOM      2  F   UNL     1     103.003 127.702  81.124  0.00  0.00    +0.000 F 
ATOM      3  F   UNL     1     104.576 126.497  82.062  0.00  0.00    +0.000 F 
ENDROOT
BRANCH   1   4
ATOM      4  C   UNL     1     102.336 126.025  82.650  0.00  0.00    +0.000 C 
BRANCH   4   8
ATOM      5  C   UNL     1      99.058 128.774  83.227  0.00  0.00    +0.000 A 
ATOM      6  C   UNL     1     100.326 129.087  83.714  0.00  0.00    +0.000 A 
ATOM      7  C   UNL     1     101.386 128.199  83.529  0.00  0.00    +0.000 A 
ATOM      8  C   UNL     1     101.189 126.989  82.848  0.00  0.00    +0.000 A 
ATOM      9  C   UNL     1      99.908 126.680  82.371  0.00  0.00    +0.000 A 
ATOM     10  C   UNL     1      98.849 127.570  82.558  0.00  0.00    +0.000 A 
ENDBRANCH   4   8
ENDBRANCH   1   4
BRANCH   1  11
ATOM     11  C   UNL     1     103.274 125.478  80.374  0.00  0.00    +0.000 C 
BRANCH  11  12
ATOM     12  C   UNL     1     104.456 124.537  80.321  0.00  0.00    +0.000 A 
ATOM     13  C   UNL     1     105.521 124.782  79.444  0.00  0.00    +0.000 A 
ATOM     14  C   UNL     1     106.610 123.910  79.394  0.00  0.00    +0.000 A 
ATOM     15  C   UNL     1     106.643 122.785  80.214  0.00  0.00    +0.000 A 
ATOM     16  C   UNL     1     105.585 122.528  81.084  0.00  0.00    +0.000 A 
ATOM     17  C   UNL     1     104.495 123.398  81.136  0.00  0.00    +0.000 A 
ENDBRANCH  11  12
ENDBRANCH   1  11
TORSDOF 4
ENDMDL
