MODEL 1
REMARK VINA RESULT:      -4.8      0.000      0.000
REMARK  Name = *****
REMARK  4 active torsions:
REMARK  status: ('A' for Active; 'I' for Inactive)
REMARK    1  A    between atoms: C_1  and  C_2
REMARK    2  A    between atoms: C_7  and  C_8
REMARK    3  A    between atoms: C_8  and  C_9
REMARK    4  A    between atoms: C_9  and  C_10
REMARK                            x       y       z     vdW  Elec       q    Type
REMARK                         _______ _______ _______ _____ _____    ______ ____
ROOT
ATOM      1  C   UNL     1      87.302  70.721  86.061  0.00  0.00    +0.000 C 
ENDROOT
BRANCH   1   8
ATOM      2  C   UNL     1      84.755  72.193  85.275  0.00  0.00    +0.000 C 
ATOM      3  C   UNL     1      85.156  71.989  86.711  0.00  0.00    +0.000 A 
ATOM      4  C   UNL     1      84.314  72.489  87.718  0.00  0.00    +0.000 A 
ATOM      5  C   UNL     1      84.637  72.341  89.067  0.00  0.00    +0.000 A 
ATOM      6  C   UNL     1      85.810  71.692  89.430  0.00  0.00    +0.000 A 
ATOM      7  C   UNL     1      86.656  71.188  88.443  0.00  0.00    +0.000 A 
ATOM      8  C   UNL     1      86.341  71.317  87.077  0.00  0.00    +0.000 A 
ENDBRANCH   1   8
BRANCH   1   9
ATOM      9  C   UNL     1      88.629  70.247  86.684  0.00  0.00    +0.000 C 
ATOM     10 CL   UNL     1      90.010  70.963  85.774  0.00  0.00    +0.000 Cl
BRANCH   9  11
ATOM     11  C   UNL     1      88.770  68.737  86.744  0.00  0.00    +0.000 A 
ATOM     12  C   UNL     1      87.788  67.918  87.324  0.00  0.00    +0.000 A 
ATOM     13  C   UNL     1      87.959  66.533  87.387  0.00  0.00    +0.000 A 
ATOM     14  C   UNL     1      89.116  65.949  86.878  0.00  0.00    +0.000 A 
ATOM     15  C   UNL     1      90.104  66.747  86.307  0.00  0.00    +0.000 A 
ATOM     16  C   UNL     1      89.934  68.132  86.242  0.00  0.00    +0.000 A 
ENDBRANCH   9  11
ENDBRANCH   1   9
TORSDOF 3
ENDMDL
