MODEL 1
REMARK VINA RESULT:      -3.2      0.000      0.000
REMARK  Name = *****
REMARK  4 active torsions:
REMARK  status: ('A' for Active; 'I' for Inactive)
REMARK    1  A    between atoms: C_4  and  S_7
REMARK    2  A    between atoms: S_7  and  S_8
REMARK    3  A    between atoms: S_8  and  C_9
REMARK    4  A    between atoms: C_9  and  C_10
REMARK                            x       y       z     vdW  Elec       q    Type
REMARK                         _______ _______ _______ _____ _____    ______ ____
ROOT
ATOM      1  S   UNL     1      87.878  70.033  83.062  0.00  0.00    +0.000 S 
ENDROOT
BRANCH   1   2
ATOM      2  S   UNL     1      86.637  68.511  83.676  0.00  0.00    +0.000 S 
BRANCH   2   6
ATOM      3  C   UNL     1      90.039  66.859  86.386  0.00  0.00    +0.000 C 
ATOM      4  C   UNL     1      88.610  66.530  86.802  0.00  0.00    +0.000 C 
ATOM      5  C   UNL     1      87.589  67.414  86.085  0.00  0.00    +0.000 C 
ATOM      6  C   UNL     1      87.756  67.350  84.562  0.00  0.00    +0.000 C 
ATOM      7  C   UNL     1      89.199  67.684  84.154  0.00  0.00    +0.000 C 
ATOM      8  C   UNL     1      90.207  66.789  84.873  0.00  0.00    +0.000 C 
ENDBRANCH   2   6
ENDBRANCH   1   2
BRANCH   1   9
ATOM      9  C   UNL     1      87.450  71.380  84.212  0.00  0.00    +0.000 C 
BRANCH   9  10
ATOM     10  C   UNL     1      87.842  71.040  85.628  0.00  0.00    +0.000 A 
ATOM     11  C   UNL     1      86.886  71.045  86.655  0.00  0.00    +0.000 A 
ATOM     12  C   UNL     1      87.254  70.741  87.967  0.00  0.00    +0.000 A 
ATOM     13  C   UNL     1      88.579  70.435  88.267  0.00  0.00    +0.000 A 
ATOM     14  C   UNL     1      89.541  70.437  87.258  0.00  0.00    +0.000 A 
ATOM     15  C   UNL     1      89.175  70.740  85.945  0.00  0.00    +0.000 A 
ENDBRANCH   9  10
ENDBRANCH   1   9
TORSDOF 4
ENDMDL
