MODEL 1
REMARK VINA RESULT:      -4.7      0.000      0.000
REMARK  Name = *****
REMARK  3 active torsions:
REMARK  status: ('A' for Active; 'I' for Inactive)
REMARK    1  A    between atoms: C_4  and  O_7
REMARK    2  A    between atoms: O_7  and  C_8
REMARK    3  A    between atoms: C_8  and  C_10
REMARK                            x       y       z     vdW  Elec       q    Type
REMARK                         _______ _______ _______ _____ _____    ______ ____
ROOT
ATOM      1  C   UNL     1     102.773 125.226  82.665  0.00  0.00    +0.000 C 
ATOM      2  O   UNL     1     102.915 124.915  83.838  0.00  0.00    +0.000 OA
ENDROOT
BRANCH   1   3
ATOM      3  C   UNL     1     103.751 124.865  81.620  0.00  0.00    +0.000 A 
ATOM      4  C   UNL     1     104.372 123.614  81.576  0.00  0.00    +0.000 A 
ATOM      5  C   UNL     1     105.283 123.325  80.567  0.00  0.00    +0.000 A 
ATOM      6  C   UNL     1     105.574 124.274  79.595  0.00  0.00    +0.000 A 
ATOM      7  C   UNL     1     104.956 125.521  79.615  0.00  0.00    +0.000 A 
ATOM      8  C   UNL     1     104.038 125.817  80.626  0.00  0.00    +0.000 A 
ATOM      9  F   UNL     1     106.452 123.995  78.623  0.00  0.00    +0.000 F 
ATOM     10  F   UNL     1     105.875 122.123  80.526  0.00  0.00    +0.000 F 
ATOM     11  F   UNL     1     104.084 122.663  82.476  0.00  0.00    +0.000 F 
ENDBRANCH   1   3
BRANCH   1  12
ATOM     12  O   UNL     1     101.704 125.849  82.121  0.00  0.00    +0.000 OA
BRANCH  12  16
ATOM     13  C   UNL     1      99.454 129.224  83.364  0.00  0.00    +0.000 C 
ATOM     14  C   UNL     1      98.726 127.887  83.262  0.00  0.00    +0.000 C 
ATOM     15  C   UNL     1      99.523 126.873  82.447  0.00  0.00    +0.000 C 
ATOM     16  C   UNL     1     100.939 126.691  83.002  0.00  0.00    +0.000 C 
ATOM     17  C   UNL     1     101.663 128.037  83.088  0.00  0.00    +0.000 C 
ATOM     18  C   UNL     1     100.872 129.054  83.903  0.00  0.00    +0.000 C 
ENDBRANCH  12  16
ENDBRANCH   1  12
TORSDOF 3
ENDMDL
