MODEL 1
REMARK VINA RESULT:      -4.7      0.000      0.000
REMARK  Name = *****
REMARK  4 active torsions:
REMARK  status: ('A' for Active; 'I' for Inactive)
REMARK    1  A    between atoms: C_4  and  C_7
REMARK    2  A    between atoms: C_7  and  C_8
REMARK    3  A    between atoms: C_8  and  C_9
REMARK    4  A    between atoms: C_8  and  C_11
REMARK                            x       y       z     vdW  Elec       q    Type
REMARK                         _______ _______ _______ _____ _____    ______ ____
ROOT
ATOM      1  C   UNL     1     102.915 126.848  81.274  0.00  0.00    +0.000 C 
ENDROOT
BRANCH   1   2
ATOM      2  C   UNL     1     103.552 125.474  81.436  0.00  0.00    +0.000 A 
ATOM      3  C   UNL     1     104.128 124.846  80.320  0.00  0.00    +0.000 A 
ATOM      4  C   UNL     1     104.730 123.591  80.437  0.00  0.00    +0.000 A 
ATOM      5  C   UNL     1     104.768 122.954  81.674  0.00  0.00    +0.000 A 
ATOM      6  C   UNL     1     104.211 123.565  82.795  0.00  0.00    +0.000 A 
ATOM      7  C   UNL     1     103.609 124.821  82.678  0.00  0.00    +0.000 A 
ATOM      8 CL   UNL     1     105.508 121.409  81.821  0.00  0.00    +0.000 Cl
ENDBRANCH   1   2
BRANCH   1   9
ATOM      9  C   UNL     1     103.823 127.754  80.462  0.00  0.00    +0.000 C 
ATOM     10  O   UNL     1     104.348 128.769  80.913  0.00  0.00    +0.000 OA
ENDBRANCH   1   9
BRANCH   1  11
ATOM     11  C   UNL     1     102.575 127.498  82.629  0.00  0.00    +0.000 C 
BRANCH  11  15
ATOM     12  C   UNL     1      98.329 127.958  83.254  0.00  0.00    +0.000 A 
ATOM     13  C   UNL     1      98.819 126.840  82.583  0.00  0.00    +0.000 A 
ATOM     14  C   UNL     1     100.192 126.688  82.385  0.00  0.00    +0.000 A 
ATOM     15  C   UNL     1     101.089 127.657  82.857  0.00  0.00    +0.000 A 
ATOM     16  C   UNL     1     100.586 128.777  83.533  0.00  0.00    +0.000 A 
ATOM     17  C   UNL     1      99.212 128.925  83.730  0.00  0.00    +0.000 A 
ENDBRANCH  11  15
ENDBRANCH   1  11
TORSDOF 4
ENDMDL
