MODEL 1
REMARK VINA RESULT:      -4.5      0.000      0.000
REMARK  Name = *****
REMARK  3 active torsions:
REMARK  status: ('A' for Active; 'I' for Inactive)
REMARK    1  A    between atoms: C_1  and  C_2
REMARK    2  A    between atoms: C_5  and  C_8
REMARK    3  A    between atoms: C_9  and  C_10
REMARK                            x       y       z     vdW  Elec       q    Type
REMARK                         _______ _______ _______ _____ _____    ______ ____
ROOT
ATOM      1  C   UNL     1      98.848 119.242  84.504  0.00  0.00    +0.000 C 
ATOM      2  C   UNL     1      98.366 118.748  83.172  0.00  0.00    +0.000 A 
ATOM      3  C   UNL     1      97.626 117.563  83.068  0.00  0.00    +0.000 A 
ATOM      4  C   UNL     1      97.216 117.088  81.816  0.00  0.00    +0.000 A 
ATOM      5  C   UNL     1      97.547 117.792  80.653  0.00  0.00    +0.000 A 
ATOM      6  C   UNL     1      98.273 118.983  80.757  0.00  0.00    +0.000 A 
ATOM      7  C   UNL     1      98.681 119.457  82.007  0.00  0.00    +0.000 A 
ATOM      8 BR   UNL     1      96.225 115.465  81.773  0.00  0.00    +0.000 Br
ENDROOT
BRANCH   5   9
ATOM      9  C   UNL     1      97.207 117.314  79.345  0.00  0.00    +0.000 C 
ATOM     10  C   UNL     1      96.976 116.883  78.247  0.00  0.00    +0.000 C 
BRANCH  10  11
ATOM     11  C   UNL     1      96.760 116.326  76.948  0.00  0.00    +0.000 A 
ATOM     12  C   UNL     1      96.420 117.161  75.882  0.00  0.00    +0.000 A 
ATOM     13  C   UNL     1      96.169 116.617  74.621  0.00  0.00    +0.000 A 
ATOM     14  C   UNL     1      96.260 115.238  74.425  0.00  0.00    +0.000 A 
ATOM     15  C   UNL     1      96.605 114.404  75.489  0.00  0.00    +0.000 A 
ATOM     16  C   UNL     1      96.855 114.947  76.750  0.00  0.00    +0.000 A 
ENDBRANCH  10  11
ENDBRANCH   5   9
TORSDOF 2
ENDMDL
