MODEL 1
REMARK VINA RESULT:      -4.0      0.000      0.000
REMARK  Name = *****
REMARK  4 active torsions:
REMARK  status: ('A' for Active; 'I' for Inactive)
REMARK    1  A    between atoms: C_2  and  C_7
REMARK    2  A    between atoms: C_7  and  O_8
REMARK    3  A    between atoms: O_8  and  C_9
REMARK    4  A    between atoms: C_9  and  C_11
REMARK                            x       y       z     vdW  Elec       q    Type
REMARK                         _______ _______ _______ _____ _____    ______ ____
ROOT
ATOM      1  O   UNL     1      87.669  62.872  86.854  0.00  0.00    +0.000 OA
ENDROOT
BRANCH   1   2
ATOM      2  C   UNL     1      86.740  62.792  87.840  0.00  0.00    +0.000 C 
ATOM      3  O   UNL     1      85.598  62.384  87.698  0.00  0.00    +0.000 OA
BRANCH   2   4
ATOM      4  C   UNL     1      87.296  63.272  89.132  0.00  0.00    +0.000 A 
ATOM      5  C   UNL     1      88.670  63.474  89.330  0.00  0.00    +0.000 A 
ATOM      6  C   UNL     1      89.140  63.931  90.563  0.00  0.00    +0.000 A 
ATOM      7  C   UNL     1      88.245  64.189  91.602  0.00  0.00    +0.000 A 
ATOM      8  C   UNL     1      86.878  63.991  91.411  0.00  0.00    +0.000 A 
ATOM      9  C   UNL     1      86.403  63.536  90.180  0.00  0.00    +0.000 A 
ENDBRANCH   2   4
ENDBRANCH   1   2
BRANCH   1  10
ATOM     10  C   UNL     1      87.291  63.665  85.714  0.00  0.00    +0.000 C 
BRANCH  10  12
ATOM     11  C   UNL     1      89.766  64.039  85.426  0.00  0.00    +0.000 C 
ATOM     12  C   UNL     1      88.386  64.669  85.335  0.00  0.00    +0.000 C 
ATOM     13  S   UNL     1      88.391  66.097  86.475  0.00  0.00    +0.000 S 
ATOM     14  C   UNL     1      90.052  66.561  86.171  0.00  0.00    +0.000 C 
ATOM     15  O   UNL     1      90.522  67.621  86.549  0.00  0.00    +0.000 OA
ATOM     16  S   UNL     1      90.986  65.369  85.289  0.00  0.00    +0.000 S 
ENDBRANCH  10  12
ENDBRANCH   1  10
TORSDOF 4
ENDMDL
