MODEL 1
REMARK VINA RESULT:      -4.4      0.000      0.000
REMARK  Name = *****
REMARK  6 active torsions:
REMARK  status: ('A' for Active; 'I' for Inactive)
REMARK    1  A    between atoms: C_1  and  O_2
REMARK    2  A    between atoms: O_2  and  C_3
REMARK    3  A    between atoms: C_6  and  C_9
REMARK    4  A    between atoms: C_10  and  C_11
REMARK    5  A    between atoms: C_14  and  O_17
REMARK    6  A    between atoms: O_17  and  C_18
REMARK                            x       y       z     vdW  Elec       q    Type
REMARK                         _______ _______ _______ _____ _____    ______ ____
ROOT
ATOM      1  C   UNL     1     103.041 125.680  81.413  0.00  0.00    +0.000 C 
ATOM      2  C   UNL     1     102.349 125.807  82.557  0.00  0.00    +0.000 C 
ENDROOT
BRANCH   1   6
ATOM      3  C   UNL     1     105.884 122.534  80.759  0.00  0.00    +0.000 A 
ATOM      4  C   UNL     1     105.694 123.507  79.780  0.00  0.00    +0.000 A 
ATOM      5  C   UNL     1     104.762 124.536  79.980  0.00  0.00    +0.000 A 
ATOM      6  C   UNL     1     104.000 124.597  81.153  0.00  0.00    +0.000 A 
ATOM      7  C   UNL     1     104.208 123.625  82.137  0.00  0.00    +0.000 A 
ATOM      8  C   UNL     1     105.139 122.600  81.937  0.00  0.00    +0.000 A 
BRANCH   3  10
ATOM      9  C   UNL     1     108.130 121.801  80.500  0.00  0.00    +0.000 C 
ATOM     10  O   UNL     1     106.758 121.484  80.692  0.00  0.00    +0.000 OA
ENDBRANCH   3  10
ENDBRANCH   1   6
BRANCH   2  11
ATOM     11  C   UNL     1     101.399 126.897  82.822  0.00  0.00    +0.000 A 
ATOM     12  C   UNL     1     100.039 126.800  82.501  0.00  0.00    +0.000 A 
ATOM     13  C   UNL     1      99.155 127.845  82.799  0.00  0.00    +0.000 A 
ATOM     14  C   UNL     1      99.617 128.996  83.435  0.00  0.00    +0.000 A 
ATOM     15  C   UNL     1     100.968 129.090  83.771  0.00  0.00    +0.000 A 
ATOM     16  C   UNL     1     101.853 128.047  83.474  0.00  0.00    +0.000 A 
BRANCH  14  17
ATOM     17  O   UNL     1      98.863 130.083  83.783  0.00  0.00    +0.000 OA
ATOM     18  C   UNL     1      99.566 131.282  84.082  0.00  0.00    +0.000 C 
ENDBRANCH  14  17
ENDBRANCH   2  11
TORSDOF 4
ENDMDL
