MODEL 1
REMARK VINA RESULT:      -5.0      0.000      0.000
REMARK  Name = *****
REMARK  3 active torsions:
REMARK  status: ('A' for Active; 'I' for Inactive)
REMARK    1  A    between atoms: C_1  and  C_2
REMARK    2  A    between atoms: C_4  and  C_8
REMARK    3  A    between atoms: N_10  and  C_11
REMARK                            x       y       z     vdW  Elec       q    Type
REMARK                         _______ _______ _______ _____ _____    ______ ____
ROOT
ATOM      1  C   UNL     1     102.671 126.529  82.407  0.00  0.00    +0.000 C 
ATOM      2  O   UNL     1     103.577 126.696  83.214  0.00  0.00    +0.000 OA
ATOM      3  N   UNL     1     102.740 125.829  81.215  0.00  0.00    +0.000 N 
ATOM      4  H   UNL     1     101.935 125.848  80.650  0.00  0.00    +0.000 HD
ENDROOT
BRANCH   1   8
ATOM      5  C   UNL     1      99.904 130.365  84.163  0.00  0.00    +0.000 C 
ATOM      6  C   UNL     1     100.008 129.003  83.542  0.00  0.00    +0.000 A 
ATOM      7  C   UNL     1     101.262 128.427  83.292  0.00  0.00    +0.000 A 
ATOM      8  C   UNL     1     101.354 127.171  82.676  0.00  0.00    +0.000 A 
ATOM      9  C   UNL     1     100.192 126.505  82.273  0.00  0.00    +0.000 A 
ATOM     10  C   UNL     1      98.944 127.079  82.508  0.00  0.00    +0.000 A 
ATOM     11  C   UNL     1      98.853 128.321  83.139  0.00  0.00    +0.000 A 
ENDBRANCH   1   8
BRANCH   3  12
ATOM     12  C   UNL     1     103.836 125.090  80.719  0.00  0.00    +0.000 A 
ATOM     13  C   UNL     1     104.149 123.791  81.124  0.00  0.00    +0.000 A 
ATOM     14  C   UNL     1     105.250 123.133  80.571  0.00  0.00    +0.000 A 
ATOM     15  C   UNL     1     106.048 123.757  79.615  0.00  0.00    +0.000 A 
ATOM     16  C   UNL     1     105.741 125.051  79.204  0.00  0.00    +0.000 A 
ATOM     17  C   UNL     1     104.639 125.712  79.753  0.00  0.00    +0.000 A 
ATOM     18 CL   UNL     1     105.631 121.529  81.072  0.00  0.00    +0.000 Cl
ENDBRANCH   3  12
TORSDOF 2
ENDMDL
