MODEL 1
REMARK VINA RESULT:      -4.6      0.000      0.000
REMARK  Name = *****
REMARK  4 active torsions:
REMARK  status: ('A' for Active; 'I' for Inactive)
REMARK    1  A    between atoms: C_4  and  C_7
REMARK    2  A    between atoms: C_7  and  O_8
REMARK    3  A    between atoms: O_8  and  C_9
REMARK    4  A    between atoms: C_13  and  C_16
REMARK                            x       y       z     vdW  Elec       q    Type
REMARK                         _______ _______ _______ _____ _____    ______ ____
ROOT
ATOM      1  C   UNL     1     101.334 127.367  82.864  0.00  0.00    +0.000 A 
ATOM      2  C   UNL     1     100.300 126.570  82.355  0.00  0.00    +0.000 A 
ATOM      3  C   UNL     1      98.969 126.980  82.463  0.00  0.00    +0.000 A 
ATOM      4  C   UNL     1      98.661 128.197  83.062  0.00  0.00    +0.000 A 
ATOM      5  C   UNL     1      99.691 129.018  83.546  0.00  0.00    +0.000 A 
ATOM      6  C   UNL     1     101.026 128.606  83.461  0.00  0.00    +0.000 A 
ATOM      7 CL   UNL     1     102.302 129.560  84.148  0.00  0.00    +0.000 Cl
ENDROOT
BRANCH   5   8
ATOM      8  C   UNL     1      99.291 130.308  84.148  0.00  0.00    +0.000 C 
ATOM      9  O   UNL     1      99.450 131.307  83.448  0.00  0.00    +0.000 OA
ATOM     10 CL   UNL     1      98.761 130.328  85.810  0.00  0.00    +0.000 Cl
ENDBRANCH   5   8
BRANCH   1  11
ATOM     11  O   UNL     1     102.661 127.026  82.800  0.00  0.00    +0.000 OA
BRANCH  11  12
ATOM     12  C   UNL     1     103.187 126.644  81.528  0.00  0.00    +0.000 C 
BRANCH  12  16
ATOM     13  C   UNL     1     104.815 122.649  81.770  0.00  0.00    +0.000 A 
ATOM     14  C   UNL     1     104.767 123.307  80.543  0.00  0.00    +0.000 A 
ATOM     15  C   UNL     1     104.231 124.593  80.458  0.00  0.00    +0.000 A 
ATOM     16  C   UNL     1     103.725 125.233  81.599  0.00  0.00    +0.000 A 
ATOM     17  C   UNL     1     103.791 124.565  82.832  0.00  0.00    +0.000 A 
ATOM     18  C   UNL     1     104.328 123.279  82.914  0.00  0.00    +0.000 A 
ENDBRANCH  12  16
ENDBRANCH  11  12
ENDBRANCH   1  11
TORSDOF 4
ENDMDL
