REMARK  Name = *****
REMARK  4 active torsions:
REMARK  status: ('A' for Active; 'I' for Inactive)
REMARK    1  A    between atoms: C_1  and  C_2
REMARK    2  A    between atoms: C_4  and  C_7
REMARK    3  A    between atoms: C_8  and  C_9
REMARK    4  A    between atoms: C_11  and  C_15
REMARK                            x       y       z     vdW  Elec       q    Type
REMARK                         _______ _______ _______ _____ _____    ______ ____
ROOT
ATOM      1  C   UNL     1       7.873   3.273  -0.144  0.00  0.00    +0.000 A 
ATOM      2  C   UNL     1       7.611   4.646  -0.149  0.00  0.00    +0.000 A 
ATOM      3  C   UNL     1       8.667   5.573  -0.161  0.00  0.00    +0.000 A 
ATOM      4  C   UNL     1       9.988   5.097  -0.185  0.00  0.00    +0.000 A 
ATOM      5  C   UNL     1      10.248   3.726  -0.180  0.00  0.00    +0.000 A 
ATOM      6  C   UNL     1       9.191   2.815  -0.158  0.00  0.00    +0.000 A 
ENDROOT
BRANCH   3   7
ATOM      7  C   UNL     1       8.388   7.055  -0.190  0.00  0.00    +0.000 C 
ATOM      8  F   UNL     1       7.186   7.388   0.357  0.00  0.00    +0.000 F 
ATOM      9  F   UNL     1       9.318   7.784   0.488  0.00  0.00    +0.000 F 
ATOM     10  F   UNL     1       8.374   7.554  -1.457  0.00  0.00    +0.000 F 
ENDBRANCH   3   7
BRANCH   1  12
ATOM     11  C   UNL     1       5.872   1.566  -0.109  0.00  0.00    +0.000 C 
ATOM     12  C   UNL     1       6.789   2.341  -0.126  0.00  0.00    +0.000 C 
BRANCH  11  16
ATOM     13  C   UNL     1       1.157   0.330  -0.075  0.00  0.00    +0.000 C 
ATOM     14  C   UNL     1       2.635   0.164  -0.075  0.00  0.00    +0.000 A 
ATOM     15  N   UNL     1       3.497   1.159  -0.097  0.00  0.00    +0.000 NA
ATOM     16  C   UNL     1       4.778   0.653  -0.089  0.00  0.00    +0.000 A 
ATOM     17  C   UNL     1       4.890  -0.718  -0.060  0.00  0.00    +0.000 A 
ATOM     18  S   UNL     1       3.323  -1.415  -0.043  0.00  0.00    +0.000 S 
ENDBRANCH  11  16
ENDBRANCH   1  12
TORSDOF 3
