MODEL 1
REMARK VINA RESULT:      -4.9      0.000      0.000
REMARK  Name = *****
REMARK  5 active torsions:
REMARK  status: ('A' for Active; 'I' for Inactive)
REMARK    1  A    between atoms: C_1  and  C_2
REMARK    2  A    between atoms: C_4  and  C_17
REMARK    3  A    between atoms: C_6  and  O_8
REMARK    4  A    between atoms: O_8  and  C_9
REMARK    5  A    between atoms: C_9  and  C_11
REMARK                            x       y       z     vdW  Elec       q    Type
REMARK                         _______ _______ _______ _____ _____    ______ ____
ROOT
ATOM      1  O   UNL     1     103.362 126.371  81.971  0.00  0.00    +0.000 OA
ENDROOT
BRANCH   1   7
ATOM      2  C   UNL     1      98.462 126.759  82.559  0.00  0.00    +0.000 C 
ATOM      3  C   UNL     1      99.861 127.239  82.813  0.00  0.00    +0.000 A 
ATOM      4  C   UNL     1     100.085 128.414  83.547  0.00  0.00    +0.000 A 
ATOM      5  C   UNL     1     101.386 128.890  83.773  0.00  0.00    +0.000 A 
ATOM      6  C   UNL     1     102.469 128.200  83.217  0.00  0.00    +0.000 A 
ATOM      7  C   UNL     1     102.240 127.054  82.457  0.00  0.00    +0.000 A 
ATOM      8  C   UNL     1     100.953 126.558  82.264  0.00  0.00    +0.000 A 
ATOM      9  C   UNL     1     101.609 130.156  84.545  0.00  0.00    +0.000 C 
ENDBRANCH   1   7
BRANCH   1  10
ATOM     10  C   UNL     1     103.618 126.511  80.607  0.00  0.00    +0.000 C 
ATOM     11  O   UNL     1     103.430 127.512  79.929  0.00  0.00    +0.000 OA
BRANCH  10  12
ATOM     12  C   UNL     1     104.181 125.198  80.087  0.00  0.00    +0.000 C 
ATOM     13  C   UNL     1     104.178 124.126  81.184  0.00  0.00    +0.000 C 
ATOM     14  C   UNL     1     104.794 122.819  80.693  0.00  0.00    +0.000 C 
ATOM     15  C   UNL     1     106.199 123.037  80.139  0.00  0.00    +0.000 C 
ATOM     16  C   UNL     1     106.216 124.107  79.051  0.00  0.00    +0.000 C 
ATOM     17  C   UNL     1     105.592 125.415  79.534  0.00  0.00    +0.000 C 
ENDBRANCH  10  12
ENDBRANCH   1  10
TORSDOF 3
ENDMDL
