MODEL 1
REMARK VINA RESULT:      -4.6      0.000      0.000
REMARK  Name = *****
REMARK  3 active torsions:
REMARK  status: ('A' for Active; 'I' for Inactive)
REMARK    1  A    between atoms: C_1  and  C_2
REMARK    2  A    between atoms: C_5  and  C_8
REMARK    3  A    between atoms: C_9  and  C_10
REMARK                            x       y       z     vdW  Elec       q    Type
REMARK                         _______ _______ _______ _____ _____    ______ ____
ROOT
ATOM      1  C   UNL     1      99.121 130.319  84.389  0.00  0.00    +0.000 C 
ATOM      2  C   UNL     1      99.902 129.186  83.793  0.00  0.00    +0.000 A 
ATOM      3  C   UNL     1     101.300 129.193  83.820  0.00  0.00    +0.000 A 
ATOM      4  C   UNL     1     102.027 128.151  83.236  0.00  0.00    +0.000 A 
ATOM      5  C   UNL     1     101.369 127.083  82.613  0.00  0.00    +0.000 A 
ATOM      6  C   UNL     1      99.970 127.095  82.560  0.00  0.00    +0.000 A 
ATOM      7  C   UNL     1      99.243 128.136  83.145  0.00  0.00    +0.000 A 
ENDROOT
BRANCH   5   8
ATOM      8  C   UNL     1     102.097 125.987  81.959  0.00  0.00    +0.000 C 
ATOM      9  C   UNL     1     103.034 126.164  81.014  0.00  0.00    +0.000 C 
BRANCH   9  10
ATOM     10  C   UNL     1     103.776 125.033  80.362  0.00  0.00    +0.000 C 
ATOM     11  C   UNL     1     104.218 123.957  81.352  0.00  0.00    +0.000 C 
ATOM     12  C   UNL     1     105.323 123.202  80.619  0.00  0.00    +0.000 C 
ATOM     13  C   UNL     1     105.866 124.160  79.560  0.00  0.00    +0.000 C 
ATOM     14  C   UNL     1     105.104 125.468  79.745  0.00  0.00    +0.000 C 
ENDBRANCH   9  10
ENDBRANCH   5   8
TORSDOF 2
ENDMDL
