MODEL 1
REMARK VINA RESULT:      -4.6      0.000      0.000
REMARK  Name = *****
REMARK  4 active torsions:
REMARK  status: ('A' for Active; 'I' for Inactive)
REMARK    1  A    between atoms: C_1  and  C_2
REMARK    2  A    between atoms: C_5  and  C_8
REMARK    3  A    between atoms: C_8  and  S_10
REMARK    4  A    between atoms: S_10  and  C_11
REMARK                            x       y       z     vdW  Elec       q    Type
REMARK                         _______ _______ _______ _____ _____    ______ ____
ROOT
ATOM      1  C   UNL     1     103.386 126.881  81.610  0.00  0.00    +0.000 C 
ATOM      2  O   UNL     1     103.276 127.491  80.553  0.00  0.00    +0.000 OA
ENDROOT
BRANCH   1   7
ATOM      3  C   UNL     1     105.179 121.349  81.439  0.00  0.00    +0.000 C 
ATOM      4  C   UNL     1     104.739 122.782  81.510  0.00  0.00    +0.000 A 
ATOM      5  C   UNL     1     104.717 123.574  80.358  0.00  0.00    +0.000 A 
ATOM      6  C   UNL     1     104.277 124.899  80.419  0.00  0.00    +0.000 A 
ATOM      7  C   UNL     1     103.841 125.457  81.632  0.00  0.00    +0.000 A 
ATOM      8  C   UNL     1     103.852 124.656  82.782  0.00  0.00    +0.000 A 
ATOM      9  C   UNL     1     104.292 123.329  82.717  0.00  0.00    +0.000 A 
ENDBRANCH   1   7
BRANCH   1  10
ATOM     10  S   UNL     1     103.022 127.684  83.134  0.00  0.00    +0.000 S 
BRANCH  10  11
ATOM     11  C   UNL     1     101.243 127.748  83.041  0.00  0.00    +0.000 A 
ATOM     12  C   UNL     1     100.502 126.707  82.474  0.00  0.00    +0.000 A 
ATOM     13  C   UNL     1      99.109 126.786  82.407  0.00  0.00    +0.000 A 
ATOM     14  C   UNL     1      98.449 127.910  82.900  0.00  0.00    +0.000 A 
ATOM     15  C   UNL     1      99.180 128.959  83.455  0.00  0.00    +0.000 A 
ATOM     16  C   UNL     1     100.574 128.880  83.522  0.00  0.00    +0.000 A 
ENDBRANCH  10  11
ENDBRANCH   1  10
TORSDOF 3
ENDMDL
