MODEL 1
REMARK VINA RESULT:      -4.7      0.000      0.000
REMARK  Name = *****
REMARK  4 active torsions:
REMARK  status: ('A' for Active; 'I' for Inactive)
REMARK    1  A    between atoms: C_1  and  C_2
REMARK    2  A    between atoms: C_7  and  O_8
REMARK    3  A    between atoms: O_8  and  C_9
REMARK    4  A    between atoms: C_9  and  C_11
REMARK                            x       y       z     vdW  Elec       q    Type
REMARK                         _______ _______ _______ _____ _____    ______ ____
ROOT
ATOM      1  C   UNL     1     103.148 126.767  81.840  0.00  0.00    +0.000 C 
ATOM      2  O   UNL     1     103.175 127.580  80.930  0.00  0.00    +0.000 OA
ENDROOT
BRANCH   1   3
ATOM      3  C   UNL     1     103.710 125.391  81.712  0.00  0.00    +0.000 A 
ATOM      4  C   UNL     1     103.808 124.610  82.873  0.00  0.00    +0.000 A 
ATOM      5  C   UNL     1     104.329 123.313  82.813  0.00  0.00    +0.000 A 
ATOM      6  C   UNL     1     104.751 122.794  81.591  0.00  0.00    +0.000 A 
ATOM      7  C   UNL     1     104.658 123.559  80.430  0.00  0.00    +0.000 A 
ATOM      8  C   UNL     1     104.138 124.857  80.487  0.00  0.00    +0.000 A 
ATOM      9 CL   UNL     1     105.390 121.199  81.515  0.00  0.00    +0.000 Cl
ENDBRANCH   1   3
BRANCH   1  10
ATOM     10  O   UNL     1     102.612 126.932  83.101  0.00  0.00    +0.000 OA
BRANCH  10  17
ATOM     11  C   UNL     1     102.060 129.530  84.222  0.00  0.00    +0.000 C 
ATOM     12  C   UNL     1     101.003 128.678  83.586  0.00  0.00    +0.000 A 
ATOM     13  C   UNL     1      99.678 129.125  83.518  0.00  0.00    +0.000 A 
ATOM     14  C   UNL     1      98.686 128.329  82.937  0.00  0.00    +0.000 A 
ATOM     15  C   UNL     1      99.005 127.073  82.419  0.00  0.00    +0.000 A 
ATOM     16  C   UNL     1     100.316 126.607  82.487  0.00  0.00    +0.000 A 
ATOM     17  C   UNL     1     101.294 127.401  83.086  0.00  0.00    +0.000 A 
ENDBRANCH  10  17
ENDBRANCH   1  10
TORSDOF 3
ENDMDL
