MODEL 1
REMARK VINA RESULT:      -5.2      0.000      0.000
REMARK  Name = *****
REMARK  4 active torsions:
REMARK  status: ('A' for Active; 'I' for Inactive)
REMARK    1  A    between atoms: C_3  and  O_8
REMARK    2  A    between atoms: O_8  and  C_9
REMARK    3  A    between atoms: C_9  and  C_11
REMARK    4  A    between atoms: C_13  and  C_18
REMARK                            x       y       z     vdW  Elec       q    Type
REMARK                         _______ _______ _______ _____ _____    ______ ____
ROOT
ATOM      1  C   UNL     1     104.298 125.338  80.689  0.00  0.00    +0.000 A 
ATOM      2  C   UNL     1     104.142 124.107  81.350  0.00  0.00    +0.000 A 
ATOM      3  C   UNL     1     104.868 122.972  80.939  0.00  0.00    +0.000 A 
ATOM      4  C   UNL     1     105.763 123.093  79.868  0.00  0.00    +0.000 A 
ATOM      5  C   UNL     1     105.911 124.314  79.219  0.00  0.00    +0.000 A 
ATOM      6  C   UNL     1     105.189 125.433  79.615  0.00  0.00    +0.000 A 
ATOM      7  F   UNL     1     106.766 124.411  78.194  0.00  0.00    +0.000 F 
ENDROOT
BRANCH   3   8
ATOM      8  C   UNL     1     104.711 121.660  81.667  0.00  0.00    +0.000 C 
ATOM      9  F   UNL     1     104.112 121.813  82.879  0.00  0.00    +0.000 F 
ATOM     10  F   UNL     1     103.946 120.767  80.980  0.00  0.00    +0.000 F 
ATOM     11  F   UNL     1     105.895 121.033  81.905  0.00  0.00    +0.000 F 
ENDBRANCH   3   8
BRANCH   1  12
ATOM     12  C   UNL     1     103.549 126.565  81.081  0.00  0.00    +0.000 C 
ATOM     13  O   UNL     1     103.317 127.478  80.303  0.00  0.00    +0.000 OA
BRANCH  12  14
ATOM     14  O   UNL     1     103.187 126.486  82.412  0.00  0.00    +0.000 OA
BRANCH  14  17
ATOM     15  C   UNL     1     100.628 128.849  83.578  0.00  0.00    +0.000 A 
ATOM     16  C   UNL     1     101.869 128.263  83.325  0.00  0.00    +0.000 A 
ATOM     17  C   UNL     1     101.926 127.016  82.700  0.00  0.00    +0.000 A 
ATOM     18  C   UNL     1     100.768 126.360  82.291  0.00  0.00    +0.000 A 
ATOM     19  C   UNL     1      99.540 126.956  82.552  0.00  0.00    +0.000 A 
ATOM     20  C   UNL     1      99.459 128.191  83.192  0.00  0.00    +0.000 A 
ATOM     21  F   UNL     1      98.413 126.337  82.174  0.00  0.00    +0.000 F 
ENDBRANCH  14  17
ENDBRANCH  12  14
ENDBRANCH   1  12
TORSDOF 4
ENDMDL
