MODEL 1
REMARK VINA RESULT:      -4.6      0.000      0.000
REMARK  Name = *****
REMARK  4 active torsions:
REMARK  status: ('A' for Active; 'I' for Inactive)
REMARK    1  A    between atoms: C_1  and  C_2
REMARK    2  A    between atoms: C_2  and  N_3
REMARK    3  A    between atoms: N_3  and  C_4
REMARK    4  A    between atoms: C_10  and  C_12
REMARK                            x       y       z     vdW  Elec       q    Type
REMARK                         _______ _______ _______ _____ _____    ______ ____
ROOT
ATOM      1  N   UNL     1      87.933  64.217  87.747  0.00  0.00    +0.000 N 
ATOM      2  C   UNL     1      86.935  63.392  87.186  0.00  0.00    +0.000 C 
ATOM      3  O   UNL     1      86.771  63.128  85.996  0.00  0.00    +0.000 OA
ENDROOT
BRANCH   2   4
ATOM      4  C   UNL     1      85.897  62.833  88.066  0.00  0.00    +0.000 A 
ATOM      5  C   UNL     1      84.649  63.447  88.210  0.00  0.00    +0.000 A 
ATOM      6  C   UNL     1      83.712  62.892  89.087  0.00  0.00    +0.000 A 
ATOM      7  C   UNL     1      84.029  61.743  89.821  0.00  0.00    +0.000 A 
ATOM      8  C   UNL     1      85.286  61.155  89.685  0.00  0.00    +0.000 A 
ATOM      9  C   UNL     1      86.229  61.697  88.817  0.00  0.00    +0.000 A 
ATOM     10 CL   UNL     1      85.673  59.748  90.595  0.00  0.00    +0.000 Cl
ATOM     11 CL   UNL     1      84.213  64.873  87.346  0.00  0.00    +0.000 Cl
ENDBRANCH   2   4
BRANCH   1  12
ATOM     12  C   UNL     1      89.004  64.742  86.920  0.00  0.00    +0.000 A 
ATOM     13  C   UNL     1      89.253  66.122  86.828  0.00  0.00    +0.000 A 
ATOM     14  C   UNL     1      90.290  66.631  86.035  0.00  0.00    +0.000 A 
ATOM     15  C   UNL     1      91.112  65.767  85.321  0.00  0.00    +0.000 A 
ATOM     16  C   UNL     1      90.897  64.398  85.406  0.00  0.00    +0.000 A 
ATOM     17  C   UNL     1      89.856  63.894  86.196  0.00  0.00    +0.000 A 
ENDBRANCH   1  12
BRANCH   1  19
ATOM     18  C   UNL     1      88.977  63.846  89.990  0.00  0.00    +0.000 C 
ATOM     19  C   UNL     1      87.923  64.588  89.177  0.00  0.00    +0.000 C 
ENDBRANCH   1  19
TORSDOF 3
ENDMDL
