MODEL 1
REMARK VINA RESULT:      -4.6      0.000      0.000
REMARK  Name = *****
REMARK  3 active torsions:
REMARK  status: ('A' for Active; 'I' for Inactive)
REMARK    1  A    between atoms: C_1  and  C_2
REMARK    2  A    between atoms: C_7  and  C_8
REMARK    3  A    between atoms: C_9  and  C_10
REMARK                            x       y       z     vdW  Elec       q    Type
REMARK                         _______ _______ _______ _____ _____    ______ ____
ROOT
ATOM      1  C   UNL     1     102.950 126.123  81.075  0.00  0.00    +0.000 C 
ATOM      2  C   UNL     1     101.956 125.885  81.946  0.00  0.00    +0.000 C 
ENDROOT
BRANCH   1   9
ATOM      3  C   UNL     1     104.809 122.728  80.914  0.00  0.00    +0.000 C 
ATOM      4  C   UNL     1     104.221 123.991  81.561  0.00  0.00    +0.000 C 
ATOM      5  C   UNL     1     105.204 124.580  82.595  0.00  0.00    +0.000 C 
ATOM      6  C   UNL     1     106.271 125.448  81.994  0.00  0.00    +0.000 C 
ATOM      7  C   UNL     1     106.218 125.920  80.740  0.00  0.00    +0.000 C 
ATOM      8  C   UNL     1     105.072 125.650  79.804  0.00  0.00    +0.000 C 
ATOM      9  C   UNL     1     103.828 125.033  80.484  0.00  0.00    +0.000 C 
ENDBRANCH   1   9
BRANCH   2  10
ATOM     10  C   UNL     1     101.099 126.926  82.531  0.00  0.00    +0.000 A 
ATOM     11  C   UNL     1     101.621 128.049  83.185  0.00  0.00    +0.000 A 
ATOM     12  C   UNL     1     100.773 129.033  83.700  0.00  0.00    +0.000 A 
ATOM     13  C   UNL     1      99.393 128.909  83.558  0.00  0.00    +0.000 A 
ATOM     14  C   UNL     1      98.860 127.805  82.895  0.00  0.00    +0.000 A 
ATOM     15  C   UNL     1      99.710 126.822  82.380  0.00  0.00    +0.000 A 
ENDBRANCH   2  10
TORSDOF 2
ENDMDL
