REMARK  Name = *****
REMARK  3 active torsions:
REMARK  status: ('A' for Active; 'I' for Inactive)
REMARK    1  A    between atoms: C_4  and  O_7
REMARK    2  A    between atoms: O_7  and  C_8
REMARK    3  A    between atoms: C_8  and  C_10
REMARK                            x       y       z     vdW  Elec       q    Type
REMARK                         _______ _______ _______ _____ _____    ______ ____
ROOT
ATOM      1  C   UNL     1       0.418  -3.432   1.297  0.00  0.00    +0.000 C 
ATOM      2  O   UNL     1       0.120  -2.922   2.367  0.00  0.00    +0.000 OA
ENDROOT
BRANCH   1   3
ATOM      3  C   UNL     1       0.701  -4.888   1.149  0.00  0.00    +0.000 A 
ATOM      4  C   UNL     1       0.986  -5.484  -0.089  0.00  0.00    +0.000 A 
ATOM      5  C   UNL     1       1.241  -6.858  -0.166  0.00  0.00    +0.000 A 
ATOM      6  C   UNL     1       1.212  -7.637   0.989  0.00  0.00    +0.000 A 
ATOM      7  C   UNL     1       0.929  -7.058   2.224  0.00  0.00    +0.000 A 
ATOM      8  C   UNL     1       0.673  -5.686   2.304  0.00  0.00    +0.000 A 
ATOM      9 CL   UNL     1       1.527  -9.325   0.888  0.00  0.00    +0.000 Cl
ENDBRANCH   1   3
BRANCH   1  10
ATOM     10  O   UNL     1       0.559  -2.809   0.090  0.00  0.00    +0.000 OA
BRANCH  10  14
ATOM     11  C   UNL     1      -0.303   1.371   0.253  0.00  0.00    +0.000 C 
ATOM     12  C   UNL     1      -1.413   0.416  -0.178  0.00  0.00    +0.000 C 
ATOM     13  C   UNL     1      -1.137  -1.007   0.319  0.00  0.00    +0.000 C 
ATOM     14  C   UNL     1       0.293  -1.426   0.094  0.00  0.00    +0.000 C 
ATOM     15  C   UNL     1       1.271  -0.560  -0.211  0.00  0.00    +0.000 C 
ATOM     16  C   UNL     1       1.058   0.923  -0.287  0.00  0.00    +0.000 C 
ENDBRANCH  10  14
ENDBRANCH   1  10
TORSDOF 3
