MODEL 1
REMARK VINA RESULT:      -5.2      0.000      0.000
REMARK  Name = *****
REMARK  1 active torsions:
REMARK  status: ('A' for Active; 'I' for Inactive)
REMARK    1  A    between atoms: C_8  and  C_10
REMARK                            x       y       z     vdW  Elec       q    Type
REMARK                         _______ _______ _______ _____ _____    ______ ____
ROOT
ATOM      1  C   UNL     1     103.387 125.342  81.629  0.00  0.00    +0.000 A 
ATOM      2  C   UNL     1     103.748 124.214  82.389  0.00  0.00    +0.000 A 
ATOM      3  C   UNL     1     104.669 123.294  81.894  0.00  0.00    +0.000 A 
ATOM      4  C   UNL     1     105.248 123.475  80.647  0.00  0.00    +0.000 A 
ATOM      5  C   UNL     1     104.904 124.582  79.887  0.00  0.00    +0.000 A 
ATOM      6  C   UNL     1     103.983 125.509  80.371  0.00  0.00    +0.000 A 
ATOM      7  F   UNL     1     103.687 126.567  79.602  0.00  0.00    +0.000 F 
ATOM      8  F   UNL     1     105.462 124.764  78.682  0.00  0.00    +0.000 F 
ATOM      9  F   UNL     1     106.134 122.585  80.180  0.00  0.00    +0.000 F 
ATOM     10  F   UNL     1     104.993 122.228  82.638  0.00  0.00    +0.000 F 
ENDROOT
BRANCH   1  18
ATOM     11  C   UNL     1      99.621 129.274  83.947  0.00  0.00    +0.000 A 
ATOM     12  C   UNL     1      98.681 128.396  83.392  0.00  0.00    +0.000 A 
ATOM     13  C   UNL     1      99.077 127.245  82.699  0.00  0.00    +0.000 A 
ATOM     14  C   UNL     1     100.448 127.043  82.605  0.00  0.00    +0.000 A 
ATOM     15  C   UNL     1     101.409 127.883  83.141  0.00  0.00    +0.000 A 
ATOM     16  C   UNL     1     100.999 129.030  83.830  0.00  0.00    +0.000 A 
ATOM     17  N   UNL     1     102.660 127.389  82.869  0.00  0.00    +0.000 NA
ATOM     18  C   UNL     1     102.421 126.284  82.182  0.00  0.00    +0.000 A 
ATOM     19  O   UNL     1     101.092 126.012  81.989  0.00  0.00    +0.000 OA
ENDBRANCH   1  18
TORSDOF 1
ENDMDL
