MODEL 1
REMARK VINA RESULT:      -4.6      0.000      0.000
REMARK  Name = *****
REMARK  4 active torsions:
REMARK  status: ('A' for Active; 'I' for Inactive)
REMARK    1  A    between atoms: C_1  and  C_2
REMARK    2  A    between atoms: C_5  and  O_8
REMARK    3  A    between atoms: O_8  and  C_9
REMARK    4  A    between atoms: C_9  and  C_11
REMARK                            x       y       z     vdW  Elec       q    Type
REMARK                         _______ _______ _______ _____ _____    ______ ____
ROOT
ATOM      1  C   UNL     1     104.535 124.642  80.270  0.00  0.00    +0.000 C 
ATOM      2  O   UNL     1     105.527 125.040  79.680  0.00  0.00    +0.000 OA
ENDROOT
BRANCH   1   3
ATOM      3  C   UNL     1     104.549 123.448  81.164  0.00  0.00    +0.000 A 
ATOM      4  C   UNL     1     104.646 122.181  80.567  0.00  0.00    +0.000 A 
ATOM      5  C   UNL     1     104.663 121.026  81.355  0.00  0.00    +0.000 A 
ATOM      6  C   UNL     1     104.585 121.135  82.742  0.00  0.00    +0.000 A 
ATOM      7  C   UNL     1     104.488 122.387  83.348  0.00  0.00    +0.000 A 
ATOM      8  C   UNL     1     104.470 123.544  82.562  0.00  0.00    +0.000 A 
ATOM      9 CL   UNL     1     104.606 119.715  83.714  0.00  0.00    +0.000 Cl
ENDBRANCH   1   3
BRANCH   1  10
ATOM     10  O   UNL     1     103.264 125.185  80.241  0.00  0.00    +0.000 OA
BRANCH  10  15
ATOM     11  C   UNL     1     101.906 129.186  84.050  0.00  0.00    +0.000 C 
ATOM     12  C   UNL     1     102.296 128.119  83.069  0.00  0.00    +0.000 A 
ATOM     13  C   UNL     1     103.411 128.296  82.238  0.00  0.00    +0.000 A 
ATOM     14  C   UNL     1     103.759 127.321  81.302  0.00  0.00    +0.000 A 
ATOM     15  C   UNL     1     102.992 126.162  81.207  0.00  0.00    +0.000 A 
ATOM     16  C   UNL     1     101.860 125.984  81.998  0.00  0.00    +0.000 A 
ATOM     17  C   UNL     1     101.514 126.963  82.930  0.00  0.00    +0.000 A 
ENDBRANCH  10  15
ENDBRANCH   1  10
TORSDOF 3
ENDMDL
