REMARK  Name = *****
REMARK  3 active torsions:
REMARK  status: ('A' for Active; 'I' for Inactive)
REMARK    1  A    between atoms: C_4  and  C_7
REMARK    2  A    between atoms: C_8  and  O_9
REMARK    3  A    between atoms: O_9  and  C_10
REMARK                            x       y       z     vdW  Elec       q    Type
REMARK                         _______ _______ _______ _____ _____    ______ ____
ROOT
ATOM      1  C   UNL     1      -2.788   0.501  -0.365  0.00  0.00    +0.000 C 
ATOM      2  C   UNL     1      -3.368   1.691  -0.564  0.00  0.00    +0.000 C 
ATOM      3  F   UNL     1      -3.577  -0.600  -0.374  0.00  0.00    +0.000 F 
ENDROOT
BRANCH   1   7
ATOM      4  C   UNL     1       1.364  -0.251   0.411  0.00  0.00    +0.000 A 
ATOM      5  C   UNL     1       0.394  -1.193   0.740  0.00  0.00    +0.000 A 
ATOM      6  C   UNL     1      -0.953  -0.929   0.481  0.00  0.00    +0.000 A 
ATOM      7  C   UNL     1      -1.354   0.284  -0.102  0.00  0.00    +0.000 A 
ATOM      8  C   UNL     1      -0.361   1.218  -0.437  0.00  0.00    +0.000 A 
ATOM      9  C   UNL     1       0.988   0.953  -0.179  0.00  0.00    +0.000 A 
ENDBRANCH   1   7
BRANCH   2  10
ATOM     10  O   UNL     1      -4.723   1.816  -0.785  0.00  0.00    +0.000 OA
BRANCH  10  11
ATOM     11  C   UNL     1      -5.178   3.062  -1.143  0.00  0.00    +0.000 A 
ATOM     12  C   UNL     1      -4.738   3.695  -2.307  0.00  0.00    +0.000 A 
ATOM     13  C   UNL     1      -5.254   4.946  -2.649  0.00  0.00    +0.000 A 
ATOM     14  C   UNL     1      -6.216   5.550  -1.837  0.00  0.00    +0.000 A 
ATOM     15  C   UNL     1      -6.669   4.902  -0.687  0.00  0.00    +0.000 A 
ATOM     16  C   UNL     1      -6.154   3.652  -0.342  0.00  0.00    +0.000 A 
ENDBRANCH  10  11
ENDBRANCH   2  10
TORSDOF 3
