MODEL 1
REMARK VINA RESULT:      -3.3      0.000      0.000
REMARK  Name = *****
REMARK  2 active torsions:
REMARK  status: ('A' for Active; 'I' for Inactive)
REMARK    1  A    between atoms: P_4  and  S_7
REMARK    2  A    between atoms: S_7  and  C_8
REMARK                            x       y       z     vdW  Elec       q    Type
REMARK                         _______ _______ _______ _____ _____    ______ ____
ROOT
ATOM      1  S   UNL     1      88.626  70.404  85.914  0.00  0.00    +0.000 S 
ENDROOT
BRANCH   1   5
ATOM      2  C   UNL     1      88.949  66.061  86.943  0.00  0.00    +0.000 C 
ATOM      3  C   UNL     1      90.181  66.606  86.225  0.00  0.00    +0.000 C 
ATOM      4  S   UNL     1      89.696  67.473  84.698  0.00  0.00    +0.000 S 
ATOM      5  P   UNL     1      87.932  68.453  85.403  0.00  0.00    +0.000 P 
ATOM      6  S   UNL     1      86.403  68.309  84.183  0.00  0.00    +0.000 S 
ATOM      7  S   UNL     1      87.750  67.400  87.248  0.00  0.00    +0.000 S 
ENDBRANCH   1   5
BRANCH   1   8
ATOM      8  C   UNL     1      87.083  71.093  86.464  0.00  0.00    +0.000 A 
ATOM      9  C   UNL     1      86.776  71.131  87.828  0.00  0.00    +0.000 A 
ATOM     10  C   UNL     1      85.569  71.685  88.263  0.00  0.00    +0.000 A 
ATOM     11  C   UNL     1      84.672  72.215  87.339  0.00  0.00    +0.000 A 
ATOM     12  C   UNL     1      84.982  72.200  85.981  0.00  0.00    +0.000 A 
ATOM     13  C   UNL     1      86.188  71.648  85.545  0.00  0.00    +0.000 A 
ENDBRANCH   1   8
TORSDOF 2
ENDMDL
