REMARK  Name = *****
REMARK  6 active torsions:
REMARK  status: ('A' for Active; 'I' for Inactive)
REMARK    1  A    between atoms: C_1  and  C_2
REMARK    2  A    between atoms: C_2  and  C_4
REMARK    3  A    between atoms: C_7  and  C_11
REMARK    4  A    between atoms: C_7  and  S_12
REMARK    5  A    between atoms: S_12  and  C_13
REMARK    6  A    between atoms: C_13  and  C_14
REMARK                            x       y       z     vdW  Elec       q    Type
REMARK                         _______ _______ _______ _____ _____    ______ ____
ROOT
ATOM      1  C   UNL     1       3.332   0.191   1.089  0.00  0.00    +0.000 C 
ATOM      2  C   UNL     1       4.020   1.561   1.232  0.00  0.00    +0.000 C 
ATOM      3  C   UNL     1       5.217   1.698   0.288  0.00  0.00    +0.000 C 
ATOM      4  C   UNL     1       6.272   0.596   0.491  0.00  0.00    +0.000 C 
ATOM      5  C   UNL     1       5.621  -0.796   0.575  0.00  0.00    +0.000 C 
ATOM      6  O   UNL     1       6.141  -1.819   0.123  0.00  0.00    +0.000 OA
ATOM      7  C   UNL     1       4.350  -0.915   1.400  0.00  0.00    +0.000 C 
ATOM      8  C   UNL     1       7.055   0.817   1.798  0.00  0.00    +0.000 C 
ENDROOT
BRANCH   1  10
ATOM      9  C   UNL     1       1.404   0.993  -0.418  0.00  0.00    +0.000 C 
ATOM     10  C   UNL     1       2.571   0.050  -0.233  0.00  0.00    +0.000 C 
ATOM     11  C   UNL     1       2.829  -0.864  -1.186  0.00  0.00    +0.000 C 
ENDBRANCH   1  10
BRANCH   4  12
ATOM     12  S   UNL     1       7.534   0.694  -0.863  0.00  0.00    +0.000 S 
BRANCH  12  13
ATOM     13  C   UNL     1       6.564   0.176  -2.320  0.00  0.00    +0.000 C 
BRANCH  13  14
ATOM     14  C   UNL     1       7.448   0.063  -3.539  0.00  0.00    +0.000 A 
ATOM     15  C   UNL     1       8.049  -1.160  -3.868  0.00  0.00    +0.000 A 
ATOM     16  C   UNL     1       8.874  -1.266  -4.989  0.00  0.00    +0.000 A 
ATOM     17  C   UNL     1       9.113  -0.149  -5.788  0.00  0.00    +0.000 A 
ATOM     18  C   UNL     1       8.531   1.076  -5.465  0.00  0.00    +0.000 A 
ATOM     19  C   UNL     1       7.704   1.183  -4.345  0.00  0.00    +0.000 A 
ENDBRANCH  13  14
ENDBRANCH  12  13
ENDBRANCH   4  12
TORSDOF 4
