MODEL 1
REMARK VINA RESULT:      -4.4      0.000      0.000
REMARK  Name = *****
REMARK  2 active torsions:
REMARK  status: ('A' for Active; 'I' for Inactive)
REMARK    1  A    between atoms: C_5  and  C_7
REMARK    2  A    between atoms: C_8  and  C_9
REMARK                            x       y       z     vdW  Elec       q    Type
REMARK                         _______ _______ _______ _____ _____    ______ ____
ROOT
ATOM      1  C   UNL     1      98.752 127.506  82.842  0.00  0.00    +0.000 A 
ATOM      2  C   UNL     1      99.069 128.666  83.546  0.00  0.00    +0.000 A 
ATOM      3  C   UNL     1     100.404 129.021  83.739  0.00  0.00    +0.000 A 
ATOM      4  C   UNL     1     101.427 128.216  83.223  0.00  0.00    +0.000 A 
ATOM      5  C   UNL     1     101.114 127.051  82.510  0.00  0.00    +0.000 A 
ATOM      6  C   UNL     1      99.770 126.701  82.325  0.00  0.00    +0.000 A 
ATOM      7 BR   UNL     1     103.220 128.768  83.526  0.00  0.00    +0.000 Br
ENDROOT
BRANCH   5   8
ATOM      8  C   UNL     1     102.122 126.203  81.946  0.00  0.00    +0.000 C 
ATOM      9  C   UNL     1     102.981 125.511  81.470  0.00  0.00    +0.000 C 
BRANCH   9  10
ATOM     10  C   UNL     1     104.022 124.713  80.904  0.00  0.00    +0.000 A 
ATOM     11  C   UNL     1     104.376 123.482  81.407  0.00  0.00    +0.000 A 
ATOM     12  S   UNL     1     105.663 122.772  80.527  0.00  0.00    +0.000 S 
ATOM     13  C   UNL     1     105.748 124.115  79.469  0.00  0.00    +0.000 A 
ATOM     14  C   UNL     1     104.815 125.080  79.780  0.00  0.00    +0.000 A 
ENDBRANCH   9  10
ENDBRANCH   5   8
TORSDOF 2
ENDMDL
