REMARK  Name = *****
REMARK  5 active torsions:
REMARK  status: ('A' for Active; 'I' for Inactive)
REMARK    1  A    between atoms: C_1  and  C_2
REMARK    2  A    between atoms: C_5  and  C_8
REMARK    3  A    between atoms: C_8  and  C_17
REMARK    4  A    between atoms: N_9  and  C_10
REMARK    5  A    between atoms: C_14  and  C_16
REMARK                            x       y       z     vdW  Elec       q    Type
REMARK                         _______ _______ _______ _____ _____    ______ ____
ROOT
ATOM      1  C   UNL     1      -3.328  -0.001  -0.056  0.00  0.00    +0.000 C 
ATOM      2  N   UNL     1      -3.992  -1.058   0.308  0.00  0.00    +0.000 NA
ATOM      3  C   UNL     1      -4.084   1.307  -0.101  0.00  0.00    +0.000 C 
ENDROOT
BRANCH   1   8
ATOM      4  C   UNL     1       2.255   0.328  -1.523  0.00  0.00    +0.000 C 
ATOM      5  C   UNL     1       0.812   0.218  -1.125  0.00  0.00    +0.000 A 
ATOM      6  C   UNL     1      -0.067  -0.584  -1.867  0.00  0.00    +0.000 A 
ATOM      7  C   UNL     1      -1.416  -0.665  -1.518  0.00  0.00    +0.000 A 
ATOM      8  C   UNL     1      -1.892   0.061  -0.426  0.00  0.00    +0.000 A 
ATOM      9  C   UNL     1      -1.032   0.881   0.309  0.00  0.00    +0.000 A 
ATOM     10  C   UNL     1       0.316   0.960  -0.045  0.00  0.00    +0.000 A 
ENDBRANCH   1   8
BRANCH   2  11
ATOM     11  C   UNL     1      -3.365  -2.306   0.433  0.00  0.00    +0.000 A 
ATOM     12  C   UNL     1      -2.477  -2.574   1.478  0.00  0.00    +0.000 A 
ATOM     13  C   UNL     1      -1.889  -3.834   1.599  0.00  0.00    +0.000 A 
ATOM     14  C   UNL     1      -2.198  -4.840   0.683  0.00  0.00    +0.000 A 
ATOM     15  C   UNL     1      -3.096  -4.594  -0.362  0.00  0.00    +0.000 A 
ATOM     16  C   UNL     1      -3.689  -3.328  -0.464  0.00  0.00    +0.000 A 
ATOM     17  C   UNL     1      -3.476  -5.688  -1.314  0.00  0.00    +0.000 C 
ENDBRANCH   2  11
TORSDOF 2
