REMARK  Name = *****
REMARK  3 active torsions:
REMARK  status: ('A' for Active; 'I' for Inactive)
REMARK    1  A    between atoms: C_4  and  O_7
REMARK    2  A    between atoms: O_7  and  C_8
REMARK    3  A    between atoms: C_8  and  C_10
REMARK                            x       y       z     vdW  Elec       q    Type
REMARK                         _______ _______ _______ _____ _____    ______ ____
ROOT
ATOM      1  C   UNL     1       3.348  -2.071   0.431  0.00  0.00    +0.000 C 
ATOM      2  S   UNL     1       3.123  -2.498   2.025  0.00  0.00    +0.000 S 
ENDROOT
BRANCH   1   3
ATOM      3  C   UNL     1       4.435  -2.534  -0.472  0.00  0.00    +0.000 A 
ATOM      4  C   UNL     1       4.926  -1.682  -1.474  0.00  0.00    +0.000 A 
ATOM      5  C   UNL     1       5.950  -2.107  -2.325  0.00  0.00    +0.000 A 
ATOM      6  C   UNL     1       6.491  -3.383  -2.182  0.00  0.00    +0.000 A 
ATOM      7  C   UNL     1       6.012  -4.237  -1.191  0.00  0.00    +0.000 A 
ATOM      8  C   UNL     1       4.988  -3.816  -0.338  0.00  0.00    +0.000 A 
ENDBRANCH   1   3
BRANCH   1   9
ATOM      9  O   UNL     1       2.531  -1.233  -0.261  0.00  0.00    +0.000 OA
BRANCH   9  13
ATOM     10  C   UNL     1      -1.363   0.464  -0.325  0.00  0.00    +0.000 C 
ATOM     11  C   UNL     1      -1.184  -0.864   0.405  0.00  0.00    +0.000 C 
ATOM     12  C   UNL     1       0.131  -1.539   0.028  0.00  0.00    +0.000 C 
ATOM     13  C   UNL     1       1.328  -0.613   0.264  0.00  0.00    +0.000 C 
ATOM     14  C   UNL     1       1.142   0.708  -0.489  0.00  0.00    +0.000 C 
ATOM     15  C   UNL     1      -0.169   1.391  -0.114  0.00  0.00    +0.000 C 
ENDBRANCH   9  13
ENDBRANCH   1   9
TORSDOF 3
