MODEL 1
REMARK VINA RESULT:      -4.7      0.000      0.000
REMARK  Name = *****
REMARK  3 active torsions:
REMARK  status: ('A' for Active; 'I' for Inactive)
REMARK    1  A    between atoms: C_1  and  C_2
REMARK    2  A    between atoms: C_4  and  N_8
REMARK    3  A    between atoms: C_9  and  C_10
REMARK                            x       y       z     vdW  Elec       q    Type
REMARK                         _______ _______ _______ _____ _____    ______ ____
ROOT
ATOM      1  N   UNL     1     101.855 125.949  82.830  0.00  0.00    +0.000 NA
ATOM      2  C   UNL     1     102.548 125.952  81.736  0.00  0.00    +0.000 C 
ENDROOT
BRANCH   1   6
ATOM      3  C   UNL     1     100.574 130.458  84.414  0.00  0.00    +0.000 C 
ATOM      4  C   UNL     1     100.241 129.182  83.699  0.00  0.00    +0.000 A 
ATOM      5  C   UNL     1     101.200 128.166  83.581  0.00  0.00    +0.000 A 
ATOM      6  C   UNL     1     100.892 126.960  82.943  0.00  0.00    +0.000 A 
ATOM      7  C   UNL     1      99.602 126.757  82.451  0.00  0.00    +0.000 A 
ATOM      8  C   UNL     1      98.633 127.754  82.576  0.00  0.00    +0.000 A 
ATOM      9  C   UNL     1      98.953 128.962  83.199  0.00  0.00    +0.000 A 
ENDBRANCH   1   6
BRANCH   2  10
ATOM     10  C   UNL     1     103.599 124.947  81.477  0.00  0.00    +0.000 A 
ATOM     11  C   UNL     1     104.190 124.838  80.214  0.00  0.00    +0.000 A 
ATOM     12  C   UNL     1     105.183 123.881  79.992  0.00  0.00    +0.000 A 
ATOM     13  C   UNL     1     105.576 123.038  81.030  0.00  0.00    +0.000 A 
ATOM     14  C   UNL     1     104.988 123.144  82.291  0.00  0.00    +0.000 A 
ATOM     15  C   UNL     1     103.995 124.101  82.518  0.00  0.00    +0.000 A 
ATOM     16 CL   UNL     1     106.798 121.858  80.757  0.00  0.00    +0.000 Cl
ENDBRANCH   2  10
TORSDOF 2
ENDMDL
