MODEL 1
REMARK VINA RESULT:      -4.7      0.000      0.000
REMARK  Name = *****
REMARK  5 active torsions:
REMARK  status: ('A' for Active; 'I' for Inactive)
REMARK    1  A    between atoms: C_1  and  O_2
REMARK    2  A    between atoms: O_2  and  P_3
REMARK    3  A    between atoms: P_3  and  C_5
REMARK    4  A    between atoms: P_3  and  C_11
REMARK    5  A    between atoms: C_11  and  C_12
REMARK                            x       y       z     vdW  Elec       q    Type
REMARK                         _______ _______ _______ _____ _____    ______ ____
ROOT
ATOM      1  P   UNL     1      87.449  70.163  88.897  0.00  0.00    +0.000 P 
ATOM      2  O   UNL     1      86.745  69.897  90.250  0.00  0.00    +0.000 OA
ENDROOT
BRANCH   1   3
ATOM      3  C   UNL     1      86.276  71.124  87.715  0.00  0.00    +0.000 A 
ATOM      4  C   UNL     1      86.530  71.202  86.337  0.00  0.00    +0.000 A 
ATOM      5  C   UNL     1      85.641  71.889  85.502  0.00  0.00    +0.000 A 
ATOM      6  C   UNL     1      84.506  72.508  86.034  0.00  0.00    +0.000 A 
ATOM      7  C   UNL     1      84.261  72.446  87.404  0.00  0.00    +0.000 A 
ATOM      8  C   UNL     1      85.141  71.762  88.244  0.00  0.00    +0.000 A 
ENDBRANCH   1   3
BRANCH   1   9
ATOM      9  C   UNL     1      86.912  68.540  88.244  0.00  0.00    +0.000 C 
ATOM     10  F   UNL     1      86.630  67.843  89.384  0.00  0.00    +0.000 F 
ATOM     11  F   UNL     1      85.739  68.733  87.591  0.00  0.00    +0.000 F 
BRANCH   9  12
ATOM     12  C   UNL     1      87.988  67.805  87.454  0.00  0.00    +0.000 A 
ATOM     13  C   UNL     1      89.005  68.514  86.781  0.00  0.00    +0.000 A 
ATOM     14  C   UNL     1      90.032  67.841  86.116  0.00  0.00    +0.000 A 
ATOM     15  C   UNL     1      90.074  66.455  86.141  0.00  0.00    +0.000 A 
ATOM     16  C   UNL     1      89.085  65.734  86.808  0.00  0.00    +0.000 A 
ATOM     17  C   UNL     1      88.044  66.405  87.461  0.00  0.00    +0.000 A 
ATOM     18 CL   UNL     1      91.369  65.630  85.365  0.00  0.00    +0.000 Cl
ENDBRANCH   9  12
ENDBRANCH   1   9
BRANCH   1  20
ATOM     19  C   UNL     1      88.590  71.608  90.778  0.00  0.00    +0.000 C 
ATOM     20  O   UNL     1      87.958  71.697  89.514  0.00  0.00    +0.000 OA
ENDBRANCH   1  20
TORSDOF 4
ENDMDL
