MODEL 1
REMARK VINA RESULT:      -4.5      0.000      0.000
REMARK  Name = *****
REMARK  3 active torsions:
REMARK  status: ('A' for Active; 'I' for Inactive)
REMARK    1  A    between atoms: C_4  and  O_7
REMARK    2  A    between atoms: O_7  and  P_8
REMARK    3  A    between atoms: P_8  and  C_9
REMARK                            x       y       z     vdW  Elec       q    Type
REMARK                         _______ _______ _______ _____ _____    ______ ____
ROOT
ATOM      1  P   UNL     1     103.489 126.364  82.072  0.00  0.00    +0.000 P 
ATOM      2 CL   UNL     1     103.508 127.137  80.116  0.00  0.00    +0.000 Cl
ENDROOT
BRANCH   1   3
ATOM      3  C   UNL     1     104.126 124.671  81.773  0.00  0.00    +0.000 A 
ATOM      4  C   UNL     1     104.205 123.748  82.829  0.00  0.00    +0.000 A 
ATOM      5  C   UNL     1     104.660 122.444  82.614  0.00  0.00    +0.000 A 
ATOM      6  C   UNL     1     105.038 122.040  81.337  0.00  0.00    +0.000 A 
ATOM      7  C   UNL     1     104.956 122.934  80.274  0.00  0.00    +0.000 A 
ATOM      8  C   UNL     1     104.500 124.238  80.489  0.00  0.00    +0.000 A 
ENDBRANCH   1   3
BRANCH   1   9
ATOM      9  O   UNL     1     101.911 126.050  82.219  0.00  0.00    +0.000 OA
BRANCH   9  13
ATOM     10  C   UNL     1      99.114 128.903  83.401  0.00  0.00    +0.000 A 
ATOM     11  C   UNL     1      98.656 127.746  82.772  0.00  0.00    +0.000 A 
ATOM     12  C   UNL     1      99.560 126.763  82.360  0.00  0.00    +0.000 A 
ATOM     13  C   UNL     1     100.930 126.940  82.574  0.00  0.00    +0.000 A 
ATOM     14  C   UNL     1     101.381 128.097  83.215  0.00  0.00    +0.000 A 
ATOM     15  C   UNL     1     100.478 129.079  83.625  0.00  0.00    +0.000 A 
ENDBRANCH   9  13
ENDBRANCH   1   9
TORSDOF 3
ENDMDL
