MODEL 1
REMARK VINA RESULT:      -3.6      0.000      0.000
REMARK  Name = *****
REMARK  5 active torsions:
REMARK  status: ('A' for Active; 'I' for Inactive)
REMARK    1  A    between atoms: C_4  and  C_7
REMARK    2  A    between atoms: C_7  and  C_8
REMARK    3  A    between atoms: C_8  and  C_9
REMARK    4  A    between atoms: C_9  and  S_11
REMARK    5  A    between atoms: S_11  and  C_12
REMARK                            x       y       z     vdW  Elec       q    Type
REMARK                         _______ _______ _______ _____ _____    ______ ____
ROOT
ATOM      1  C   UNL     1      89.691  67.527  86.017  0.00  0.00    +0.000 C 
ATOM      2  O   UNL     1      90.696  67.059  86.538  0.00  0.00    +0.000 OA
ENDROOT
BRANCH   1   3
ATOM      3  C   UNL     1      89.484  68.991  85.707  0.00  0.00    +0.000 C 
BRANCH   3   4
ATOM      4  C   UNL     1      89.474  69.829  86.983  0.00  0.00    +0.000 C 
BRANCH   4   8
ATOM      5  C   UNL     1      85.666  71.777  87.526  0.00  0.00    +0.000 A 
ATOM      6  C   UNL     1      86.428  71.415  88.635  0.00  0.00    +0.000 A 
ATOM      7  C   UNL     1      87.664  70.789  88.461  0.00  0.00    +0.000 A 
ATOM      8  C   UNL     1      88.150  70.525  87.174  0.00  0.00    +0.000 A 
ATOM      9  C   UNL     1      87.374  70.889  86.065  0.00  0.00    +0.000 A 
ATOM     10  C   UNL     1      86.138  71.515  86.242  0.00  0.00    +0.000 A 
ENDBRANCH   4   8
ENDBRANCH   3   4
ENDBRANCH   1   3
BRANCH   1  11
ATOM     11  S   UNL     1      88.347  66.496  85.521  0.00  0.00    +0.000 S 
BRANCH  11  12
ATOM     12  C   UNL     1      87.080  67.057  86.643  0.00  0.00    +0.000 A 
ATOM     13  C   UNL     1      87.296  66.962  88.022  0.00  0.00    +0.000 A 
ATOM     14  C   UNL     1      86.324  67.411  88.920  0.00  0.00    +0.000 A 
ATOM     15  C   UNL     1      85.136  67.961  88.445  0.00  0.00    +0.000 A 
ATOM     16  C   UNL     1      84.918  68.068  87.073  0.00  0.00    +0.000 A 
ATOM     17  C   UNL     1      85.889  67.621  86.174  0.00  0.00    +0.000 A 
ENDBRANCH  11  12
ENDBRANCH   1  11
TORSDOF 5
ENDMDL
