MODEL 1
REMARK VINA RESULT:      -4.2      0.000      0.000
REMARK  Name = *****
REMARK  3 active torsions:
REMARK  status: ('A' for Active; 'I' for Inactive)
REMARK    1  A    between atoms: C_3  and  C_7
REMARK    2  A    between atoms: C_7  and  C_8
REMARK    3  A    between atoms: C_8  and  C_9
REMARK                            x       y       z     vdW  Elec       q    Type
REMARK                         _______ _______ _______ _____ _____    ______ ____
ROOT
ATOM      1  C   UNL     1      87.876  69.540  87.345  0.00  0.00    +0.000 C 
ENDROOT
BRANCH   1   4
ATOM      2  C   UNL     1      89.395  70.774  84.880  0.00  0.00    +0.000 C 
ATOM      3  C   UNL     1      89.917  70.747  86.320  0.00  0.00    +0.000 C 
ATOM      4  C   UNL     1      89.404  69.532  87.112  0.00  0.00    +0.000 C 
ATOM      5  C   UNL     1      89.836  68.238  86.388  0.00  0.00    +0.000 C 
ATOM      6  C   UNL     1      89.640  68.285  84.898  0.00  0.00    +0.000 C 
ATOM      7  C   UNL     1      89.427  69.425  84.223  0.00  0.00    +0.000 C 
ENDBRANCH   1   4
BRANCH   1   8
ATOM      8  C   UNL     1      87.392  70.741  88.165  0.00  0.00    +0.000 C 
BRANCH   8   9
ATOM      9  C   UNL     1      86.204  71.414  87.520  0.00  0.00    +0.000 A 
ATOM     10  C   UNL     1      85.149  71.902  88.302  0.00  0.00    +0.000 A 
ATOM     11  C   UNL     1      84.047  72.510  87.700  0.00  0.00    +0.000 A 
ATOM     12  C   UNL     1      83.985  72.632  86.314  0.00  0.00    +0.000 A 
ATOM     13  C   UNL     1      85.027  72.143  85.526  0.00  0.00    +0.000 A 
ATOM     14  C   UNL     1      86.131  71.535  86.125  0.00  0.00    +0.000 A 
ENDBRANCH   8   9
ENDBRANCH   1   8
TORSDOF 3
ENDMDL
