MODEL 1
REMARK VINA RESULT:      -4.5      0.000      0.000
REMARK  Name = *****
REMARK  3 active torsions:
REMARK  status: ('A' for Active; 'I' for Inactive)
REMARK    1  A    between atoms: C_5  and  O_7
REMARK    2  A    between atoms: O_7  and  C_8
REMARK    3  A    between atoms: C_8  and  C_10
REMARK                            x       y       z     vdW  Elec       q    Type
REMARK                         _______ _______ _______ _____ _____    ______ ____
ROOT
ATOM      1  C   UNL     1     103.400 127.145  81.836  0.00  0.00    +0.000 C 
ATOM      2  O   UNL     1     103.510 128.207  81.241  0.00  0.00    +0.000 OA
ENDROOT
BRANCH   1   3
ATOM      3  C   UNL     1     103.964 125.866  81.323  0.00  0.00    +0.000 A 
ATOM      4  C   UNL     1     104.608 125.770  80.084  0.00  0.00    +0.000 A 
ATOM      5  C   UNL     1     105.111 124.540  79.670  0.00  0.00    +0.000 A 
ATOM      6  C   UNL     1     104.989 123.404  80.462  0.00  0.00    +0.000 A 
ATOM      7  C   UNL     1     104.350 123.493  81.697  0.00  0.00    +0.000 A 
ATOM      8  C   UNL     1     103.839 124.721  82.126  0.00  0.00    +0.000 A 
ATOM      9  F   UNL     1     105.725 124.450  78.482  0.00  0.00    +0.000 F 
ENDBRANCH   1   3
BRANCH   1  10
ATOM     10  O   UNL     1     102.774 126.928  83.047  0.00  0.00    +0.000 OA
BRANCH  10  15
ATOM     11  C   UNL     1      99.162 126.951  82.378  0.00  0.00    +0.000 A 
ATOM     12  C   UNL     1      98.793 128.185  82.920  0.00  0.00    +0.000 A 
ATOM     13  C   UNL     1      99.754 129.008  83.513  0.00  0.00    +0.000 A 
ATOM     14  C   UNL     1     101.086 128.597  83.569  0.00  0.00    +0.000 A 
ATOM     15  C   UNL     1     101.443 127.353  83.043  0.00  0.00    +0.000 A 
ATOM     16  C   UNL     1     100.492 126.533  82.432  0.00  0.00    +0.000 A 
ATOM     17 CL   UNL     1     102.258 129.647  84.274  0.00  0.00    +0.000 Cl
ENDBRANCH  10  15
ENDBRANCH   1  10
TORSDOF 3
ENDMDL
