REMARK  Name = *****
REMARK  4 active torsions:
REMARK  status: ('A' for Active; 'I' for Inactive)
REMARK    1  A    between atoms: C_4  and  C_7
REMARK    2  A    between atoms: C_7  and  C_8
REMARK    3  A    between atoms: C_8  and  C_9
REMARK    4  A    between atoms: C_9  and  C_11
REMARK                            x       y       z     vdW  Elec       q    Type
REMARK                         _______ _______ _______ _____ _____    ______ ____
ROOT
ATOM      1  C   UNL     1       3.272  -2.095   0.026  0.00  0.00    +0.000 C 
ENDROOT
BRANCH   1   2
ATOM      2  C   UNL     1       4.690  -2.346  -0.464  0.00  0.00    +0.000 C 
ATOM      3  O   UNL     1       5.298  -1.533  -1.158  0.00  0.00    +0.000 OA
BRANCH   2   4
ATOM      4  C   UNL     1       5.359  -3.632  -0.091  0.00  0.00    +0.000 A 
ATOM      5  C   UNL     1       4.726  -4.608   0.689  0.00  0.00    +0.000 A 
ATOM      6  C   UNL     1       5.395  -5.794   1.008  0.00  0.00    +0.000 A 
ATOM      7  C   UNL     1       6.694  -6.012   0.551  0.00  0.00    +0.000 A 
ATOM      8  C   UNL     1       7.330  -5.046  -0.226  0.00  0.00    +0.000 A 
ATOM      9  C   UNL     1       6.665  -3.860  -0.546  0.00  0.00    +0.000 A 
ENDBRANCH   2   4
ENDBRANCH   1   2
BRANCH   1  10
ATOM     10  C   UNL     1       2.741  -0.729  -0.418  0.00  0.00    +0.000 C 
BRANCH  10  14
ATOM     11  C   UNL     1      -1.466   0.479  -0.135  0.00  0.00    +0.000 C 
ATOM     12  C   UNL     1      -1.115  -0.956   0.238  0.00  0.00    +0.000 C 
ATOM     13  C   UNL     1       0.264  -1.357  -0.284  0.00  0.00    +0.000 C 
ATOM     14  C   UNL     1       1.361  -0.382   0.175  0.00  0.00    +0.000 C 
ATOM     15  C   UNL     1       0.986   1.062  -0.200  0.00  0.00    +0.000 C 
ATOM     16  C   UNL     1      -0.391   1.454   0.329  0.00  0.00    +0.000 C 
ENDBRANCH  10  14
ENDBRANCH   1  10
TORSDOF 4
