MODEL 1
REMARK VINA RESULT:      -4.8      0.000      0.000
REMARK  Name = *****
REMARK  3 active torsions:
REMARK  status: ('A' for Active; 'I' for Inactive)
REMARK    1  A    between atoms: C_4  and  C_7
REMARK    2  A    between atoms: C_8  and  C_9
REMARK    3  A    between atoms: C_10  and  C_16
REMARK                            x       y       z     vdW  Elec       q    Type
REMARK                         _______ _______ _______ _____ _____    ______ ____
ROOT
ATOM      1  C   UNL     1     104.060 124.540  81.400  0.00  0.00    +0.000 A 
ATOM      2  C   UNL     1     104.687 123.597  82.227  0.00  0.00    +0.000 A 
ATOM      3  C   UNL     1     105.723 122.818  81.707  0.00  0.00    +0.000 A 
ATOM      4  C   UNL     1     106.144 122.958  80.386  0.00  0.00    +0.000 A 
ATOM      5  C   UNL     1     105.523 123.892  79.562  0.00  0.00    +0.000 A 
ATOM      6  C   UNL     1     104.486 124.679  80.068  0.00  0.00    +0.000 A 
ATOM      7  F   UNL     1     106.343 121.907  82.473  0.00  0.00    +0.000 F 
ENDROOT
BRANCH   1   9
ATOM      8  C   UNL     1     102.098 126.102  82.202  0.00  0.00    +0.000 C 
ATOM      9  C   UNL     1     102.991 125.385  81.841  0.00  0.00    +0.000 C 
BRANCH   8  13
ATOM     10  C   UNL     1      99.024 128.748  83.373  0.00  0.00    +0.000 A 
ATOM     11  C   UNL     1      98.706 127.572  82.693  0.00  0.00    +0.000 A 
ATOM     12  C   UNL     1      99.720 126.695  82.304  0.00  0.00    +0.000 A 
ATOM     13  C   UNL     1     101.052 126.994  82.596  0.00  0.00    +0.000 A 
ATOM     14  C   UNL     1     101.369 128.172  83.276  0.00  0.00    +0.000 A 
ATOM     15  C   UNL     1     100.355 129.048  83.665  0.00  0.00    +0.000 A 
ENDBRANCH   8  13
ENDBRANCH   1   9
BRANCH   2  16
ATOM     16  C   UNL     1     104.330 123.357  83.644  0.00  0.00    +0.000 C 
ATOM     17  O   UNL     1     103.822 122.326  84.065  0.00  0.00    +0.000 OA
ENDBRANCH   2  16
TORSDOF 3
ENDMDL
