MODEL 1
REMARK VINA RESULT:      -4.7      0.000      0.000
REMARK  Name = *****
REMARK  4 active torsions:
REMARK  status: ('A' for Active; 'I' for Inactive)
REMARK    1  A    between atoms: C_1  and  C_2
REMARK    2  A    between atoms: C_2  and  C_4
REMARK    3  A    between atoms: C_7  and  C_10
REMARK    4  A    between atoms: C_11  and  C_12
REMARK                            x       y       z     vdW  Elec       q    Type
REMARK                         _______ _______ _______ _____ _____    ______ ____
ROOT
ATOM      1  C   UNL     1     104.250 124.967  80.698  0.00  0.00    +0.000 A 
ATOM      2  C   UNL     1     103.683 124.569  81.917  0.00  0.00    +0.000 A 
ATOM      3  C   UNL     1     102.836 125.438  82.613  0.00  0.00    +0.000 A 
ATOM      4  C   UNL     1     102.550 126.706  82.100  0.00  0.00    +0.000 A 
ATOM      5  C   UNL     1     103.120 127.110  80.892  0.00  0.00    +0.000 A 
ATOM      6  C   UNL     1     103.968 126.245  80.195  0.00  0.00    +0.000 A 
ENDROOT
BRANCH   1   8
ATOM      7  C   UNL     1     105.298 122.634  80.328  0.00  0.00    +0.000 C 
ATOM      8  C   UNL     1     105.148 124.073  79.909  0.00  0.00    +0.000 C 
ATOM      9  O   UNL     1     105.747 124.516  78.932  0.00  0.00    +0.000 OA
ENDBRANCH   1   8
BRANCH   4  10
ATOM     10  C   UNL     1     101.662 127.578  82.804  0.00  0.00    +0.000 C 
ATOM     11  C   UNL     1     100.925 128.299  83.419  0.00  0.00    +0.000 C 
BRANCH  11  12
ATOM     12  C   UNL     1     100.053 129.147  84.173  0.00  0.00    +0.000 A 
ATOM     13  C   UNL     1      99.064 128.588  84.989  0.00  0.00    +0.000 A 
ATOM     14  C   UNL     1      98.207 129.420  85.713  0.00  0.00    +0.000 A 
ATOM     15  C   UNL     1      98.346 130.801  85.615  0.00  0.00    +0.000 A 
ATOM     16  C   UNL     1      99.327 131.366  84.808  0.00  0.00    +0.000 A 
ATOM     17  C   UNL     1     100.185 130.537  84.084  0.00  0.00    +0.000 A 
ATOM     18  F   UNL     1      97.522 131.597  86.308  0.00  0.00    +0.000 F 
ENDBRANCH  11  12
ENDBRANCH   4  10
TORSDOF 3
ENDMDL
