MODEL 1
REMARK VINA RESULT:      -4.1      0.000      0.000
REMARK  Name = *****
REMARK  2 active torsions:
REMARK  status: ('A' for Active; 'I' for Inactive)
REMARK    1  A    between atoms: C_4  and  C_7
REMARK    2  A    between atoms: C_8  and  C_9
REMARK                            x       y       z     vdW  Elec       q    Type
REMARK                         _______ _______ _______ _____ _____    ______ ____
ROOT
ATOM      1  C   UNL     1     102.279 126.214  81.960  0.00  0.00    +0.000 C 
ATOM      2  C   UNL     1     103.127 125.512  81.479  0.00  0.00    +0.000 C 
ENDROOT
BRANCH   1   6
ATOM      3  C   UNL     1      99.231 128.887  83.396  0.00  0.00    +0.000 C 
ATOM      4  C   UNL     1      98.882 127.405  83.314  0.00  0.00    +0.000 C 
ATOM      5  C   UNL     1      99.822 126.671  82.354  0.00  0.00    +0.000 C 
ATOM      6  C   UNL     1     101.272 127.048  82.532  0.00  0.00    +0.000 C 
ATOM      7  C   UNL     1     101.643 128.136  83.230  0.00  0.00    +0.000 C 
ATOM      8  C   UNL     1     100.673 129.089  83.864  0.00  0.00    +0.000 C 
ENDBRANCH   1   6
BRANCH   2   9
ATOM      9  C   UNL     1     104.133 124.677  80.910  0.00  0.00    +0.000 A 
ATOM     10  C   UNL     1     104.372 123.370  81.275  0.00  0.00    +0.000 A 
ATOM     11  C   UNL     1     105.442 122.790  80.531  0.00  0.00    +0.000 A 
ATOM     12  C   UNL     1     105.981 123.678  79.627  0.00  0.00    +0.000 A 
ATOM     13  S   UNL     1     105.196 125.198  79.678  0.00  0.00    +0.000 S 
ENDBRANCH   2   9
TORSDOF 2
ENDMDL
