MODEL 1
REMARK VINA RESULT:      -4.2      0.000      0.000
REMARK  Name = *****
REMARK  2 active torsions:
REMARK  status: ('A' for Active; 'I' for Inactive)
REMARK    1  A    between atoms: C_4  and  C_7
REMARK    2  A    between atoms: C_8  and  C_9
REMARK                            x       y       z     vdW  Elec       q    Type
REMARK                         _______ _______ _______ _____ _____    ______ ____
ROOT
ATOM      1  C   UNL     1     102.054 126.135  82.279  0.00  0.00    +0.000 C 
ATOM      2  C   UNL     1     102.935 125.378  81.972  0.00  0.00    +0.000 C 
ENDROOT
BRANCH   1   6
ATOM      3  C   UNL     1      98.980 128.827  83.341  0.00  0.00    +0.000 A 
ATOM      4  C   UNL     1     100.305 129.126  83.653  0.00  0.00    +0.000 A 
ATOM      5  C   UNL     1     101.323 128.236  83.303  0.00  0.00    +0.000 A 
ATOM      6  C   UNL     1     101.013 127.046  82.640  0.00  0.00    +0.000 A 
ATOM      7  C   UNL     1      99.685 126.748  82.329  0.00  0.00    +0.000 A 
ATOM      8  C   UNL     1      98.668 127.639  82.679  0.00  0.00    +0.000 A 
ENDBRANCH   1   6
BRANCH   2   9
ATOM      9  C   UNL     1     103.990 124.485  81.603  0.00  0.00    +0.000 A 
ATOM     10  C   UNL     1     104.441 124.382  80.303  0.00  0.00    +0.000 A 
ATOM     11  S   UNL     1     105.707 123.238  80.142  0.00  0.00    +0.000 S 
ATOM     12  C   UNL     1     105.661 122.871  81.814  0.00  0.00    +0.000 A 
ATOM     13  C   UNL     1     104.702 123.609  82.465  0.00  0.00    +0.000 A 
ATOM     14 BR   UNL     1     104.365 123.470  84.322  0.00  0.00    +0.000 Br
ENDBRANCH   2   9
TORSDOF 2
ENDMDL
