MODEL 1
REMARK VINA RESULT:      -4.4      0.000      0.000
REMARK  Name = *****
REMARK  3 active torsions:
REMARK  status: ('A' for Active; 'I' for Inactive)
REMARK    1  A    between atoms: C_4  and  O_6
REMARK    2  A    between atoms: O_6  and  C_7
REMARK    3  A    between atoms: C_7  and  C_9
REMARK                            x       y       z     vdW  Elec       q    Type
REMARK                         _______ _______ _______ _____ _____    ______ ____
ROOT
ATOM      1  C   UNL     1     102.927 126.226  81.996  0.00  0.00    +0.000 A 
ATOM      2  C   UNL     1     103.098 125.161  82.875  0.00  0.00    +0.000 A 
ATOM      3  C   UNL     1     103.814 124.038  82.473  0.00  0.00    +0.000 A 
ATOM      4  C   UNL     1     104.363 123.979  81.198  0.00  0.00    +0.000 A 
ATOM      5  C   UNL     1     104.197 125.045  80.323  0.00  0.00    +0.000 A 
ATOM      6  C   UNL     1     103.482 126.169  80.720  0.00  0.00    +0.000 A 
ATOM      7  F   UNL     1     103.355 127.199  79.871  0.00  0.00    +0.000 F 
ATOM      8  F   UNL     1     104.732 124.992  79.096  0.00  0.00    +0.000 F 
ATOM      9  F   UNL     1     105.050 122.895  80.813  0.00  0.00    +0.000 F 
ATOM     10  F   UNL     1     103.969 123.007  83.316  0.00  0.00    +0.000 F 
ATOM     11  F   UNL     1     102.559 125.190  84.102  0.00  0.00    +0.000 F 
ENDROOT
BRANCH   1  12
ATOM     12  C   UNL     1     102.189 127.407  82.437  0.00  0.00    +0.000 C 
ATOM     13  O   UNL     1     102.719 128.447  82.782  0.00  0.00    +0.000 OA
BRANCH  12  14
ATOM     14  O   UNL     1     100.869 127.113  82.436  0.00  0.00    +0.000 OA
BRANCH  14  18
ATOM     15  C   UNL     1      98.047 126.644  83.222  0.00  0.00    +0.000 C 
ATOM     16  C   UNL     1      98.850 126.357  84.491  0.00  0.00    +0.000 C 
ATOM     17  C   UNL     1      99.858 127.496  84.622  0.00  0.00    +0.000 C 
ATOM     18  C   UNL     1     100.039 128.007  83.197  0.00  0.00    +0.000 C 
ATOM     19  C   UNL     1      98.622 127.933  82.639  0.00  0.00    +0.000 C 
ENDBRANCH  14  18
ENDBRANCH  12  14
ENDBRANCH   1  12
TORSDOF 3
ENDMDL
