MODEL 1
REMARK VINA RESULT:      -4.4      0.000      0.000
REMARK  Name = *****
REMARK  3 active torsions:
REMARK  status: ('A' for Active; 'I' for Inactive)
REMARK    1  A    between atoms: C_6  and  C_7
REMARK    2  A    between atoms: C_7  and  O_9
REMARK    3  A    between atoms: O_9  and  C_10
REMARK                            x       y       z     vdW  Elec       q    Type
REMARK                         _______ _______ _______ _____ _____    ______ ____
ROOT
ATOM      1  C   UNL     1      88.098  70.509  87.934  0.00  0.00    +0.000 C 
ATOM      2  O   UNL     1      88.709  70.483  88.991  0.00  0.00    +0.000 OA
ENDROOT
BRANCH   1   8
ATOM      3  C   UNL     1      85.972  71.542  88.865  0.00  0.00    +0.000 A 
ATOM      4  C   UNL     1      84.741  72.174  88.653  0.00  0.00    +0.000 A 
ATOM      5  C   UNL     1      84.314  72.445  87.354  0.00  0.00    +0.000 A 
ATOM      6  C   UNL     1      85.105  72.091  86.262  0.00  0.00    +0.000 A 
ATOM      7  C   UNL     1      86.335  71.461  86.472  0.00  0.00    +0.000 A 
ATOM      8  C   UNL     1      86.778  71.182  87.775  0.00  0.00    +0.000 A 
ATOM      9 CL   UNL     1      82.800  73.220  87.097  0.00  0.00    +0.000 Cl
ENDBRANCH   1   8
BRANCH   1  10
ATOM     10  O   UNL     1      88.485  69.949  86.730  0.00  0.00    +0.000 OA
BRANCH  10  11
ATOM     11  C   UNL     1      88.686  68.566  86.769  0.00  0.00    +0.000 A 
ATOM     12  C   UNL     1      87.664  67.708  87.177  0.00  0.00    +0.000 A 
ATOM     13  C   UNL     1      87.880  66.329  87.150  0.00  0.00    +0.000 A 
ATOM     14  C   UNL     1      89.104  65.828  86.702  0.00  0.00    +0.000 A 
ATOM     15  C   UNL     1      90.114  66.692  86.276  0.00  0.00    +0.000 A 
ATOM     16  C   UNL     1      89.903  68.071  86.301  0.00  0.00    +0.000 A 
ATOM     17 CL   UNL     1      89.367  64.128  86.667  0.00  0.00    +0.000 Cl
ENDBRANCH  10  11
ENDBRANCH   1  10
TORSDOF 3
ENDMDL
