MODEL 1
REMARK VINA RESULT:      -4.3      0.000      0.000
REMARK  Name = *****
REMARK  1 active torsions:
REMARK  status: ('A' for Active; 'I' for Inactive)
REMARK    1  A    between atoms: C_8  and  C_10
REMARK                            x       y       z     vdW  Elec       q    Type
REMARK                         _______ _______ _______ _____ _____    ______ ____
ROOT
ATOM      1  C   UNL     1     105.730 123.488  80.315  0.00  0.00    +0.000 A 
ATOM      2  C   UNL     1     105.986 123.092  81.621  0.00  0.00    +0.000 A 
ATOM      3  C   UNL     1     105.214 123.583  82.675  0.00  0.00    +0.000 A 
ATOM      4  C   UNL     1     104.172 124.489  82.393  0.00  0.00    +0.000 A 
ATOM      5  C   UNL     1     103.897 124.902  81.089  0.00  0.00    +0.000 A 
ATOM      6  C   UNL     1     104.695 124.386  80.040  0.00  0.00    +0.000 A 
ATOM      7  C   UNL     1     102.796 125.822  81.059  0.00  0.00    +0.000 A 
ATOM      8  C   UNL     1     102.268 126.088  82.308  0.00  0.00    +0.000 A 
ATOM      9  S   UNL     1     103.100 125.221  83.522  0.00  0.00    +0.000 S 
ENDROOT
BRANCH   8  10
ATOM     10  C   UNL     1     101.171 126.955  82.660  0.00  0.00    +0.000 A 
ATOM     11  N   UNL     1     101.267 128.072  83.317  0.00  0.00    +0.000 NA
ATOM     12  S   UNL     1      99.718 128.716  83.476  0.00  0.00    +0.000 S 
ATOM     13  C   UNL     1      99.014 127.370  82.604  0.00  0.00    +0.000 A 
ATOM     14  O   UNL     1      97.823 127.248  82.369  0.00  0.00    +0.000 OA
ATOM     15  O   UNL     1      99.967 126.485  82.225  0.00  0.00    +0.000 OA
ENDBRANCH   8  10
TORSDOF 1
ENDMDL
