MODEL 1
REMARK VINA RESULT:      -4.8      0.000      0.000
REMARK  Name = *****
REMARK  4 active torsions:
REMARK  status: ('A' for Active; 'I' for Inactive)
REMARK    1  A    between atoms: C_1  and  C_2
REMARK    2  A    between atoms: C_5  and  C_8
REMARK    3  A    between atoms: C_8  and  C_9
REMARK    4  A    between atoms: C_9  and  C_11
REMARK                            x       y       z     vdW  Elec       q    Type
REMARK                         _______ _______ _______ _____ _____    ______ ____
ROOT
ATOM      1  C   UNL     1     103.680 128.067  82.407  0.00  0.00    +0.000 C 
ENDROOT
BRANCH   1   6
ATOM      2  C   UNL     1     104.874 122.698  80.479  0.00  0.00    +0.000 C 
ATOM      3  C   UNL     1     104.547 124.073  80.981  0.00  0.00    +0.000 A 
ATOM      4  C   UNL     1     104.067 125.055  80.108  0.00  0.00    +0.000 A 
ATOM      5  C   UNL     1     103.792 126.335  80.582  0.00  0.00    +0.000 A 
ATOM      6  C   UNL     1     104.004 126.678  81.919  0.00  0.00    +0.000 A 
ATOM      7  C   UNL     1     104.488 125.696  82.792  0.00  0.00    +0.000 A 
ATOM      8  C   UNL     1     104.765 124.408  82.324  0.00  0.00    +0.000 A 
ATOM      9  F   UNL     1     103.328 127.256  79.724  0.00  0.00    +0.000 F 
ENDBRANCH   1   6
BRANCH   1  10
ATOM     10  C   UNL     1     102.690 128.094  83.561  0.00  0.00    +0.000 C 
ATOM     11  O   UNL     1     103.032 128.250  84.733  0.00  0.00    +0.000 OA
BRANCH  10  12
ATOM     12  C   UNL     1     101.233 127.966  83.251  0.00  0.00    +0.000 A 
ATOM     13  C   UNL     1     100.694 126.835  82.625  0.00  0.00    +0.000 A 
ATOM     14  C   UNL     1      99.323 126.770  82.352  0.00  0.00    +0.000 A 
ATOM     15  C   UNL     1      98.488 127.831  82.699  0.00  0.00    +0.000 A 
ATOM     16  C   UNL     1      99.017 128.962  83.316  0.00  0.00    +0.000 A 
ATOM     17  C   UNL     1     100.385 129.031  83.589  0.00  0.00    +0.000 A 
ENDBRANCH  10  12
ENDBRANCH   1  10
TORSDOF 3
ENDMDL
