MODEL 1
REMARK VINA RESULT:      -4.2      0.000      0.000
REMARK  Name = *****
REMARK  4 active torsions:
REMARK  status: ('A' for Active; 'I' for Inactive)
REMARK    1  A    between atoms: C_1  and  C_2
REMARK    2  A    between atoms: C_2  and  C_11
REMARK    3  A    between atoms: N_3  and  C_4
REMARK    4  A    between atoms: C_4  and  C_5
REMARK                            x       y       z     vdW  Elec       q    Type
REMARK                         _______ _______ _______ _____ _____    ______ ____
ROOT
ATOM      1  C   UNL     1      87.958  66.960  87.134  0.00  0.00    +0.000 C 
ATOM      2  C   UNL     1      89.372  67.101  86.604  0.00  0.00    +0.000 C 
ATOM      3  N   UNL     1      90.041  68.205  86.594  0.00  0.00    +0.000 NA
ENDROOT
BRANCH   2   4
ATOM      4  C   UNL     1      90.043  65.926  86.047  0.00  0.00    +0.000 A 
ATOM      5  C   UNL     1      91.263  65.892  85.391  0.00  0.00    +0.000 A 
ATOM      6  C   UNL     1      91.630  64.582  84.967  0.00  0.00    +0.000 A 
ATOM      7  C   UNL     1      90.679  63.650  85.308  0.00  0.00    +0.000 A 
ATOM      8  S   UNL     1      89.358  64.355  86.130  0.00  0.00    +0.000 S 
ENDBRANCH   2   4
BRANCH   3   9
ATOM      9  C   UNL     1      89.452  69.435  87.111  0.00  0.00    +0.000 C 
BRANCH   9  10
ATOM     10  C   UNL     1      89.090  70.393  85.999  0.00  0.00    +0.000 A 
ATOM     11  C   UNL     1      87.762  70.806  85.815  0.00  0.00    +0.000 A 
ATOM     12  C   UNL     1      87.433  71.718  84.810  0.00  0.00    +0.000 A 
ATOM     13  C   UNL     1      88.428  72.233  83.983  0.00  0.00    +0.000 A 
ATOM     14  C   UNL     1      89.753  71.839  84.160  0.00  0.00    +0.000 A 
ATOM     15  C   UNL     1      90.084  70.927  85.165  0.00  0.00    +0.000 A 
ENDBRANCH   9  10
ENDBRANCH   3   9
TORSDOF 3
ENDMDL
