MODEL 1
REMARK VINA RESULT:      -4.8      0.000      0.000
REMARK  Name = *****
REMARK  5 active torsions:
REMARK  status: ('A' for Active; 'I' for Inactive)
REMARK    1  A    between atoms: C_1  and  C_2
REMARK    2  A    between atoms: C_6  and  S_7
REMARK    3  A    between atoms: S_7  and  C_8
REMARK    4  A    between atoms: C_11  and  C_14
REMARK    5  A    between atoms: C_17  and  C_18
REMARK                            x       y       z     vdW  Elec       q    Type
REMARK                         _______ _______ _______ _____ _____    ______ ____
ROOT
ATOM      1  C   UNL     1      88.063  64.559  85.211  0.00  0.00    +0.000 C 
ATOM      2  C   UNL     1      89.223  64.856  86.169  0.00  0.00    +0.000 C 
ATOM      3  C   UNL     1      88.732  65.566  87.440  0.00  0.00    +0.000 C 
ATOM      4  C   UNL     1      88.236  66.987  87.172  0.00  0.00    +0.000 C 
ATOM      5  C   UNL     1      89.236  67.811  86.414  0.00  0.00    +0.000 C 
ATOM      6  C   UNL     1      89.576  69.097  86.617  0.00  0.00    +0.000 C 
ATOM      7  C   UNL     1      89.940  67.123  85.285  0.00  0.00    +0.000 C 
ATOM      8  O   UNL     1      90.228  67.738  84.261  0.00  0.00    +0.000 OA
ATOM      9  C   UNL     1      90.360  65.674  85.524  0.00  0.00    +0.000 C 
ATOM     10  C   UNL     1      90.900  65.033  84.245  0.00  0.00    +0.000 C 
ENDROOT
BRANCH   6  11
ATOM     11  S   UNL     1      88.889  70.094  87.858  0.00  0.00    +0.000 S 
BRANCH  11  12
ATOM     12  C   UNL     1      87.565  70.840  86.927  0.00  0.00    +0.000 A 
ATOM     13  C   UNL     1      87.673  70.995  85.542  0.00  0.00    +0.000 A 
ATOM     14  C   UNL     1      86.630  71.576  84.815  0.00  0.00    +0.000 A 
ATOM     15  C   UNL     1      85.461  71.994  85.461  0.00  0.00    +0.000 A 
ATOM     16  C   UNL     1      85.360  71.843  86.849  0.00  0.00    +0.000 A 
ATOM     17  C   UNL     1      86.402  71.262  87.577  0.00  0.00    +0.000 A 
ATOM     18  C   UNL     1      84.358  72.649  84.683  0.00  0.00    +0.000 C 
ENDBRANCH  11  12
ENDBRANCH   6  11
TORSDOF 2
ENDMDL
