REMARK  Name = *****
REMARK  4 active torsions:
REMARK  status: ('A' for Active; 'I' for Inactive)
REMARK    1  A    between atoms: C_1  and  C_2
REMARK    2  A    between atoms: C_5  and  C_8
REMARK    3  A    between atoms: N_10  and  C_11
REMARK    4  A    between atoms: N_10  and  C_12
REMARK                            x       y       z     vdW  Elec       q    Type
REMARK                         _______ _______ _______ _____ _____    ______ ____
ROOT
ATOM      1  C   UNL     1      -2.691  -2.610  -0.239  0.00  0.00    +0.000 C 
ATOM      2  O   UNL     1      -2.031  -3.646  -0.274  0.00  0.00    +0.000 OA
ATOM      3  N   UNL     1      -4.096  -2.515  -0.266  0.00  0.00    +0.000 N 
ATOM      4  C   UNL     1      -4.738  -1.332  -0.844  0.00  0.00    +0.000 C 
ENDROOT
BRANCH   1   9
ATOM      5  C   UNL     1       0.454   2.238   0.149  0.00  0.00    +0.000 C 
ATOM      6  C   UNL     1      -0.357   0.978   0.031  0.00  0.00    +0.000 A 
ATOM      7  C   UNL     1      -0.076   0.005  -0.945  0.00  0.00    +0.000 A 
ATOM      8  C   UNL     1      -0.840  -1.159  -1.033  0.00  0.00    +0.000 A 
ATOM      9  C   UNL     1      -1.906  -1.354  -0.153  0.00  0.00    +0.000 A 
ATOM     10  C   UNL     1      -2.183  -0.410   0.841  0.00  0.00    +0.000 A 
ATOM     11  C   UNL     1      -1.415   0.753   0.926  0.00  0.00    +0.000 A 
ATOM     12 CL   UNL     1       1.219   0.208  -2.071  0.00  0.00    +0.000 Cl
ENDBRANCH   1   9
BRANCH   3  13
ATOM     13  C   UNL     1      -4.947  -3.618   0.126  0.00  0.00    +0.000 A 
ATOM     14  C   UNL     1      -4.441  -4.749   0.786  0.00  0.00    +0.000 A 
ATOM     15  C   UNL     1      -5.273  -5.804   1.184  0.00  0.00    +0.000 A 
ATOM     16  C   UNL     1      -6.639  -5.748   0.943  0.00  0.00    +0.000 A 
ATOM     17  C   UNL     1      -7.173  -4.634   0.309  0.00  0.00    +0.000 A 
ATOM     18  C   UNL     1      -6.338  -3.581  -0.088  0.00  0.00    +0.000 A 
ENDBRANCH   3  13
TORSDOF 2
