MODEL 1
REMARK VINA RESULT:      -5.1      0.000      0.000
REMARK  Name = *****
REMARK  4 active torsions:
REMARK  status: ('A' for Active; 'I' for Inactive)
REMARK    1  A    between atoms: C_4  and  N_7
REMARK    2  A    between atoms: N_7  and  C_8
REMARK    3  A    between atoms: C_8  and  C_9
REMARK    4  A    between atoms: C_12  and  C_15
REMARK                            x       y       z     vdW  Elec       q    Type
REMARK                         _______ _______ _______ _____ _____    ______ ____
ROOT
ATOM      1  C   UNL     1     100.968 126.928  82.506  0.00  0.00    +0.000 A 
ATOM      2  C   UNL     1     101.276 128.001  83.273  0.00  0.00    +0.000 A 
ATOM      3  C   UNL     1     100.211 128.567  83.972  0.00  0.00    +0.000 A 
ATOM      4  C   UNL     1      99.054 129.029  83.311  0.00  0.00    +0.000 A 
ATOM      5  C   UNL     1      98.732 127.762  82.853  0.00  0.00    +0.000 A 
ATOM      6  C   UNL     1      99.622 126.714  82.378  0.00  0.00    +0.000 A 
ENDROOT
BRANCH   4   7
ATOM      7  C   UNL     1      99.469 130.409  83.808  0.00  0.00    +0.000 C 
ATOM      8  F   UNL     1      99.379 131.432  82.872  0.00  0.00    +0.000 F 
ATOM      9  F   UNL     1      98.709 130.884  84.840  0.00  0.00    +0.000 F 
ATOM     10  F   UNL     1     100.761 130.480  84.268  0.00  0.00    +0.000 F 
ENDBRANCH   4   7
BRANCH   1  11
ATOM     11  C   UNL     1     101.951 126.009  82.075  0.00  0.00    +0.000 C 
BRANCH  11  12
ATOM     12  N   UNL     1     102.834 125.442  81.686  0.00  0.00    +0.000 NA
BRANCH  12  16
ATOM     13  C   UNL     1     105.969 123.792  79.559  0.00  0.00    +0.000 A 
ATOM     14  C   UNL     1     105.347 123.037  80.560  0.00  0.00    +0.000 A 
ATOM     15  C   UNL     1     104.293 123.579  81.294  0.00  0.00    +0.000 A 
ATOM     16  C   UNL     1     103.888 124.876  81.008  0.00  0.00    +0.000 A 
ATOM     17  C   UNL     1     104.485 125.635  80.006  0.00  0.00    +0.000 A 
ATOM     18  C   UNL     1     105.534 125.089  79.278  0.00  0.00    +0.000 A 
ENDBRANCH  12  16
ENDBRANCH  11  12
ENDBRANCH   1  11
TORSDOF 4
ENDMDL
