MODEL 1
REMARK VINA RESULT:      -4.8      0.000      0.000
REMARK  Name = *****
REMARK  1 active torsions:
REMARK  status: ('A' for Active; 'I' for Inactive)
REMARK    1  A    between atoms: C_3  and  C_12
REMARK                            x       y       z     vdW  Elec       q    Type
REMARK                         _______ _______ _______ _____ _____    ______ ____
ROOT
ATOM      1  C   UNL     1      87.194  62.724  87.332  0.00  0.00    +0.000 C 
ATOM      2  C   UNL     1      85.679  62.921  87.209  0.00  0.00    +0.000 C 
ATOM      3  C   UNL     1      84.874  63.183  88.505  0.00  0.00    +0.000 C 
ATOM      4  C   UNL     1      85.366  64.459  89.233  0.00  0.00    +0.000 C 
ATOM      5  C   UNL     1      86.656  64.309  90.003  0.00  0.00    +0.000 A 
ATOM      6  C   UNL     1      86.638  64.419  91.404  0.00  0.00    +0.000 A 
ATOM      7  C   UNL     1      87.812  64.297  92.146  0.00  0.00    +0.000 A 
ATOM      8  C   UNL     1      89.020  64.066  91.499  0.00  0.00    +0.000 A 
ATOM      9  C   UNL     1      89.053  63.957  90.109  0.00  0.00    +0.000 A 
ATOM     10  C   UNL     1      87.878  64.075  89.349  0.00  0.00    +0.000 A 
ATOM     11  C   UNL     1      87.953  63.945  87.849  0.00  0.00    +0.000 C 
ENDROOT
BRANCH   3  12
ATOM     12  C   UNL     1      84.618  61.991  89.430  0.00  0.00    +0.000 A 
ATOM     13  C   UNL     1      85.609  61.066  89.786  0.00  0.00    +0.000 A 
ATOM     14  C   UNL     1      85.321  59.978  90.619  0.00  0.00    +0.000 A 
ATOM     15  C   UNL     1      84.031  59.788  91.104  0.00  0.00    +0.000 A 
ATOM     16  C   UNL     1      83.025  60.676  90.744  0.00  0.00    +0.000 A 
ATOM     17  C   UNL     1      83.315  61.761  89.911  0.00  0.00    +0.000 A 
ENDBRANCH   3  12
TORSDOF 1
ENDMDL
