MODEL 1
REMARK VINA RESULT:      -5.1      0.000      0.000
REMARK  Name = *****
REMARK  2 active torsions:
REMARK  status: ('A' for Active; 'I' for Inactive)
REMARK    1  A    between atoms: C_1  and  C_2
REMARK    2  A    between atoms: C_2  and  C_10
REMARK                            x       y       z     vdW  Elec       q    Type
REMARK                         _______ _______ _______ _____ _____    ______ ____
ROOT
ATOM      1  C   UNL     1     103.913 127.731  80.438  0.00  0.00    +0.000 C 
ATOM      2  C   UNL     1     103.217 126.739  81.330  0.00  0.00    +0.000 C 
ATOM      3  C   UNL     1     102.127 127.072  81.971  0.00  0.00    +0.000 C 
ATOM      4  C   UNL     1     101.038 127.416  82.603  0.00  0.00    +0.000 C 
ATOM      5  C   UNL     1     100.949 128.630  83.495  0.00  0.00    +0.000 C 
ATOM      6  C   UNL     1      99.542 129.230  83.503  0.00  0.00    +0.000 C 
ATOM      7  C   UNL     1      98.483 128.179  83.838  0.00  0.00    +0.000 C 
ATOM      8  C   UNL     1      98.703 126.890  83.103  0.00  0.00    +0.000 C 
ATOM      9  C   UNL     1      99.869 126.563  82.526  0.00  0.00    +0.000 C 
ENDROOT
BRANCH   2  10
ATOM     10  C   UNL     1     103.767 125.357  81.424  0.00  0.00    +0.000 A 
ATOM     11  C   UNL     1     104.296 124.696  80.302  0.00  0.00    +0.000 A 
ATOM     12  C   UNL     1     104.810 123.398  80.398  0.00  0.00    +0.000 A 
ATOM     13  C   UNL     1     104.807 122.733  81.620  0.00  0.00    +0.000 A 
ATOM     14  C   UNL     1     104.290 123.364  82.746  0.00  0.00    +0.000 A 
ATOM     15  C   UNL     1     103.775 124.662  82.648  0.00  0.00    +0.000 A 
ENDBRANCH   2  10
TORSDOF 1
ENDMDL
