MODEL 1
REMARK VINA RESULT:      -4.0      0.000      0.000
REMARK  Name = *****
REMARK  3 active torsions:
REMARK  status: ('A' for Active; 'I' for Inactive)
REMARK    1  A    between atoms: C_4  and  C_6
REMARK    2  A    between atoms: C_6  and  O_8
REMARK    3  A    between atoms: O_8  and  C_9
REMARK                            x       y       z     vdW  Elec       q    Type
REMARK                         _______ _______ _______ _____ _____    ______ ____
ROOT
ATOM      1  O   UNL     1     101.961 127.024  83.313  0.00  0.00    +0.000 OA
ENDROOT
BRANCH   1   2
ATOM      2  C   UNL     1     102.683 126.495  82.238  0.00  0.00    +0.000 A 
ATOM      3  C   UNL     1     103.068 127.308  81.169  0.00  0.00    +0.000 A 
ATOM      4  C   UNL     1     103.834 126.760  80.142  0.00  0.00    +0.000 A 
ATOM      5  C   UNL     1     104.217 125.422  80.207  0.00  0.00    +0.000 A 
ATOM      6  C   UNL     1     103.849 124.619  81.284  0.00  0.00    +0.000 A 
ATOM      7  C   UNL     1     103.081 125.160  82.314  0.00  0.00    +0.000 A 
ATOM      8  F   UNL     1     104.956 124.901  79.221  0.00  0.00    +0.000 F 
ENDBRANCH   1   2
BRANCH   1   9
ATOM      9  C   UNL     1     100.649 127.402  83.023  0.00  0.00    +0.000 C 
ATOM     10  O   UNL     1      99.827 126.699  82.445  0.00  0.00    +0.000 OA
BRANCH   9  14
ATOM     11  C   UNL     1      99.503 130.846  84.002  0.00  0.00    +0.000 A 
ATOM     12  C   UNL     1     100.720 130.938  84.635  0.00  0.00    +0.000 A 
ATOM     13  S   UNL     1     101.648 129.515  84.451  0.00  0.00    +0.000 S 
ATOM     14  C   UNL     1     100.427 128.752  83.517  0.00  0.00    +0.000 A 
ATOM     15  C   UNL     1      99.333 129.585  83.357  0.00  0.00    +0.000 A 
ENDBRANCH   9  14
ENDBRANCH   1   9
TORSDOF 3
ENDMDL
