MODEL 1
REMARK VINA RESULT:      -4.4      0.000      0.000
REMARK  Name = *****
REMARK  5 active torsions:
REMARK  status: ('A' for Active; 'I' for Inactive)
REMARK    1  A    between atoms: C_1  and  C_2
REMARK    2  A    between atoms: C_2  and  C_4
REMARK    3  A    between atoms: C_4  and  C_5
REMARK    4  A    between atoms: C_4  and  S_11
REMARK    5  A    between atoms: S_11  and  C_12
REMARK                            x       y       z     vdW  Elec       q    Type
REMARK                         _______ _______ _______ _____ _____    ______ ____
ROOT
ATOM      1  C   UNL     1      88.592  69.725  86.183  0.00  0.00    +0.000 C 
ENDROOT
BRANCH   1   2
ATOM      2  C   UNL     1      88.015  70.434  87.401  0.00  0.00    +0.000 A 
ATOM      3  C   UNL     1      88.719  70.575  88.610  0.00  0.00    +0.000 A 
ATOM      4  C   UNL     1      88.131  71.203  89.712  0.00  0.00    +0.000 A 
ATOM      5  C   UNL     1      86.830  71.690  89.628  0.00  0.00    +0.000 A 
ATOM      6  C   UNL     1      86.111  71.548  88.444  0.00  0.00    +0.000 A 
ATOM      7  C   UNL     1      86.697  70.921  87.342  0.00  0.00    +0.000 A 
ENDBRANCH   1   2
BRANCH   1   9
ATOM      8  C   UNL     1      88.025  67.245  86.808  0.00  0.00    +0.000 C 
ATOM      9  C   UNL     1      89.057  68.310  86.519  0.00  0.00    +0.000 C 
ATOM     10  O   UNL     1      90.258  68.016  86.494  0.00  0.00    +0.000 OA
ENDBRANCH   1   9
BRANCH   1  11
ATOM     11  S   UNL     1      89.900  70.689  85.319  0.00  0.00    +0.000 S 
BRANCH  11  12
ATOM     12  C   UNL     1      88.951  71.792  84.285  0.00  0.00    +0.000 A 
ATOM     13  C   UNL     1      87.621  71.548  83.931  0.00  0.00    +0.000 A 
ATOM     14  C   UNL     1      86.926  72.453  83.125  0.00  0.00    +0.000 A 
ATOM     15  C   UNL     1      87.549  73.618  82.681  0.00  0.00    +0.000 A 
ATOM     16  C   UNL     1      88.867  73.881  83.047  0.00  0.00    +0.000 A 
ATOM     17  C   UNL     1      89.563  72.973  83.849  0.00  0.00    +0.000 A 
ENDBRANCH  11  12
ENDBRANCH   1  11
TORSDOF 4
ENDMDL
