MODEL 1
REMARK VINA RESULT:      -5.1      0.000      0.000
REMARK  Name = *****
REMARK  4 active torsions:
REMARK  status: ('A' for Active; 'I' for Inactive)
REMARK    1  A    between atoms: C_1  and  C_2
REMARK    2  A    between atoms: C_2  and  C_15
REMARK    3  A    between atoms: N_3  and  O_4
REMARK    4  A    between atoms: O_4  and  C_5
REMARK                            x       y       z     vdW  Elec       q    Type
REMARK                         _______ _______ _______ _____ _____    ______ ____
ROOT
ATOM      1  O   UNL     1      89.190  64.615  86.883  0.00  0.00    +0.000 OA
ENDROOT
BRANCH   1   2
ATOM      2  C   UNL     1      88.439  64.060  87.918  0.00  0.00    +0.000 A 
ATOM      3  N   UNL     1      88.677  64.407  89.211  0.00  0.00    +0.000 NA
ATOM      4  C   UNL     1      87.902  63.819  90.147  0.00  0.00    +0.000 A 
ATOM      5  C   UNL     1      86.903  62.907  89.858  0.00  0.00    +0.000 A 
ATOM      6  C   UNL     1      86.689  62.577  88.532  0.00  0.00    +0.000 A 
ATOM      7  C   UNL     1      87.460  63.155  87.539  0.00  0.00    +0.000 A 
ATOM      8  F   UNL     1      87.260  62.841  86.251  0.00  0.00    +0.000 F 
ATOM      9  F   UNL     1      85.731  61.696  88.208  0.00  0.00    +0.000 F 
ATOM     10  F   UNL     1      86.165  62.356  90.830  0.00  0.00    +0.000 F 
ATOM     11  F   UNL     1      88.125  64.151  91.427  0.00  0.00    +0.000 F 
ENDBRANCH   1   2
BRANCH   1  14
ATOM     12  C   UNL     1      91.078  65.898  85.458  0.00  0.00    +0.000 C 
ATOM     13  C   UNL     1      89.915  66.607  86.125  0.00  0.00    +0.000 C 
ATOM     14  N   UNL     1      88.995  65.999  86.816  0.00  0.00    +0.000 NA
BRANCH  13  15
ATOM     15  C   UNL     1      89.818  68.098  85.969  0.00  0.00    +0.000 A 
ATOM     16  C   UNL     1      89.565  68.944  87.058  0.00  0.00    +0.000 A 
ATOM     17  C   UNL     1      89.482  70.328  86.873  0.00  0.00    +0.000 A 
ATOM     18  C   UNL     1      89.653  70.878  85.604  0.00  0.00    +0.000 A 
ATOM     19  C   UNL     1      89.907  70.048  84.516  0.00  0.00    +0.000 A 
ATOM     20  C   UNL     1      89.989  68.666  84.697  0.00  0.00    +0.000 A 
ENDBRANCH  13  15
ENDBRANCH   1  14
TORSDOF 3
ENDMDL
