MODEL 1
REMARK VINA RESULT:      -4.1      0.000      0.000
REMARK  Name = *****
REMARK  3 active torsions:
REMARK  status: ('A' for Active; 'I' for Inactive)
REMARK    1  A    between atoms: C_2  and  C_3
REMARK    2  A    between atoms: C_2  and  S_9
REMARK    3  A    between atoms: S_9  and  C_12
REMARK                            x       y       z     vdW  Elec       q    Type
REMARK                         _______ _______ _______ _____ _____    ______ ____
ROOT
ATOM      1  C   UNL     1     101.505 126.103  84.886  0.00  0.00    +0.000 C 
ATOM      2  C   UNL     1     101.124 126.599  83.693  0.00  0.00    +0.000 C 
ENDROOT
BRANCH   2   3
ATOM      3  C   UNL     1     102.086 126.831  82.617  0.00  0.00    +0.000 C 
ATOM      4  C   UNL     1     102.791 127.978  82.551  0.00  0.00    +0.000 C 
ATOM      5  C   UNL     1     103.763 128.301  81.454  0.00  0.00    +0.000 C 
ATOM      6  C   UNL     1     103.644 127.369  80.250  0.00  0.00    +0.000 C 
ATOM      7  C   UNL     1     103.483 125.921  80.694  0.00  0.00    +0.000 C 
ATOM      8  C   UNL     1     102.242 125.745  81.575  0.00  0.00    +0.000 C 
ENDBRANCH   2   3
BRANCH   2   9
ATOM      9  S   UNL     1      99.418 127.004  83.496  0.00  0.00    +0.000 S 
ATOM     10  O   UNL     1      99.051 127.046  82.092  0.00  0.00    +0.000 OA
ATOM     11  O   UNL     1      98.624 126.240  84.442  0.00  0.00    +0.000 OA
BRANCH   9  12
ATOM     12  C   UNL     1      99.263 128.694  84.058  0.00  0.00    +0.000 A 
ATOM     13  C   UNL     1      99.640 129.894  83.484  0.00  0.00    +0.000 A 
ATOM     14  C   UNL     1      99.305 131.014  84.299  0.00  0.00    +0.000 A 
ATOM     15  C   UNL     1      98.688 130.632  85.469  0.00  0.00    +0.000 A 
ATOM     16  S   UNL     1      98.519 128.932  85.583  0.00  0.00    +0.000 S 
ENDBRANCH   9  12
ENDBRANCH   2   9
TORSDOF 3
ENDMDL
