MODEL 1
REMARK VINA RESULT:      -4.7      0.000      0.000
REMARK  Name = *****
REMARK  5 active torsions:
REMARK  status: ('A' for Active; 'I' for Inactive)
REMARK    1  A    between atoms: C_1  and  C_2
REMARK    2  A    between atoms: C_5  and  S_8
REMARK    3  A    between atoms: S_8  and  N_9
REMARK    4  A    between atoms: N_9  and  C_10
REMARK    5  A    between atoms: C_10  and  C_11
REMARK                            x       y       z     vdW  Elec       q    Type
REMARK                         _______ _______ _______ _____ _____    ______ ____
ROOT
ATOM      1  S   UNL     1     101.623 126.367  83.459  0.00  0.00    +0.000 S 
ATOM      2  O   UNL     1     101.402 125.561  84.640  0.00  0.00    +0.000 OA
ATOM      3  F   UNL     1     102.386 127.658  83.984  0.00  0.00    +0.000 F 
ENDROOT
BRANCH   1   8
ATOM      4  C   UNL     1     105.609 123.289  80.083  0.00  0.00    +0.000 C 
ATOM      5  C   UNL     1     104.603 124.036  80.910  0.00  0.00    +0.000 A 
ATOM      6  C   UNL     1     104.478 123.766  82.280  0.00  0.00    +0.000 A 
ATOM      7  C   UNL     1     103.572 124.482  83.062  0.00  0.00    +0.000 A 
ATOM      8  C   UNL     1     102.798 125.479  82.467  0.00  0.00    +0.000 A 
ATOM      9  C   UNL     1     102.916 125.773  81.108  0.00  0.00    +0.000 A 
ATOM     10  C   UNL     1     103.826 125.052  80.334  0.00  0.00    +0.000 A 
ENDBRANCH   1   8
BRANCH   1  11
ATOM     11  N   UNL     1     100.551 126.901  82.496  0.00  0.00    +0.000 NA
BRANCH  11  12
ATOM     12  C   UNL     1      99.184 127.081  82.967  0.00  0.00    +0.000 C 
BRANCH  12  13
ATOM     13  C   UNL     1      99.063 128.349  83.789  0.00  0.00    +0.000 A 
ATOM     14  C   UNL     1      99.469 129.585  83.263  0.00  0.00    +0.000 A 
ATOM     15  C   UNL     1      99.335 130.755  84.013  0.00  0.00    +0.000 A 
ATOM     16  C   UNL     1      98.791 130.706  85.295  0.00  0.00    +0.000 A 
ATOM     17  C   UNL     1      98.381 129.486  85.830  0.00  0.00    +0.000 A 
ATOM     18  C   UNL     1      98.514 128.315  85.081  0.00  0.00    +0.000 A 
ENDBRANCH  12  13
ENDBRANCH  11  12
ENDBRANCH   1  11
TORSDOF 4
ENDMDL
