MODEL 1
REMARK VINA RESULT:      -4.0      0.000      0.000
REMARK  Name = *****
REMARK  4 active torsions:
REMARK  status: ('A' for Active; 'I' for Inactive)
REMARK    1  A    between atoms: C_4  and  O_7
REMARK    2  A    between atoms: O_7  and  C_8
REMARK    3  A    between atoms: C_8  and  S_10
REMARK    4  A    between atoms: S_10  and  C_11
REMARK                            x       y       z     vdW  Elec       q    Type
REMARK                         _______ _______ _______ _____ _____    ______ ____
ROOT
ATOM      1  C   UNL     1      89.668  68.196  86.010  0.00  0.00    +0.000 C 
ATOM      2  O   UNL     1      90.654  67.673  86.514  0.00  0.00    +0.000 OA
ENDROOT
BRANCH   1   3
ATOM      3  O   UNL     1      89.473  69.562  85.833  0.00  0.00    +0.000 OA
BRANCH   3   7
ATOM      4  C   UNL     1      86.656  71.297  88.363  0.00  0.00    +0.000 A 
ATOM      5  C   UNL     1      87.776  70.664  88.906  0.00  0.00    +0.000 A 
ATOM      6  C   UNL     1      88.718  70.071  88.065  0.00  0.00    +0.000 A 
ATOM      7  C   UNL     1      88.514  70.106  86.687  0.00  0.00    +0.000 A 
ATOM      8  C   UNL     1      87.411  70.752  86.132  0.00  0.00    +0.000 A 
ATOM      9  C   UNL     1      86.474  71.343  86.978  0.00  0.00    +0.000 A 
ENDBRANCH   3   7
ENDBRANCH   1   3
BRANCH   1  10
ATOM     10  S   UNL     1      88.337  67.191  85.429  0.00  0.00    +0.000 S 
BRANCH  10  11
ATOM     11  C   UNL     1      87.927  66.358  86.950  0.00  0.00    +0.000 A 
ATOM     12  C   UNL     1      86.956  66.878  87.814  0.00  0.00    +0.000 A 
ATOM     13  C   UNL     1      86.640  66.213  89.003  0.00  0.00    +0.000 A 
ATOM     14  C   UNL     1      87.292  65.023  89.322  0.00  0.00    +0.000 A 
ATOM     15  C   UNL     1      88.254  64.492  88.465  0.00  0.00    +0.000 A 
ATOM     16  C   UNL     1      88.568  65.158  87.278  0.00  0.00    +0.000 A 
ATOM     17 BR   UNL     1      86.866  64.121  90.928  0.00  0.00    +0.000 Br
ENDBRANCH  10  11
ENDBRANCH   1  10
TORSDOF 4
ENDMDL
