MODEL 1
REMARK VINA RESULT:      -4.6      0.000      0.000
REMARK  Name = *****
REMARK  4 active torsions:
REMARK  status: ('A' for Active; 'I' for Inactive)
REMARK    1  A    between atoms: C_1  and  C_2
REMARK    2  A    between atoms: C_4  and  C_8
REMARK    3  A    between atoms: C_8  and  O_9
REMARK    4  A    between atoms: O_9  and  C_10
REMARK                            x       y       z     vdW  Elec       q    Type
REMARK                         _______ _______ _______ _____ _____    ______ ____
ROOT
ATOM      1  C   UNL     1     102.641 126.883  83.286  0.00  0.00    +0.000 C 
ENDROOT
BRANCH   1   5
ATOM      2  C   UNL     1      99.364 130.669  83.998  0.00  0.00    +0.000 C 
ATOM      3  C   UNL     1      99.673 129.286  83.506  0.00  0.00    +0.000 A 
ATOM      4  C   UNL     1     100.965 128.754  83.612  0.00  0.00    +0.000 A 
ATOM      5  C   UNL     1     101.252 127.462  83.148  0.00  0.00    +0.000 A 
ATOM      6  C   UNL     1     100.222 126.700  82.578  0.00  0.00    +0.000 A 
ATOM      7  C   UNL     1      98.934 127.222  82.469  0.00  0.00    +0.000 A 
ATOM      8  C   UNL     1      98.660 128.509  82.932  0.00  0.00    +0.000 A 
ENDBRANCH   1   5
BRANCH   1   9
ATOM      9  O   UNL     1     102.557 125.460  83.210  0.00  0.00    +0.000 OA
BRANCH   9  10
ATOM     10  C   UNL     1     103.411 124.830  82.346  0.00  0.00    +0.000 A 
ATOM     11  C   UNL     1     104.221 123.736  82.643  0.00  0.00    +0.000 A 
ATOM     12  C   UNL     1     105.042 123.203  81.652  0.00  0.00    +0.000 A 
ATOM     13  C   UNL     1     105.071 123.737  80.369  0.00  0.00    +0.000 A 
ATOM     14  C   UNL     1     104.264 124.830  80.069  0.00  0.00    +0.000 A 
ATOM     15  C   UNL     1     103.438 125.372  81.057  0.00  0.00    +0.000 A 
ATOM     16  F   UNL     1     105.820 122.151  81.942  0.00  0.00    +0.000 F 
ENDBRANCH   9  10
ENDBRANCH   1   9
TORSDOF 3
ENDMDL
