MODEL 1
REMARK VINA RESULT:      -4.6      0.000      0.000
REMARK  Name = *****
REMARK  3 active torsions:
REMARK  status: ('A' for Active; 'I' for Inactive)
REMARK    1  A    between atoms: C_4  and  C_7
REMARK    2  A    between atoms: C_7  and  C_8
REMARK    3  A    between atoms: C_8  and  C_10
REMARK                            x       y       z     vdW  Elec       q    Type
REMARK                         _______ _______ _______ _____ _____    ______ ____
ROOT
ATOM      1  C   UNL     1     102.844 127.163  82.910  0.00  0.00    +0.000 C 
ATOM      2  I   UNL     1     104.004 128.955  83.303  0.00  0.00    +0.000 I 
ENDROOT
BRANCH   1   6
ATOM      3  C   UNL     1      98.647 128.230  83.028  0.00  0.00    +0.000 A 
ATOM      4  C   UNL     1      99.608 129.083  83.564  0.00  0.00    +0.000 A 
ATOM      5  C   UNL     1     100.957 128.724  83.531  0.00  0.00    +0.000 A 
ATOM      6  C   UNL     1     101.366 127.504  82.964  0.00  0.00    +0.000 A 
ATOM      7  C   UNL     1     100.382 126.662  82.419  0.00  0.00    +0.000 A 
ATOM      8  C   UNL     1      99.033 127.021  82.457  0.00  0.00    +0.000 A 
ENDBRANCH   1   6
BRANCH   1   9
ATOM      9  C   UNL     1     103.318 126.567  81.585  0.00  0.00    +0.000 C 
ATOM     10  O   UNL     1     103.295 127.168  80.510  0.00  0.00    +0.000 OA
BRANCH   9  11
ATOM     11  C   UNL     1     103.851 125.173  81.584  0.00  0.00    +0.000 A 
ATOM     12  C   UNL     1     104.342 124.558  80.426  0.00  0.00    +0.000 A 
ATOM     13  C   UNL     1     104.816 123.245  80.483  0.00  0.00    +0.000 A 
ATOM     14  C   UNL     1     104.811 122.547  81.691  0.00  0.00    +0.000 A 
ATOM     15  C   UNL     1     104.340 123.161  82.849  0.00  0.00    +0.000 A 
ATOM     16  C   UNL     1     103.865 124.472  82.798  0.00  0.00    +0.000 A 
ENDBRANCH   9  11
ENDBRANCH   1   9
TORSDOF 3
ENDMDL
