MODEL 1
REMARK VINA RESULT:      -4.1      0.000      0.000
REMARK  Name = *****
REMARK  3 active torsions:
REMARK  status: ('A' for Active; 'I' for Inactive)
REMARK    1  A    between atoms: C_4  and  C_7
REMARK    2  A    between atoms: C_7  and  S_8
REMARK    3  A    between atoms: S_8  and  C_9
REMARK                            x       y       z     vdW  Elec       q    Type
REMARK                         _______ _______ _______ _____ _____    ______ ____
ROOT
ATOM      1  C   UNL     1     102.699 127.628  82.990  0.00  0.00    +0.000 C 
ENDROOT
BRANCH   1   5
ATOM      2  C   UNL     1      98.395 127.907  82.964  0.00  0.00    +0.000 A 
ATOM      3  C   UNL     1      99.157 128.936  83.513  0.00  0.00    +0.000 A 
ATOM      4  C   UNL     1     100.549 128.847  83.521  0.00  0.00    +0.000 A 
ATOM      5  C   UNL     1     101.195 127.728  82.974  0.00  0.00    +0.000 A 
ATOM      6  C   UNL     1     100.416 126.694  82.432  0.00  0.00    +0.000 A 
ATOM      7  C   UNL     1      99.024 126.785  82.426  0.00  0.00    +0.000 A 
ENDBRANCH   1   5
BRANCH   1   8
ATOM      8  S   UNL     1     103.366 127.339  81.318  0.00  0.00    +0.000 S 
BRANCH   8   9
ATOM      9  C   UNL     1     103.871 125.637  81.482  0.00  0.00    +0.000 A 
ATOM     10  C   UNL     1     103.797 125.024  82.738  0.00  0.00    +0.000 A 
ATOM     11  C   UNL     1     104.178 123.690  82.897  0.00  0.00    +0.000 A 
ATOM     12  C   UNL     1     104.628 122.958  81.800  0.00  0.00    +0.000 A 
ATOM     13  C   UNL     1     104.690 123.557  80.542  0.00  0.00    +0.000 A 
ATOM     14  C   UNL     1     104.309 124.891  80.383  0.00  0.00    +0.000 A 
ENDBRANCH   8   9
ENDBRANCH   1   8
TORSDOF 3
ENDMDL
