MODEL 1
REMARK VINA RESULT:      -5.1      0.000      0.000
REMARK  Name = *****
REMARK  5 active torsions:
REMARK  status: ('A' for Active; 'I' for Inactive)
REMARK    1  A    between atoms: C_1  and  C_2
REMARK    2  A    between atoms: C_3  and  C_18
REMARK    3  A    between atoms: C_5  and  O_8
REMARK    4  A    between atoms: O_8  and  C_9
REMARK    5  A    between atoms: C_9  and  C_11
REMARK                            x       y       z     vdW  Elec       q    Type
REMARK                         _______ _______ _______ _____ _____    ______ ____
ROOT
ATOM      1  O   UNL     1      87.977  70.489  87.846  0.00  0.00    +0.000 OA
ENDROOT
BRANCH   1   6
ATOM      2  C   UNL     1      83.313  73.023  85.764  0.00  0.00    +0.000 C 
ATOM      3  C   UNL     1      84.546  72.368  86.326  0.00  0.00    +0.000 A 
ATOM      4  C   UNL     1      84.719  72.198  87.716  0.00  0.00    +0.000 A 
ATOM      5  C   UNL     1      85.888  71.583  88.191  0.00  0.00    +0.000 A 
ATOM      6  C   UNL     1      86.867  71.150  87.298  0.00  0.00    +0.000 A 
ATOM      7  C   UNL     1      86.690  71.283  85.925  0.00  0.00    +0.000 A 
ATOM      8  C   UNL     1      85.535  71.900  85.444  0.00  0.00    +0.000 A 
ATOM      9  C   UNL     1      83.684  72.668  88.700  0.00  0.00    +0.000 C 
ENDBRANCH   1   6
BRANCH   1  10
ATOM     10  C   UNL     1      88.988  70.104  86.983  0.00  0.00    +0.000 C 
ATOM     11  O   UNL     1      89.755  70.829  86.367  0.00  0.00    +0.000 OA
BRANCH  10  12
ATOM     12  C   UNL     1      89.027  68.618  86.889  0.00  0.00    +0.000 A 
ATOM     13  C   UNL     1      90.069  67.927  86.256  0.00  0.00    +0.000 A 
ATOM     14  C   UNL     1      90.041  66.534  86.201  0.00  0.00    +0.000 A 
ATOM     15  C   UNL     1      88.987  65.818  86.770  0.00  0.00    +0.000 A 
ATOM     16  C   UNL     1      87.948  66.500  87.400  0.00  0.00    +0.000 A 
ATOM     17  C   UNL     1      87.967  67.895  87.459  0.00  0.00    +0.000 A 
ATOM     18 CL   UNL     1      91.320  65.687  85.421  0.00  0.00    +0.000 Cl
ENDBRANCH  10  12
ENDBRANCH   1  10
TORSDOF 3
ENDMDL
