REMARK  Name = *****
REMARK  4 active torsions:
REMARK  status: ('A' for Active; 'I' for Inactive)
REMARK    1  A    between atoms: C_1  and  N_2
REMARK    2  A    between atoms: N_2  and  C_3
REMARK    3  A    between atoms: N_2  and  S_9
REMARK    4  A    between atoms: S_9  and  C_10
REMARK                            x       y       z     vdW  Elec       q    Type
REMARK                         _______ _______ _______ _____ _____    ______ ____
ROOT
ATOM      1  C   UNL     1       1.738   0.418   0.264  0.00  0.00    +0.000 C 
ATOM      2  N   UNL     1       3.140   0.048   0.067  0.00  0.00    +0.000 N 
ENDROOT
BRANCH   2   3
ATOM      3  C   UNL     1       3.430  -1.189  -0.563  0.00  0.00    +0.000 A 
ATOM      4  C   UNL     1       4.754  -1.557  -0.881  0.00  0.00    +0.000 A 
ATOM      5  C   UNL     1       5.059  -2.764  -1.523  0.00  0.00    +0.000 A 
ATOM      6  C   UNL     1       4.043  -3.642  -1.874  0.00  0.00    +0.000 A 
ATOM      7  C   UNL     1       2.725  -3.308  -1.587  0.00  0.00    +0.000 A 
ATOM      8  C   UNL     1       2.426  -2.099  -0.946  0.00  0.00    +0.000 A 
ENDBRANCH   2   3
BRANCH   2   9
ATOM      9  S   UNL     1       4.225   0.684   1.191  0.00  0.00    +0.000 S 
BRANCH   9  10
ATOM     10  C   UNL     1       4.562   2.285   0.467  0.00  0.00    +0.000 A 
ATOM     11  C   UNL     1       4.657   2.475  -0.918  0.00  0.00    +0.000 A 
ATOM     12  C   UNL     1       4.936   3.739  -1.444  0.00  0.00    +0.000 A 
ATOM     13  C   UNL     1       5.126   4.818  -0.584  0.00  0.00    +0.000 A 
ATOM     14  C   UNL     1       5.043   4.644   0.796  0.00  0.00    +0.000 A 
ATOM     15  C   UNL     1       4.764   3.378   1.318  0.00  0.00    +0.000 A 
ATOM     16 BR   UNL     1       5.503   6.529  -1.293  0.00  0.00    +0.000 Br
ENDBRANCH   9  10
ENDBRANCH   2   9
TORSDOF 3
