MODEL 1
REMARK VINA RESULT:      -4.8      0.000      0.000
REMARK  Name = *****
REMARK  4 active torsions:
REMARK  status: ('A' for Active; 'I' for Inactive)
REMARK    1  A    between atoms: C_1  and  C_2
REMARK    2  A    between atoms: C_5  and  O_8
REMARK    3  A    between atoms: O_8  and  C_9
REMARK    4  A    between atoms: C_9  and  C_11
REMARK                            x       y       z     vdW  Elec       q    Type
REMARK                         _______ _______ _______ _____ _____    ______ ____
ROOT
ATOM      1  C   UNL     1      88.881  70.130  87.192  0.00  0.00    +0.000 C 
ATOM      2  O   UNL     1      89.691  70.887  86.679  0.00  0.00    +0.000 OA
ENDROOT
BRANCH   1   3
ATOM      3  C   UNL     1      88.936  68.651  87.027  0.00  0.00    +0.000 A 
ATOM      4  C   UNL     1      89.991  68.002  86.369  0.00  0.00    +0.000 A 
ATOM      5  C   UNL     1      89.977  66.612  86.247  0.00  0.00    +0.000 A 
ATOM      6  C   UNL     1      88.927  65.860  86.772  0.00  0.00    +0.000 A 
ATOM      7  C   UNL     1      87.877  66.500  87.427  0.00  0.00    +0.000 A 
ATOM      8  C   UNL     1      87.880  67.890  87.552  0.00  0.00    +0.000 A 
ATOM      9 CL   UNL     1      91.270  65.817  85.436  0.00  0.00    +0.000 Cl
ENDBRANCH   1   3
BRANCH   1  10
ATOM     10  O   UNL     1      87.801  70.468  87.988  0.00  0.00    +0.000 OA
BRANCH  10  15
ATOM     11  C   UNL     1      83.272  73.077  85.732  0.00  0.00    +0.000 C 
ATOM     12  C   UNL     1      84.490  72.423  86.313  0.00  0.00    +0.000 A 
ATOM     13  C   UNL     1      85.477  71.890  85.472  0.00  0.00    +0.000 A 
ATOM     14  C   UNL     1      86.596  71.251  86.006  0.00  0.00    +0.000 A 
ATOM     15  C   UNL     1      86.731  71.152  87.389  0.00  0.00    +0.000 A 
ATOM     16  C   UNL     1      85.745  71.644  88.240  0.00  0.00    +0.000 A 
ATOM     17  C   UNL     1      84.625  72.280  87.701  0.00  0.00    +0.000 A 
ENDBRANCH  10  15
ENDBRANCH   1  10
TORSDOF 3
ENDMDL
