REMARK  Name = *****
REMARK  4 active torsions:
REMARK  status: ('A' for Active; 'I' for Inactive)
REMARK    1  A    between atoms: C_1  and  C_2
REMARK    2  A    between atoms: C_5  and  S_8
REMARK    3  A    between atoms: S_8  and  C_10
REMARK    4  A    between atoms: C_10  and  C_11
REMARK                            x       y       z     vdW  Elec       q    Type
REMARK                         _______ _______ _______ _____ _____    ______ ____
ROOT
ATOM      1  S   UNL     1      -3.799   0.045   0.188  0.00  0.00    +0.000 S 
ATOM      2  O   UNL     1      -4.567  -0.395   1.402  0.00  0.00    +0.000 OA
ENDROOT
BRANCH   1   7
ATOM      3  C   UNL     1       2.124  -0.597   1.575  0.00  0.00    +0.000 C 
ATOM      4  C   UNL     1       0.666  -0.464   1.248  0.00  0.00    +0.000 A 
ATOM      5  C   UNL     1       0.248  -0.425  -0.088  0.00  0.00    +0.000 A 
ATOM      6  C   UNL     1      -1.106  -0.281  -0.402  0.00  0.00    +0.000 A 
ATOM      7  C   UNL     1      -2.055  -0.157   0.616  0.00  0.00    +0.000 A 
ATOM      8  C   UNL     1      -1.642  -0.197   1.950  0.00  0.00    +0.000 A 
ATOM      9  C   UNL     1      -0.288  -0.342   2.264  0.00  0.00    +0.000 A 
ENDBRANCH   1   7
BRANCH   1  10
ATOM     10  C   UNL     1      -3.841   1.871   0.164  0.00  0.00    +0.000 C 
BRANCH  10  11
ATOM     11  C   UNL     1      -3.218   2.460  -1.075  0.00  0.00    +0.000 A 
ATOM     12  C   UNL     1      -3.888   2.404  -2.307  0.00  0.00    +0.000 A 
ATOM     13  C   UNL     1      -3.302   2.939  -3.456  0.00  0.00    +0.000 A 
ATOM     14  C   UNL     1      -2.043   3.533  -3.386  0.00  0.00    +0.000 A 
ATOM     15  C   UNL     1      -1.369   3.596  -2.169  0.00  0.00    +0.000 A 
ATOM     16  C   UNL     1      -1.953   3.064  -1.018  0.00  0.00    +0.000 A 
ENDBRANCH  10  11
ENDBRANCH   1  10
TORSDOF 3
