MODEL 1
REMARK VINA RESULT:      -4.4      0.000      0.000
REMARK  Name = *****
REMARK  3 active torsions:
REMARK  status: ('A' for Active; 'I' for Inactive)
REMARK    1  A    between atoms: C_3  and  N_4
REMARK    2  A    between atoms: N_4  and  C_5
REMARK    3  A    between atoms: C_12  and  C_14
REMARK                            x       y       z     vdW  Elec       q    Type
REMARK                         _______ _______ _______ _____ _____    ______ ____
ROOT
ATOM      1  N   UNL     1      87.143  63.820  87.215  0.00  0.00    +0.000 N 
ATOM      2  C   UNL     1      87.172  62.983  88.351  0.00  0.00    +0.000 C 
ATOM      3  O   UNL     1      86.839  61.797  88.333  0.00  0.00    +0.000 OA
ENDROOT
BRANCH   1   4
ATOM      4  C   UNL     1      87.827  65.076  87.101  0.00  0.00    +0.000 A 
ATOM      5  C   UNL     1      89.133  65.159  86.605  0.00  0.00    +0.000 A 
ATOM      6  C   UNL     1      89.762  66.396  86.490  0.00  0.00    +0.000 A 
ATOM      7  C   UNL     1      89.116  67.571  86.849  0.00  0.00    +0.000 A 
ATOM      8  C   UNL     1      87.810  67.510  87.324  0.00  0.00    +0.000 A 
ATOM      9  C   UNL     1      87.169  66.272  87.440  0.00  0.00    +0.000 A 
ATOM     10  F   UNL     1      91.011  66.455  86.010  0.00  0.00    +0.000 F 
ENDBRANCH   1   4
BRANCH   2  11
ATOM     11  C   UNL     1      87.513  63.541  89.685  0.00  0.00    +0.000 A 
ATOM     12  C   UNL     1      86.516  63.930  90.587  0.00  0.00    +0.000 A 
ATOM     13  C   UNL     1      86.872  64.427  91.843  0.00  0.00    +0.000 A 
ATOM     14  C   UNL     1      88.217  64.514  92.204  0.00  0.00    +0.000 A 
ATOM     15  C   UNL     1      89.211  64.094  91.319  0.00  0.00    +0.000 A 
ATOM     16  C   UNL     1      88.860  63.598  90.062  0.00  0.00    +0.000 A 
ENDBRANCH   2  11
BRANCH   1  19
ATOM     17  C   UNL     1      85.818  64.328  85.050  0.00  0.00    +0.000 C 
ATOM     18  C   UNL     1      84.873  63.601  85.951  0.00  0.00    +0.000 C 
ATOM     19  C   UNL     1      86.362  63.359  86.075  0.00  0.00    +0.000 C 
ENDBRANCH   1  19
TORSDOF 3
ENDMDL
