MODEL 1
REMARK VINA RESULT:      -4.0      0.000      0.000
REMARK  Name = *****
REMARK  7 active torsions:
REMARK  status: ('A' for Active; 'I' for Inactive)
REMARK    1  A    between atoms: C_1  and  C_2
REMARK    2  A    between atoms: C_2  and  C_3
REMARK    3  A    between atoms: C_2  and  C_11
REMARK    4  A    between atoms: C_2  and  O_17
REMARK    5  A    between atoms: C_3  and  S_4
REMARK    6  A    between atoms: S_4  and  C_5
REMARK    7  A    between atoms: O_17  and  O_18
REMARK                            x       y       z     vdW  Elec       q    Type
REMARK                         _______ _______ _______ _____ _____    ______ ____
ROOT
ATOM      1  C   UNL     1      90.607  70.928  84.052  0.00  0.00    +0.000 C 
ATOM      2  C   UNL     1      89.089  71.191  84.141  0.00  0.00    +0.000 C 
ENDROOT
BRANCH   2   3
ATOM      3  C   UNL     1      88.635  70.978  85.598  0.00  0.00    +0.000 A 
ATOM      4  C   UNL     1      87.288  71.119  85.976  0.00  0.00    +0.000 A 
ATOM      5  C   UNL     1      86.883  70.921  87.300  0.00  0.00    +0.000 A 
ATOM      6  C   UNL     1      87.816  70.577  88.273  0.00  0.00    +0.000 A 
ATOM      7  C   UNL     1      89.154  70.430  87.925  0.00  0.00    +0.000 A 
ATOM      8  C   UNL     1      89.560  70.628  86.602  0.00  0.00    +0.000 A 
ENDBRANCH   2   3
BRANCH   2   9
ATOM      9  C   UNL     1      88.334  70.236  83.171  0.00  0.00    +0.000 C 
BRANCH   9  10
ATOM     10  S   UNL     1      89.207  68.643  82.863  0.00  0.00    +0.000 S 
BRANCH  10  11
ATOM     11  C   UNL     1      88.915  67.829  84.421  0.00  0.00    +0.000 A 
ATOM     12  C   UNL     1      90.009  67.395  85.176  0.00  0.00    +0.000 A 
ATOM     13  C   UNL     1      89.813  66.761  86.405  0.00  0.00    +0.000 A 
ATOM     14  C   UNL     1      88.522  66.563  86.889  0.00  0.00    +0.000 A 
ATOM     15  C   UNL     1      87.426  67.003  86.149  0.00  0.00    +0.000 A 
ATOM     16  C   UNL     1      87.622  67.638  84.919  0.00  0.00    +0.000 A 
ENDBRANCH  10  11
ENDBRANCH   9  10
ENDBRANCH   2   9
BRANCH   2  17
ATOM     17  O   UNL     1      88.885  72.581  83.782  0.00  0.00    +0.000 OA
BRANCH  17  18
ATOM     18  O   UNL     1      90.099  73.328  84.093  0.00  0.00    +0.000 OA
ATOM     19  H   UNL     1      89.863  74.158  84.537  0.00  0.00    +0.000 HD
ENDBRANCH  17  18
ENDBRANCH   2  17
TORSDOF 6
ENDMDL
