MODEL 1
REMARK VINA RESULT:      -4.5      0.000      0.000
REMARK  Name = *****
REMARK  3 active torsions:
REMARK  status: ('A' for Active; 'I' for Inactive)
REMARK    1  A    between atoms: C_4  and  C_7
REMARK    2  A    between atoms: C_7  and  C_8
REMARK    3  A    between atoms: C_8  and  C_9
REMARK                            x       y       z     vdW  Elec       q    Type
REMARK                         _______ _______ _______ _____ _____    ______ ____
ROOT
ATOM      1  C   UNL     1      88.642  70.306  86.363  0.00  0.00    +0.000 C 
ATOM      2  F   UNL     1      89.711  71.030  86.830  0.00  0.00    +0.000 F 
ENDROOT
BRANCH   1   6
ATOM      3  C   UNL     1      84.967  72.088  87.787  0.00  0.00    +0.000 A 
ATOM      4  C   UNL     1      85.203  71.985  86.417  0.00  0.00    +0.000 A 
ATOM      5  C   UNL     1      86.383  71.405  85.951  0.00  0.00    +0.000 A 
ATOM      6  C   UNL     1      87.345  70.927  86.854  0.00  0.00    +0.000 A 
ATOM      7  C   UNL     1      87.093  71.030  88.231  0.00  0.00    +0.000 A 
ATOM      8  C   UNL     1      85.911  71.609  88.694  0.00  0.00    +0.000 A 
ENDBRANCH   1   6
BRANCH   1   9
ATOM      9  C   UNL     1      88.738  70.245  84.824  0.00  0.00    +0.000 C 
ATOM     10 BR   UNL     1      89.486  68.516  84.237  0.00  0.00    +0.000 Br
BRANCH   9  11
ATOM     11  C   UNL     1      89.595  71.322  84.186  0.00  0.00    +0.000 A 
ATOM     12  C   UNL     1      89.110  72.618  83.940  0.00  0.00    +0.000 A 
ATOM     13  C   UNL     1      89.929  73.587  83.358  0.00  0.00    +0.000 A 
ATOM     14  C   UNL     1      91.244  73.280  83.017  0.00  0.00    +0.000 A 
ATOM     15  C   UNL     1      91.744  72.004  83.260  0.00  0.00    +0.000 A 
ATOM     16  C   UNL     1      90.926  71.032  83.842  0.00  0.00    +0.000 A 
ENDBRANCH   9  11
ENDBRANCH   1   9
TORSDOF 3
ENDMDL
