MODEL 1
REMARK VINA RESULT:      -4.7      0.000      0.000
REMARK  Name = *****
REMARK  4 active torsions:
REMARK  status: ('A' for Active; 'I' for Inactive)
REMARK    1  A    between atoms: C_1  and  C_2
REMARK    2  A    between atoms: C_4  and  N_8
REMARK    3  A    between atoms: N_8  and  C_9
REMARK    4  A    between atoms: C_9  and  C_11
REMARK                            x       y       z     vdW  Elec       q    Type
REMARK                         _______ _______ _______ _____ _____    ______ ____
ROOT
ATOM      1  N   UNL     1     102.586 126.862  82.732  0.00  0.00    +0.000 N 
ATOM      2  H   UNL     1     103.039 126.671  83.586  0.00  0.00    +0.000 HD
ENDROOT
BRANCH   1   6
ATOM      3  C   UNL     1      99.399 130.481  84.134  0.00  0.00    +0.000 C 
ATOM      4  C   UNL     1      99.686 129.129  83.550  0.00  0.00    +0.000 A 
ATOM      5  C   UNL     1     101.009 128.662  83.449  0.00  0.00    +0.000 A 
ATOM      6  C   UNL     1     101.295 127.418  82.887  0.00  0.00    +0.000 A 
ATOM      7  C   UNL     1     100.229 126.656  82.385  0.00  0.00    +0.000 A 
ATOM      8  C   UNL     1      98.912 127.113  82.468  0.00  0.00    +0.000 A 
ATOM      9  C   UNL     1      98.641 128.347  83.050  0.00  0.00    +0.000 A 
ENDBRANCH   1   6
BRANCH   1  10
ATOM     10  C   UNL     1     103.344 126.534  81.614  0.00  0.00    +0.000 C 
ATOM     11  S   UNL     1     103.790 127.491  80.313  0.00  0.00    +0.000 S 
BRANCH  10  12
ATOM     12  C   UNL     1     103.830 125.123  81.685  0.00  0.00    +0.000 A 
ATOM     13  C   UNL     1     103.879 124.484  82.931  0.00  0.00    +0.000 A 
ATOM     14  C   UNL     1     104.359 123.178  83.020  0.00  0.00    +0.000 A 
ATOM     15  C   UNL     1     104.796 122.516  81.870  0.00  0.00    +0.000 A 
ATOM     16  C   UNL     1     104.753 123.156  80.630  0.00  0.00    +0.000 A 
ATOM     17  C   UNL     1     104.272 124.462  80.534  0.00  0.00    +0.000 A 
ENDBRANCH  10  12
ENDBRANCH   1  10
TORSDOF 3
ENDMDL
