REMARK  Name = *****
REMARK  3 active torsions:
REMARK  status: ('A' for Active; 'I' for Inactive)
REMARK    1  A    between atoms: C_1  and  C_2
REMARK    2  A    between atoms: C_5  and  C_7
REMARK    3  A    between atoms: C_8  and  C_9
REMARK                            x       y       z     vdW  Elec       q    Type
REMARK                         _______ _______ _______ _____ _____    ______ ____
ROOT
ATOM      1  C   UNL     1      -2.757   1.064  -0.047  0.00  0.00    +0.000 C 
ATOM      2  C   UNL     1      -3.958   0.464  -0.111  0.00  0.00    +0.000 C 
ENDROOT
BRANCH   1   7
ATOM      3  C   UNL     1       2.271  -0.443   0.073  0.00  0.00    +0.000 C 
ATOM      4  C   UNL     1       0.789  -0.382   0.032  0.00  0.00    +0.000 A 
ATOM      5  C   UNL     1      -0.130  -1.407  -0.013  0.00  0.00    +0.000 A 
ATOM      6  N   UNL     1      -1.455  -1.023  -0.045  0.00  0.00    +0.000 NA
ATOM      7  C   UNL     1      -1.559   0.293  -0.024  0.00  0.00    +0.000 A 
ATOM      8  S   UNL     1      -0.034   1.118   0.035  0.00  0.00    +0.000 S 
ENDBRANCH   1   7
BRANCH   2   9
ATOM      9  C   UNL     1      -5.239   1.184  -0.127  0.00  0.00    +0.000 A 
ATOM     10  C   UNL     1      -5.416   2.386  -0.824  0.00  0.00    +0.000 A 
ATOM     11  C   UNL     1      -6.660   3.024  -0.837  0.00  0.00    +0.000 A 
ATOM     12  C   UNL     1      -7.741   2.460  -0.163  0.00  0.00    +0.000 A 
ATOM     13  C   UNL     1      -7.581   1.256   0.520  0.00  0.00    +0.000 A 
ATOM     14  C   UNL     1      -6.338   0.619   0.533  0.00  0.00    +0.000 A 
ENDBRANCH   2   9
TORSDOF 2
