MODEL 1
REMARK VINA RESULT:      -4.4      0.000      0.000
REMARK  Name = *****
REMARK  5 active torsions:
REMARK  status: ('A' for Active; 'I' for Inactive)
REMARK    1  A    between atoms: C_1  and  C_2
REMARK    2  A    between atoms: C_7  and  C_8
REMARK    3  A    between atoms: C_8  and  C_9
REMARK    4  A    between atoms: C_9  and  C_10
REMARK    5  A    between atoms: C_9  and  C_11
REMARK                            x       y       z     vdW  Elec       q    Type
REMARK                         _______ _______ _______ _____ _____    ______ ____
ROOT
ATOM      1  C   UNL     1      89.209  69.206  84.670  0.00  0.00    +0.000 C 
ENDROOT
BRANCH   1   8
ATOM      2  C   UNL     1      87.296  71.556  84.887  0.00  0.00    +0.000 C 
ATOM      3  C   UNL     1      88.682  71.699  84.318  0.00  0.00    +0.000 A 
ATOM      4  C   UNL     1      89.101  72.967  83.881  0.00  0.00    +0.000 A 
ATOM      5  C   UNL     1      90.381  73.161  83.360  0.00  0.00    +0.000 A 
ATOM      6  C   UNL     1      91.262  72.091  83.274  0.00  0.00    +0.000 A 
ATOM      7  C   UNL     1      90.863  70.827  83.705  0.00  0.00    +0.000 A 
ATOM      8  C   UNL     1      89.574  70.610  84.227  0.00  0.00    +0.000 A 
ENDBRANCH   1   8
BRANCH   1   9
ATOM      9  C   UNL     1      89.831  68.796  86.026  0.00  0.00    +0.000 C 
ATOM     10  C   UNL     1      90.100  67.290  86.119  0.00  0.00    +0.000 C 
BRANCH   9  11
ATOM     11  C   UNL     1      88.952  69.256  87.182  0.00  0.00    +0.000 A 
ATOM     12  C   UNL     1      89.247  70.414  87.917  0.00  0.00    +0.000 A 
ATOM     13  C   UNL     1      88.431  70.814  88.977  0.00  0.00    +0.000 A 
ATOM     14  C   UNL     1      87.308  70.061  89.316  0.00  0.00    +0.000 A 
ATOM     15  C   UNL     1      87.002  68.909  88.597  0.00  0.00    +0.000 A 
ATOM     16  C   UNL     1      87.818  68.508  87.536  0.00  0.00    +0.000 A 
ENDBRANCH   9  11
ENDBRANCH   1   9
TORSDOF 3
ENDMDL
