MODEL 1
REMARK VINA RESULT:      -4.9      0.000      0.000
REMARK  Name = *****
REMARK  4 active torsions:
REMARK  status: ('A' for Active; 'I' for Inactive)
REMARK    1  A    between atoms: C_1  and  C_2
REMARK    2  A    between atoms: C_4  and  C_9
REMARK    3  A    between atoms: C_5  and  C_8
REMARK    4  A    between atoms: C_10  and  C_11
REMARK                            x       y       z     vdW  Elec       q    Type
REMARK                         _______ _______ _______ _____ _____    ______ ____
ROOT
ATOM      1  C   UNL     1      92.074  64.195  84.119  0.00  0.00    +0.000 C 
ATOM      2  C   UNL     1      90.994  64.647  85.055  0.00  0.00    +0.000 A 
ATOM      3  C   UNL     1      90.819  66.005  85.349  0.00  0.00    +0.000 A 
ATOM      4  C   UNL     1      89.826  66.427  86.245  0.00  0.00    +0.000 A 
ATOM      5  C   UNL     1      88.997  65.483  86.873  0.00  0.00    +0.000 A 
ATOM      6  C   UNL     1      89.184  64.122  86.581  0.00  0.00    +0.000 A 
ATOM      7  C   UNL     1      90.174  63.709  85.686  0.00  0.00    +0.000 A 
ATOM      8  C   UNL     1      87.909  65.852  87.844  0.00  0.00    +0.000 C 
ENDROOT
BRANCH   4   9
ATOM      9  C   UNL     1      89.699  67.832  86.498  0.00  0.00    +0.000 C 
ATOM     10  C   UNL     1      89.566  69.006  86.718  0.00  0.00    +0.000 C 
BRANCH  10  11
ATOM     11  C   UNL     1      89.365  70.440  86.994  0.00  0.00    +0.000 C 
ATOM     12  C   UNL     1      88.583  71.118  85.855  0.00  0.00    +0.000 C 
ATOM     13  C   UNL     1      87.080  70.845  85.944  0.00  0.00    +0.000 C 
ATOM     14  C   UNL     1      86.503  71.298  87.288  0.00  0.00    +0.000 C 
ATOM     15  C   UNL     1      87.389  70.976  88.455  0.00  0.00    +0.000 C 
ATOM     16  C   UNL     1      88.664  70.576  88.322  0.00  0.00    +0.000 C 
ENDBRANCH  10  11
ENDBRANCH   4   9
TORSDOF 2
ENDMDL
