MODEL 1
REMARK VINA RESULT:      -4.5      0.000      0.000
REMARK  Name = *****
REMARK  5 active torsions:
REMARK  status: ('A' for Active; 'I' for Inactive)
REMARK    1  A    between atoms: C_1  and  C_2
REMARK    2  A    between atoms: C_8  and  C_9
REMARK    3  A    between atoms: C_8  and  O_10
REMARK    4  A    between atoms: O_10  and  C_11
REMARK    5  A    between atoms: C_11  and  C_13
REMARK                            x       y       z     vdW  Elec       q    Type
REMARK                         _______ _______ _______ _____ _____    ______ ____
ROOT
ATOM      1  C   UNL     1     104.046 124.088  83.043  0.00  0.00    +0.000 C 
ATOM      2  C   UNL     1     104.496 125.159  82.052  0.00  0.00    +0.000 C 
ATOM      3  C   UNL     1     105.738 124.708  81.214  0.00  0.00    +0.000 C 
ATOM      4  C   UNL     1     104.824 124.483  80.004  0.00  0.00    +0.000 C 
ATOM      5  C   UNL     1     103.688 125.236  80.726  0.00  0.00    +0.000 C 
ATOM      6  C   UNL     1     103.474 126.718  80.418  0.00  0.00    +0.000 C 
ATOM      7  C   UNL     1     104.461 127.460  81.314  0.00  0.00    +0.000 C 
ATOM      8  C   UNL     1     104.485 126.617  82.600  0.00  0.00    +0.000 C 
ATOM      9  C   UNL     1     105.696 126.872  83.497  0.00  0.00    +0.000 C 
ENDROOT
BRANCH   8  10
ATOM     10  O   UNL     1     103.245 126.780  83.341  0.00  0.00    +0.000 OA
BRANCH  10  11
ATOM     11  C   UNL     1     102.705 128.009  83.520  0.00  0.00    +0.000 C 
ATOM     12  O   UNL     1     103.292 129.018  83.871  0.00  0.00    +0.000 OA
BRANCH  11  13
ATOM     13  C   UNL     1     101.245 127.976  83.234  0.00  0.00    +0.000 A 
ATOM     14  C   UNL     1     100.393 129.049  83.532  0.00  0.00    +0.000 A 
ATOM     15  C   UNL     1      99.028 128.963  83.246  0.00  0.00    +0.000 A 
ATOM     16  C   UNL     1      98.507 127.808  82.663  0.00  0.00    +0.000 A 
ATOM     17  C   UNL     1      99.346 126.735  82.367  0.00  0.00    +0.000 A 
ATOM     18  C   UNL     1     100.711 126.817  82.653  0.00  0.00    +0.000 A 
ENDBRANCH  11  13
ENDBRANCH  10  11
ENDBRANCH   8  10
TORSDOF 3
ENDMDL
