MODEL 1
REMARK VINA RESULT:      -4.5      0.000      0.000
REMARK  Name = *****
REMARK  3 active torsions:
REMARK  status: ('A' for Active; 'I' for Inactive)
REMARK    1  A    between atoms: N_4  and  C_7
REMARK    2  A    between atoms: C_7  and  C_9
REMARK    3  A    between atoms: C_9  and  C_10
REMARK                            x       y       z     vdW  Elec       q    Type
REMARK                         _______ _______ _______ _____ _____    ______ ____
ROOT
ATOM      1  C   UNL     1     102.870 127.355  83.559  0.00  0.00    +0.000 C 
ENDROOT
BRANCH   1   2
ATOM      2  C   UNL     1     101.407 127.643  83.279  0.00  0.00    +0.000 A 
ATOM      3  C   UNL     1     100.543 126.689  82.723  0.00  0.00    +0.000 A 
ATOM      4  C   UNL     1      99.196 126.992  82.518  0.00  0.00    +0.000 A 
ATOM      5  C   UNL     1      98.674 128.226  82.870  0.00  0.00    +0.000 A 
ATOM      6  C   UNL     1      99.519 129.164  83.441  0.00  0.00    +0.000 A 
ATOM      7  C   UNL     1     100.868 128.886  83.654  0.00  0.00    +0.000 A 
ATOM      8  F   UNL     1      99.032 130.361  83.797  0.00  0.00    +0.000 F 
ATOM      9  F   UNL     1      98.393 126.069  81.973  0.00  0.00    +0.000 F 
ENDBRANCH   1   2
BRANCH   1  10
ATOM     10  C   UNL     1     103.749 127.134  82.315  0.00  0.00    +0.000 C 
ATOM     11  S   UNL     1     104.385 128.524  81.583  0.00  0.00    +0.000 S 
BRANCH  10  15
ATOM     12  C   UNL     1     104.549 123.115  80.902  0.00  0.00    +0.000 C 
ATOM     13  C   UNL     1     104.635 123.483  82.376  0.00  0.00    +0.000 C 
ATOM     14  C   UNL     1     103.712 124.651  82.713  0.00  0.00    +0.000 C 
ATOM     15  N   UNL     1     103.931 125.821  81.838  0.00  0.00    +0.000 N 
ATOM     16  C   UNL     1     103.920 125.503  80.401  0.00  0.00    +0.000 C 
ATOM     17  C   UNL     1     104.841 124.338  80.046  0.00  0.00    +0.000 C 
ENDBRANCH  10  15
ENDBRANCH   1  10
TORSDOF 3
ENDMDL
