MODEL 1
REMARK VINA RESULT:      -4.5      0.000      0.000
REMARK  Name = *****
REMARK  5 active torsions:
REMARK  status: ('A' for Active; 'I' for Inactive)
REMARK    1  A    between atoms: C_1  and  S_2
REMARK    2  A    between atoms: S_2  and  C_3
REMARK    3  A    between atoms: C_4  and  C_5
REMARK    4  A    between atoms: C_4  and  C_11
REMARK    5  A    between atoms: C_11  and  C_13
REMARK                            x       y       z     vdW  Elec       q    Type
REMARK                         _______ _______ _______ _____ _____    ______ ____
ROOT
ATOM      1  C   UNL     1     101.275 126.084  84.453  0.00  0.00    +0.000 C 
ATOM      2  C   UNL     1     101.135 126.644  83.233  0.00  0.00    +0.000 C 
ENDROOT
BRANCH   2   3
ATOM      3  C   UNL     1     102.225 126.785  82.244  0.00  0.00    +0.000 A 
ATOM      4  C   UNL     1     102.547 125.746  81.358  0.00  0.00    +0.000 A 
ATOM      5  C   UNL     1     103.562 125.909  80.413  0.00  0.00    +0.000 A 
ATOM      6  C   UNL     1     104.262 127.112  80.342  0.00  0.00    +0.000 A 
ATOM      7  C   UNL     1     103.953 128.151  81.219  0.00  0.00    +0.000 A 
ATOM      8  C   UNL     1     102.939 127.989  82.165  0.00  0.00    +0.000 A 
ENDBRANCH   2   3
BRANCH   1  10
ATOM      9  C   UNL     1     103.448 126.841  85.910  0.00  0.00    +0.000 C 
ATOM     10  S   UNL     1     102.740 125.397  85.085  0.00  0.00    +0.000 S 
ENDBRANCH   1  10
BRANCH   2  11
ATOM     11  C   UNL     1      99.775 127.243  82.982  0.00  0.00    +0.000 C 
ATOM     12  O   UNL     1      99.023 126.804  82.115  0.00  0.00    +0.000 OA
BRANCH  11  13
ATOM     13  C   UNL     1      99.311 128.375  83.823  0.00  0.00    +0.000 A 
ATOM     14  C   UNL     1      99.830 129.650  83.565  0.00  0.00    +0.000 A 
ATOM     15  C   UNL     1      99.433 130.738  84.343  0.00  0.00    +0.000 A 
ATOM     16  C   UNL     1      98.529 130.554  85.389  0.00  0.00    +0.000 A 
ATOM     17  C   UNL     1      98.028 129.281  85.665  0.00  0.00    +0.000 A 
ATOM     18  C   UNL     1      98.424 128.189  84.889  0.00  0.00    +0.000 A 
ENDBRANCH  11  13
ENDBRANCH   2  11
TORSDOF 4
ENDMDL
