REMARK  Name = *****
REMARK  3 active torsions:
REMARK  status: ('A' for Active; 'I' for Inactive)
REMARK    1  A    between atoms: C_7  and  C_8
REMARK    2  A    between atoms: C_8  and  O_10
REMARK    3  A    between atoms: O_10  and  C_11
REMARK                            x       y       z     vdW  Elec       q    Type
REMARK                         _______ _______ _______ _____ _____    ______ ____
ROOT
ATOM      1  C   UNL     1       2.207   1.720  -0.360  0.00  0.00    +0.000 C 
ATOM      2  O   UNL     1       2.331   2.452   0.612  0.00  0.00    +0.000 OA
ENDROOT
BRANCH   1   9
ATOM      3  C   UNL     1      -1.195  -1.017  -0.278  0.00  0.00    +0.000 C 
ATOM      4  C   UNL     1      -1.455   0.495  -0.201  0.00  0.00    +0.000 C 
ATOM      5  C   UNL     1      -0.139   1.041   0.383  0.00  0.00    +0.000 C 
ATOM      6  C   UNL     1       0.235  -0.067   1.370  0.00  0.00    +0.000 C 
ATOM      7  C   UNL     1       0.224  -1.154   0.299  0.00  0.00    +0.000 C 
ATOM      8  C   UNL     1       1.238  -0.601  -0.718  0.00  0.00    +0.000 C 
ATOM      9  C   UNL     1       0.962   0.916  -0.697  0.00  0.00    +0.000 C 
ENDBRANCH   1   9
BRANCH   1  10
ATOM     10  O   UNL     1       3.152   1.507  -1.364  0.00  0.00    +0.000 OA
BRANCH  10  11
ATOM     11  C   UNL     1       4.370   2.186  -1.235  0.00  0.00    +0.000 A 
ATOM     12  C   UNL     1       4.430   3.578  -1.199  0.00  0.00    +0.000 A 
ATOM     13  C   UNL     1       5.673   4.206  -1.128  0.00  0.00    +0.000 A 
ATOM     14  C   UNL     1       6.842   3.443  -1.113  0.00  0.00    +0.000 A 
ATOM     15  C   UNL     1       6.773   2.049  -1.173  0.00  0.00    +0.000 A 
ATOM     16  C   UNL     1       5.532   1.416  -1.241  0.00  0.00    +0.000 A 
ENDBRANCH  10  11
ENDBRANCH   1  10
TORSDOF 3
