REMARK  Name = *****
REMARK  4 active torsions:
REMARK  status: ('A' for Active; 'I' for Inactive)
REMARK    1  A    between atoms: C_1  and  O_2
REMARK    2  A    between atoms: O_2  and  C_3
REMARK    3  A    between atoms: C_6  and  C_9
REMARK    4  A    between atoms: C_10  and  C_11
REMARK                            x       y       z     vdW  Elec       q    Type
REMARK                         _______ _______ _______ _____ _____    ______ ____
ROOT
ATOM      1  C   UNL     1       5.188  -3.198   3.986  0.00  0.00    +0.000 C 
ATOM      2  C   UNL     1       5.769  -3.861   4.802  0.00  0.00    +0.000 C 
ENDROOT
BRANCH   2   3
ATOM      3  C   UNL     1       6.461  -4.646   5.776  0.00  0.00    +0.000 A 
ATOM      4  C   UNL     1       7.394  -4.057   6.636  0.00  0.00    +0.000 A 
ATOM      5  C   UNL     1       8.069  -4.814   7.587  0.00  0.00    +0.000 A 
ATOM      6  C   UNL     1       7.806  -6.174   7.674  0.00  0.00    +0.000 A 
ATOM      7  C   UNL     1       6.882  -6.784   6.828  0.00  0.00    +0.000 A 
ATOM      8  C   UNL     1       6.206  -6.018   5.875  0.00  0.00    +0.000 A 
ATOM      9  F   UNL     1       8.450  -6.913   8.586  0.00  0.00    +0.000 F 
ATOM     10  F   UNL     1       7.654  -2.743   6.558  0.00  0.00    +0.000 F 
ENDBRANCH   2   3
BRANCH   1  14
ATOM     11  C   UNL     1       3.147  -0.833   1.126  0.00  0.00    +0.000 A 
ATOM     12  C   UNL     1       2.615  -2.057   1.533  0.00  0.00    +0.000 A 
ATOM     13  C   UNL     1       3.291  -2.839   2.478  0.00  0.00    +0.000 A 
ATOM     14  C   UNL     1       4.501  -2.400   3.018  0.00  0.00    +0.000 A 
ATOM     15  C   UNL     1       5.036  -1.178   2.613  0.00  0.00    +0.000 A 
ATOM     16  C   UNL     1       4.360  -0.400   1.669  0.00  0.00    +0.000 A 
BRANCH  11  18
ATOM     17  C   UNL     1       1.342  -0.357  -0.346  0.00  0.00    +0.000 C 
ATOM     18  O   UNL     1       2.591   0.024   0.217  0.00  0.00    +0.000 OA
ENDBRANCH  11  18
ENDBRANCH   1  14
TORSDOF 3
