MODEL 1
REMARK VINA RESULT:      -4.6      0.000      0.000
REMARK  Name = *****
REMARK  5 active torsions:
REMARK  status: ('A' for Active; 'I' for Inactive)
REMARK    1  A    between atoms: C_1  and  C_2
REMARK    2  A    between atoms: C_7  and  O_8
REMARK    3  A    between atoms: O_8  and  C_9
REMARK    4  A    between atoms: C_9  and  C_10
REMARK    5  A    between atoms: C_10  and  C_11
REMARK                            x       y       z     vdW  Elec       q    Type
REMARK                         _______ _______ _______ _____ _____    ______ ____
ROOT
ATOM      1  O   UNL     1     104.207 125.252  82.692  0.00  0.00    +0.000 OA
ENDROOT
BRANCH   1   8
ATOM      2  C   UNL     1     104.703 124.727  79.907  0.00  0.00    +0.000 C 
ATOM      3  C   UNL     1     104.642 123.652  80.951  0.00  0.00    +0.000 A 
ATOM      4  C   UNL     1     104.845 122.311  80.595  0.00  0.00    +0.000 A 
ATOM      5  C   UNL     1     104.789 121.301  81.559  0.00  0.00    +0.000 A 
ATOM      6  C   UNL     1     104.530 121.619  82.892  0.00  0.00    +0.000 A 
ATOM      7  C   UNL     1     104.343 122.948  83.263  0.00  0.00    +0.000 A 
ATOM      8  C   UNL     1     104.424 123.956  82.301  0.00  0.00    +0.000 A 
ENDBRANCH   1   8
BRANCH   1   9
ATOM      9  C   UNL     1     102.881 125.397  83.222  0.00  0.00    +0.000 C 
BRANCH   9  10
ATOM     10  C   UNL     1     101.949 125.892  82.114  0.00  0.00    +0.000 C 
BRANCH  10  11
ATOM     11  C   UNL     1     100.980 126.952  82.587  0.00  0.00    +0.000 A 
ATOM     12  C   UNL     1      99.604 126.807  82.360  0.00  0.00    +0.000 A 
ATOM     13  C   UNL     1      98.707 127.785  82.795  0.00  0.00    +0.000 A 
ATOM     14  C   UNL     1      99.177 128.916  83.459  0.00  0.00    +0.000 A 
ATOM     15  C   UNL     1     100.543 129.072  83.687  0.00  0.00    +0.000 A 
ATOM     16  C   UNL     1     101.442 128.096  83.251  0.00  0.00    +0.000 A 
ENDBRANCH  10  11
ENDBRANCH   9  10
ENDBRANCH   1   9
TORSDOF 4
ENDMDL
