MODEL 1
REMARK VINA RESULT:      -4.6      0.000      0.000
REMARK  Name = *****
REMARK  3 active torsions:
REMARK  status: ('A' for Active; 'I' for Inactive)
REMARK    1  A    between atoms: C_8  and  C_9
REMARK    2  A    between atoms: C_9  and  C_10
REMARK    3  A    between atoms: C_10  and  C_11
REMARK                            x       y       z     vdW  Elec       q    Type
REMARK                         _______ _______ _______ _____ _____    ______ ____
ROOT
ATOM      1  C   UNL     1     104.999 122.445  81.891  0.00  0.00    +0.000 C 
ATOM      2  C   UNL     1     104.351 123.480  82.817  0.00  0.00    +0.000 C 
ATOM      3  C   UNL     1     104.476 124.936  82.320  0.00  0.00    +0.000 C 
ATOM      4  C   UNL     1     105.677 125.066  81.399  0.00  0.00    +0.000 C 
ATOM      5  C   UNL     1     105.123 124.346  80.185  0.00  0.00    +0.000 C 
ATOM      6  C   UNL     1     105.007 122.833  80.409  0.00  0.00    +0.000 C 
ATOM      7  O   UNL     1     103.783 124.864  80.048  0.00  0.00    +0.000 OA
ATOM      8  C   UNL     1     103.324 125.274  81.355  0.00  0.00    +0.000 C 
ENDROOT
BRANCH   8   9
ATOM      9  C   UNL     1     102.973 126.764  81.274  0.00  0.00    +0.000 C 
BRANCH   9  10
ATOM     10  C   UNL     1     102.690 127.379  82.646  0.00  0.00    +0.000 C 
BRANCH  10  11
ATOM     11  C   UNL     1     101.213 127.604  82.861  0.00  0.00    +0.000 A 
ATOM     12  C   UNL     1     100.278 126.668  82.402  0.00  0.00    +0.000 A 
ATOM     13  C   UNL     1      98.911 126.885  82.586  0.00  0.00    +0.000 A 
ATOM     14  C   UNL     1      98.468 128.042  83.226  0.00  0.00    +0.000 A 
ATOM     15  C   UNL     1      99.391 128.983  83.679  0.00  0.00    +0.000 A 
ATOM     16  C   UNL     1     100.757 128.767  83.496  0.00  0.00    +0.000 A 
ENDBRANCH  10  11
ENDBRANCH   9  10
ENDBRANCH   8   9
TORSDOF 3
ENDMDL
