MODEL 1
REMARK VINA RESULT:      -4.3      0.000      0.000
REMARK  Name = *****
REMARK  3 active torsions:
REMARK  status: ('A' for Active; 'I' for Inactive)
REMARK    1  A    between atoms: N_4  and  S_7
REMARK    2  A    between atoms: S_7  and  N_10
REMARK    3  A    between atoms: N_10  and  C_11
REMARK                            x       y       z     vdW  Elec       q    Type
REMARK                         _______ _______ _______ _____ _____    ______ ____
ROOT
ATOM      1  N   UNL     1     103.205 125.722  80.430  0.00  0.00    +0.000 N 
ATOM      2  H   UNL     1     102.306 125.576  80.053  0.00  0.00    +0.000 HD
ENDROOT
BRANCH   1   3
ATOM      3  C   UNL     1     104.262 124.767  80.268  0.00  0.00    +0.000 A 
ATOM      4  C   UNL     1     104.280 123.613  81.049  0.00  0.00    +0.000 A 
ATOM      5  C   UNL     1     105.337 122.712  80.925  0.00  0.00    +0.000 A 
ATOM      6  C   UNL     1     106.378 122.955  80.032  0.00  0.00    +0.000 A 
ATOM      7  C   UNL     1     106.357 124.119  79.266  0.00  0.00    +0.000 A 
ATOM      8  C   UNL     1     105.308 125.031  79.382  0.00  0.00    +0.000 A 
ATOM      9 CL   UNL     1     107.643 124.435  78.166  0.00  0.00    +0.000 Cl
ATOM     10 CL   UNL     1     105.353 121.284  81.885  0.00  0.00    +0.000 Cl
ENDBRANCH   1   3
BRANCH   1  11
ATOM     11  S   UNL     1     103.594 127.118  81.307  0.00  0.00    +0.000 S 
ATOM     12  O   UNL     1     103.917 128.141  80.342  0.00  0.00    +0.000 OA
ATOM     13  O   UNL     1     104.527 126.750  82.346  0.00  0.00    +0.000 OA
BRANCH  11  17
ATOM     14  C   UNL     1      99.831 127.665  83.819  0.00  0.00    +0.000 C 
ATOM     15  C   UNL     1      99.819 126.766  82.587  0.00  0.00    +0.000 C 
ATOM     16  C   UNL     1     101.227 126.307  82.218  0.00  0.00    +0.000 C 
ATOM     17  N   UNL     1     102.097 127.498  82.007  0.00  0.00    +0.000 NA
ATOM     18  C   UNL     1     102.192 128.323  83.244  0.00  0.00    +0.000 C 
ATOM     19  C   UNL     1     100.803 128.825  83.629  0.00  0.00    +0.000 C 
ENDBRANCH  11  17
ENDBRANCH   1  11
TORSDOF 3
ENDMDL
