MODEL 1
REMARK VINA RESULT:      -5.2      0.000      0.000
REMARK  Name = *****
REMARK  1 active torsions:
REMARK  status: ('A' for Active; 'I' for Inactive)
REMARK    1  A    between atoms: C_10  and  C_11
REMARK                            x       y       z     vdW  Elec       q    Type
REMARK                         _______ _______ _______ _____ _____    ______ ____
ROOT
ATOM      1  C   UNL     1     104.373 127.365  79.990  0.00  0.00    +0.000 C 
ATOM      2  C   UNL     1     104.779 125.937  80.088  0.00  0.00    +0.000 A 
ATOM      3  C   UNL     1     103.906 125.262  80.928  0.00  0.00    +0.000 A 
ATOM      4  C   UNL     1     104.069 123.909  81.186  0.00  0.00    +0.000 A 
ATOM      5  C   UNL     1     105.138 123.248  80.577  0.00  0.00    +0.000 A 
ATOM      6  C   UNL     1     106.021 123.930  79.727  0.00  0.00    +0.000 A 
ATOM      7  C   UNL     1     105.844 125.293  79.476  0.00  0.00    +0.000 A 
ATOM      8 CL   UNL     1     105.374 121.568  80.872  0.00  0.00    +0.000 Cl
ATOM      9  C   UNL     1     102.932 126.240  81.378  0.00  0.00    +0.000 C 
ATOM     10  C   UNL     1     101.925 126.004  82.233  0.00  0.00    +0.000 C 
ATOM     11  O   UNL     1     103.193 127.489  80.819  0.00  0.00    +0.000 OA
ENDROOT
BRANCH  10  12
ATOM     12  C   UNL     1     100.941 126.992  82.702  0.00  0.00    +0.000 A 
ATOM     13  C   UNL     1     101.308 128.126  83.436  0.00  0.00    +0.000 A 
ATOM     14  C   UNL     1     100.348 129.064  83.827  0.00  0.00    +0.000 A 
ATOM     15  C   UNL     1      99.012 128.882  83.476  0.00  0.00    +0.000 A 
ATOM     16  C   UNL     1      98.635 127.766  82.731  0.00  0.00    +0.000 A 
ATOM     17  C   UNL     1      99.596 126.830  82.342  0.00  0.00    +0.000 A 
ENDBRANCH  10  12
TORSDOF 1
ENDMDL
