MODEL 1
REMARK VINA RESULT:      -5.4      0.000      0.000
REMARK  Name = *****
REMARK  5 active torsions:
REMARK  status: ('A' for Active; 'I' for Inactive)
REMARK    1  A    between atoms: C_1  and  C_2
REMARK    2  A    between atoms: C_5  and  C_8
REMARK    3  A    between atoms: C_8  and  C_11
REMARK    4  A    between atoms: C_11  and  C_13
REMARK    5  A    between atoms: C_16  and  C_19
REMARK                            x       y       z     vdW  Elec       q    Type
REMARK                         _______ _______ _______ _____ _____    ______ ____
ROOT
ATOM      1  C   UNL     1      87.932  70.728  88.054  0.00  0.00    +0.000 C 
ATOM      2  C   UNL     1      88.305  70.885  89.294  0.00  0.00    +0.000 C 
ATOM      3  O   UNL     1      88.627  71.021  90.416  0.00  0.00    +0.000 OA
ENDROOT
BRANCH   1   8
ATOM      4  C   UNL     1      82.934  73.031  86.143  0.00  0.00    +0.000 C 
ATOM      5  C   UNL     1      84.233  72.465  86.632  0.00  0.00    +0.000 A 
ATOM      6  C   UNL     1      85.202  72.023  85.728  0.00  0.00    +0.000 A 
ATOM      7  C   UNL     1      86.399  71.459  86.186  0.00  0.00    +0.000 A 
ATOM      8  C   UNL     1      86.655  71.307  87.561  0.00  0.00    +0.000 A 
ATOM      9  C   UNL     1      85.667  71.745  88.456  0.00  0.00    +0.000 A 
ATOM     10  C   UNL     1      84.469  72.308  88.000  0.00  0.00    +0.000 A 
ENDBRANCH   1   8
BRANCH   1  11
ATOM     11  C   UNL     1      88.916  70.080  87.134  0.00  0.00    +0.000 C 
ATOM     12  O   UNL     1      89.723  70.746  86.490  0.00  0.00    +0.000 OA
BRANCH  11  13
ATOM     13  C   UNL     1      88.932  68.598  86.997  0.00  0.00    +0.000 A 
ATOM     14  C   UNL     1      87.877  67.796  87.448  0.00  0.00    +0.000 A 
ATOM     15  C   UNL     1      87.935  66.409  87.280  0.00  0.00    +0.000 A 
ATOM     16  C   UNL     1      89.039  65.812  86.662  0.00  0.00    +0.000 A 
ATOM     17  C   UNL     1      90.072  66.622  86.177  0.00  0.00    +0.000 A 
ATOM     18  C   UNL     1      90.020  68.008  86.343  0.00  0.00    +0.000 A 
ATOM     19  C   UNL     1      89.081  64.325  86.454  0.00  0.00    +0.000 C 
ENDBRANCH  11  13
ENDBRANCH   1  11
TORSDOF 3
ENDMDL
