MODEL 1
REMARK VINA RESULT:      -4.6      0.000      0.000
REMARK  Name = *****
REMARK  3 active torsions:
REMARK  status: ('A' for Active; 'I' for Inactive)
REMARK    1  A    between atoms: C_4  and  C_7
REMARK    2  A    between atoms: C_7  and  C_8
REMARK    3  A    between atoms: C_8  and  C_10
REMARK                            x       y       z     vdW  Elec       q    Type
REMARK                         _______ _______ _______ _____ _____    ______ ____
ROOT
ATOM      1  C   UNL     1      88.656  69.597  86.013  0.00  0.00    +0.000 C 
ATOM      2 BR   UNL     1      90.031  70.693  85.123  0.00  0.00    +0.000 Br
ENDROOT
BRANCH   1   6
ATOM      3  C   UNL     1      89.496  65.281  86.194  0.00  0.00    +0.000 C 
ATOM      4  C   UNL     1      90.623  66.216  85.780  0.00  0.00    +0.000 C 
ATOM      5  C   UNL     1      90.097  67.589  85.365  0.00  0.00    +0.000 C 
ATOM      6  C   UNL     1      89.238  68.245  86.468  0.00  0.00    +0.000 C 
ATOM      7  C   UNL     1      88.106  67.274  86.874  0.00  0.00    +0.000 C 
ATOM      8  C   UNL     1      88.637  65.904  87.286  0.00  0.00    +0.000 C 
ENDBRANCH   1   6
BRANCH   1   9
ATOM      9  C   UNL     1      88.190  70.467  87.176  0.00  0.00    +0.000 C 
ATOM     10  O   UNL     1      88.880  70.657  88.179  0.00  0.00    +0.000 OA
BRANCH   9  11
ATOM     11  C   UNL     1      86.863  71.139  87.088  0.00  0.00    +0.000 A 
ATOM     12  C   UNL     1      86.115  71.470  88.224  0.00  0.00    +0.000 A 
ATOM     13  C   UNL     1      84.880  72.109  88.083  0.00  0.00    +0.000 A 
ATOM     14  C   UNL     1      84.393  72.425  86.815  0.00  0.00    +0.000 A 
ATOM     15  C   UNL     1      85.144  72.113  85.682  0.00  0.00    +0.000 A 
ATOM     16  C   UNL     1      86.377  71.475  85.818  0.00  0.00    +0.000 A 
ENDBRANCH   9  11
ENDBRANCH   1   9
TORSDOF 3
ENDMDL
