REMARK  Name = *****
REMARK  5 active torsions:
REMARK  status: ('A' for Active; 'I' for Inactive)
REMARK    1  A    between atoms: C_1  and  C_2
REMARK    2  A    between atoms: C_7  and  C_8
REMARK    3  A    between atoms: C_7  and  O_9
REMARK    4  A    between atoms: O_9  and  C_10
REMARK    5  A    between atoms: C_10  and  C_12
REMARK                            x       y       z     vdW  Elec       q    Type
REMARK                         _______ _______ _______ _____ _____    ______ ____
ROOT
ATOM      1  O   UNL     1       3.234   2.015   0.655  0.00  0.00    +0.000 OA
ENDROOT
BRANCH   1   8
ATOM      2  C   UNL     1       1.662   2.941  -2.067  0.00  0.00    +0.000 C 
ATOM      3  C   UNL     1       1.320   1.937  -0.958  0.00  0.00    +0.000 C 
ATOM      4  C   UNL     1       0.238   0.985  -1.431  0.00  0.00    +0.000 C 
ATOM      5  C   UNL     1       0.178  -0.291  -1.025  0.00  0.00    +0.000 C 
ATOM      6  C   UNL     1       1.142  -0.836  -0.102  0.00  0.00    +0.000 C 
ATOM      7  C   UNL     1       2.261  -0.170   0.215  0.00  0.00    +0.000 C 
ATOM      8  C   UNL     1       2.581   1.200  -0.360  0.00  0.00    +0.000 C 
ATOM      9  C   UNL     1       3.678   0.959  -1.418  0.00  0.00    +0.000 C 
ENDBRANCH   1   8
BRANCH   1  10
ATOM     10  C   UNL     1       2.590   2.306   1.818  0.00  0.00    +0.000 C 
ATOM     11  O   UNL     1       1.448   1.984   2.112  0.00  0.00    +0.000 OA
BRANCH  10  12
ATOM     12  C   UNL     1       3.511   3.084   2.739  0.00  0.00    +0.000 C 
ATOM     13  C   UNL     1       3.802   2.248   3.989  0.00  0.00    +0.000 C 
ATOM     14  C   UNL     1       4.635   3.023   5.006  0.00  0.00    +0.000 C 
ATOM     15  C   UNL     1       3.988   4.360   5.359  0.00  0.00    +0.000 C 
ATOM     16  C   UNL     1       3.715   5.197   4.114  0.00  0.00    +0.000 C 
ATOM     17  C   UNL     1       2.875   4.431   3.094  0.00  0.00    +0.000 C 
ENDBRANCH  10  12
ENDBRANCH   1  10
TORSDOF 3
