REMARK  Name = *****
REMARK  4 active torsions:
REMARK  status: ('A' for Active; 'I' for Inactive)
REMARK    1  A    between atoms: C_1  and  O_2
REMARK    2  A    between atoms: O_2  and  C_3
REMARK    3  A    between atoms: C_3  and  C_9
REMARK    4  A    between atoms: C_10  and  C_11
REMARK                            x       y       z     vdW  Elec       q    Type
REMARK                         _______ _______ _______ _____ _____    ______ ____
ROOT
ATOM      1  C   UNL     1       2.685   1.028  -0.250  0.00  0.00    +0.000 C 
ATOM      2  C   UNL     1       2.771   1.851  -1.528  0.00  0.00    +0.000 C 
ATOM      3  C   UNL     1       3.820   0.834  -1.243  0.00  0.00    +0.000 C 
ATOM      4  C   UNL     1       3.805  -0.178  -2.352  0.00  0.00    +0.000 C 
ATOM      5  C   UNL     1       2.481   0.028  -3.093  0.00  0.00    +0.000 C 
ATOM      6  C   UNL     1       2.078   1.478  -2.806  0.00  0.00    +0.000 C 
ENDROOT
BRANCH   1   8
ATOM      7  C   UNL     1       1.915  -1.079   0.609  0.00  0.00    +0.000 C 
ATOM      8  O   UNL     1       1.646   0.018  -0.253  0.00  0.00    +0.000 OA
ENDBRANCH   1   8
BRANCH   1   9
ATOM      9  C   UNL     1       3.000   1.769   0.993  0.00  0.00    +0.000 C 
ATOM     10  C   UNL     1       2.157   2.604   1.625  0.00  0.00    +0.000 C 
BRANCH  10  11
ATOM     11  C   UNL     1       2.465   3.320   2.869  0.00  0.00    +0.000 A 
ATOM     12  C   UNL     1       3.738   3.834   3.145  0.00  0.00    +0.000 A 
ATOM     13  C   UNL     1       3.981   4.536   4.329  0.00  0.00    +0.000 A 
ATOM     14  C   UNL     1       2.950   4.741   5.243  0.00  0.00    +0.000 A 
ATOM     15  C   UNL     1       1.675   4.250   4.972  0.00  0.00    +0.000 A 
ATOM     16  C   UNL     1       1.433   3.548   3.789  0.00  0.00    +0.000 A 
ENDBRANCH  10  11
ENDBRANCH   1   9
TORSDOF 3
