MODEL 1
REMARK VINA RESULT:      -4.3      0.000      0.000
REMARK  Name = *****
REMARK  3 active torsions:
REMARK  status: ('A' for Active; 'I' for Inactive)
REMARK    1  A    between atoms: C_4  and  N_7
REMARK    2  A    between atoms: N_7  and  S_8
REMARK    3  A    between atoms: S_8  and  C_9
REMARK                            x       y       z     vdW  Elec       q    Type
REMARK                         _______ _______ _______ _____ _____    ______ ____
ROOT
ATOM      1  N   UNL     1      89.210  63.725  88.026  0.00  0.00    +0.000 N 
ATOM      2  H   UNL     1      90.141  63.673  88.341  0.00  0.00    +0.000 HD
ENDROOT
BRANCH   1   6
ATOM      3  C   UNL     1      86.041  62.938  90.728  0.00  0.00    +0.000 A 
ATOM      4  C   UNL     1      86.076  62.271  89.507  0.00  0.00    +0.000 A 
ATOM      5  C   UNL     1      87.120  62.507  88.607  0.00  0.00    +0.000 A 
ATOM      6  C   UNL     1      88.163  63.391  88.920  0.00  0.00    +0.000 A 
ATOM      7  C   UNL     1      88.087  64.080  90.142  0.00  0.00    +0.000 A 
ATOM      8  C   UNL     1      87.043  63.849  91.045  0.00  0.00    +0.000 A 
ENDBRANCH   1   6
BRANCH   1   9
ATOM      9  S   UNL     1      88.912  64.203  86.456  0.00  0.00    +0.000 S 
BRANCH   9  10
ATOM     10  C   UNL     1      88.901  65.975  86.681  0.00  0.00    +0.000 A 
ATOM     11  C   UNL     1      89.970  66.736  86.199  0.00  0.00    +0.000 A 
ATOM     12  C   UNL     1      89.976  68.125  86.356  0.00  0.00    +0.000 A 
ATOM     13  C   UNL     1      88.907  68.755  86.990  0.00  0.00    +0.000 A 
ATOM     14  C   UNL     1      87.832  68.009  87.467  0.00  0.00    +0.000 A 
ATOM     15  C   UNL     1      87.828  66.620  87.310  0.00  0.00    +0.000 A 
ATOM     16 CL   UNL     1      88.914  70.464  87.182  0.00  0.00    +0.000 Cl
ENDBRANCH   9  10
ENDBRANCH   1   9
TORSDOF 3
ENDMDL
