REMARK  Name = *****
REMARK  5 active torsions:
REMARK  status: ('A' for Active; 'I' for Inactive)
REMARK    1  A    between atoms: C_1  and  O_2
REMARK    2  A    between atoms: O_2  and  C_3
REMARK    3  A    between atoms: C_3  and  C_5
REMARK    4  A    between atoms: C_8  and  C_11
REMARK    5  A    between atoms: C_12  and  C_13
REMARK                            x       y       z     vdW  Elec       q    Type
REMARK                         _______ _______ _______ _____ _____    ______ ____
ROOT
ATOM      1  C   UNL     1       4.494   1.254  -0.799  0.00  0.00    +0.000 A 
ATOM      2  C   UNL     1       5.122   0.026  -1.039  0.00  0.00    +0.000 A 
ATOM      3  C   UNL     1       6.519  -0.064  -1.037  0.00  0.00    +0.000 A 
ATOM      4  C   UNL     1       7.309   1.070  -0.808  0.00  0.00    +0.000 A 
ATOM      5  C   UNL     1       6.675   2.292  -0.550  0.00  0.00    +0.000 A 
ATOM      6  C   UNL     1       5.280   2.386  -0.552  0.00  0.00    +0.000 A 
ENDROOT
BRANCH   1   7
ATOM      7  C   UNL     1       3.013   1.409  -0.789  0.00  0.00    +0.000 C 
ATOM      8  O   UNL     1       2.448   2.466  -0.561  0.00  0.00    +0.000 OA
BRANCH   7  10
ATOM      9  C   UNL     1       0.979   0.300  -1.081  0.00  0.00    +0.000 C 
ATOM     10  O   UNL     1       2.406   0.228  -1.069  0.00  0.00    +0.000 OA
ENDBRANCH   7  10
ENDBRANCH   1   7
BRANCH   4  11
ATOM     11  C   UNL     1       8.776   1.008  -0.767  0.00  0.00    +0.000 C 
ATOM     12  C   UNL     1       9.515   0.252  -1.596  0.00  0.00    +0.000 C 
BRANCH  12  13
ATOM     13  C   UNL     1      10.984   0.205  -1.568  0.00  0.00    +0.000 A 
ATOM     14  C   UNL     1      11.710   0.212  -0.369  0.00  0.00    +0.000 A 
ATOM     15  C   UNL     1      13.105   0.135  -0.383  0.00  0.00    +0.000 A 
ATOM     16  C   UNL     1      13.788   0.039  -1.593  0.00  0.00    +0.000 A 
ATOM     17  C   UNL     1      13.076   0.016  -2.791  0.00  0.00    +0.000 A 
ATOM     18  C   UNL     1      11.681   0.092  -2.778  0.00  0.00    +0.000 A 
ENDBRANCH  12  13
ENDBRANCH   4  11
TORSDOF 4
