MODEL 1
REMARK VINA RESULT:      -4.2      0.000      0.000
REMARK  Name = *****
REMARK  2 active torsions:
REMARK  status: ('A' for Active; 'I' for Inactive)
REMARK    1  A    between atoms: C_1  and  C_2
REMARK    2  A    between atoms: C_5  and  C_6
REMARK                            x       y       z     vdW  Elec       q    Type
REMARK                         _______ _______ _______ _____ _____    ______ ____
ROOT
ATOM      1  C   UNL     1      88.408  70.475  86.651  0.00  0.00    +0.000 A 
ATOM      2  C   UNL     1      87.333  71.024  85.993  0.00  0.00    +0.000 A 
ATOM      3  C   UNL     1      86.302  71.473  86.887  0.00  0.00    +0.000 A 
ATOM      4  C   UNL     1      85.053  72.084  86.621  0.00  0.00    +0.000 A 
ATOM      5  C   UNL     1      84.202  72.440  87.671  0.00  0.00    +0.000 A 
ATOM      6  C   UNL     1      84.572  72.199  88.987  0.00  0.00    +0.000 A 
ATOM      7  C   UNL     1      85.798  71.598  89.280  0.00  0.00    +0.000 A 
ATOM      8  C   UNL     1      86.653  71.240  88.219  0.00  0.00    +0.000 A 
ATOM      9  S   UNL     1      88.199  70.491  88.337  0.00  0.00    +0.000 S 
ENDROOT
BRANCH   1  14
ATOM     10  C   UNL     1      90.550  70.018  83.463  0.00  0.00    +0.000 C 
ATOM     11  C   UNL     1      89.388  69.643  84.374  0.00  0.00    +0.000 C 
ATOM     12  C   UNL     1      89.261  68.139  84.685  0.00  0.00    +0.000 C 
ATOM     13  C   UNL     1      89.880  68.403  86.062  0.00  0.00    +0.000 C 
ATOM     14  C   UNL     1      89.630  69.925  85.893  0.00  0.00    +0.000 C 
ENDBRANCH   1  14
TORSDOF 1
ENDMDL
