MODEL 1
REMARK VINA RESULT:      -4.3      0.000      0.000
REMARK  Name = *****
REMARK  3 active torsions:
REMARK  status: ('A' for Active; 'I' for Inactive)
REMARK    1  A    between atoms: C_4  and  S_7
REMARK    2  A    between atoms: S_7  and  C_8
REMARK    3  A    between atoms: C_8  and  C_9
REMARK                            x       y       z     vdW  Elec       q    Type
REMARK                         _______ _______ _______ _____ _____    ______ ____
ROOT
ATOM      1  C   UNL     1     103.289 125.973  83.827  0.00  0.00    +0.000 C 
ENDROOT
BRANCH   1   2
ATOM      2  C   UNL     1     103.765 124.931  82.838  0.00  0.00    +0.000 A 
ATOM      3  C   UNL     1     104.285 123.681  83.224  0.00  0.00    +0.000 A 
ATOM      4  C   UNL     1     104.724 122.765  82.264  0.00  0.00    +0.000 A 
ATOM      5  C   UNL     1     104.654 123.095  80.918  0.00  0.00    +0.000 A 
ATOM      6  C   UNL     1     104.156 124.324  80.508  0.00  0.00    +0.000 A 
ATOM      7  C   UNL     1     103.717 125.241  81.464  0.00  0.00    +0.000 A 
ATOM      8  F   UNL     1     105.075 122.216  80.000  0.00  0.00    +0.000 F 
ATOM      9 BR   UNL     1     104.429 123.153  85.044  0.00  0.00    +0.000 Br
ENDBRANCH   1   2
BRANCH   1  10
ATOM     10  S   UNL     1     103.033 127.584  83.015  0.00  0.00    +0.000 S 
BRANCH  10  14
ATOM     11  C   UNL     1      98.443 127.898  82.931  0.00  0.00    +0.000 A 
ATOM     12  C   UNL     1      99.170 128.945  83.491  0.00  0.00    +0.000 A 
ATOM     13  C   UNL     1     100.569 128.888  83.538  0.00  0.00    +0.000 A 
ATOM     14  C   UNL     1     101.255 127.784  83.022  0.00  0.00    +0.000 A 
ATOM     15  C   UNL     1     100.507 126.738  82.460  0.00  0.00    +0.000 A 
ATOM     16  C   UNL     1      99.112 126.793  82.414  0.00  0.00    +0.000 A 
ENDBRANCH  10  14
ENDBRANCH   1  10
TORSDOF 3
ENDMDL
