REMARK  Name = *****
REMARK  4 active torsions:
REMARK  status: ('A' for Active; 'I' for Inactive)
REMARK    1  A    between atoms: C_1  and  C_2
REMARK    2  A    between atoms: C_5  and  O_8
REMARK    3  A    between atoms: O_8  and  C_9
REMARK    4  A    between atoms: C_9  and  C_11
REMARK                            x       y       z     vdW  Elec       q    Type
REMARK                         _______ _______ _______ _____ _____    ______ ____
ROOT
ATOM      1  C   UNL     1      -3.926   1.042  -0.391  0.00  0.00    +0.000 C 
ATOM      2  O   UNL     1      -3.478   1.994  -1.012  0.00  0.00    +0.000 OA
ENDROOT
BRANCH   1   3
ATOM      3  C   UNL     1      -5.386   0.829  -0.178  0.00  0.00    +0.000 A 
ATOM      4  C   UNL     1      -6.273   1.798  -0.676  0.00  0.00    +0.000 A 
ATOM      5  C   UNL     1      -7.651   1.648  -0.505  0.00  0.00    +0.000 A 
ATOM      6  C   UNL     1      -8.141   0.532   0.162  0.00  0.00    +0.000 A 
ATOM      7  C   UNL     1      -7.279  -0.439   0.662  0.00  0.00    +0.000 A 
ATOM      8  C   UNL     1      -5.899  -0.293   0.494  0.00  0.00    +0.000 A 
ATOM      9  F   UNL     1      -9.462   0.388   0.326  0.00  0.00    +0.000 F 
ENDBRANCH   1   3
BRANCH   1  10
ATOM     10  O   UNL     1      -3.214   0.021   0.211  0.00  0.00    +0.000 OA
BRANCH  10  15
ATOM     11  C   UNL     1       2.474  -0.001   0.034  0.00  0.00    +0.000 C 
ATOM     12  C   UNL     1       0.974   0.033   0.049  0.00  0.00    +0.000 A 
ATOM     13  C   UNL     1       0.297   1.158   0.541  0.00  0.00    +0.000 A 
ATOM     14  C   UNL     1      -1.098   1.182   0.587  0.00  0.00    +0.000 A 
ATOM     15  C   UNL     1      -1.815   0.079   0.131  0.00  0.00    +0.000 A 
ATOM     16  C   UNL     1      -1.160  -1.061  -0.329  0.00  0.00    +0.000 A 
ATOM     17  C   UNL     1       0.235  -1.082  -0.370  0.00  0.00    +0.000 A 
ENDBRANCH  10  15
ENDBRANCH   1  10
TORSDOF 3
