MODEL 1
REMARK VINA RESULT:      -4.3      0.000      0.000
REMARK  Name = *****
REMARK  4 active torsions:
REMARK  status: ('A' for Active; 'I' for Inactive)
REMARK    1  A    between atoms: C_2  and  C_3
REMARK    2  A    between atoms: C_2  and  O_10
REMARK    3  A    between atoms: C_3  and  C_4
REMARK    4  A    between atoms: O_10  and  C_11
REMARK                            x       y       z     vdW  Elec       q    Type
REMARK                         _______ _______ _______ _____ _____    ______ ____
ROOT
ATOM      1  C   UNL     1      86.835  68.615  88.409  0.00  0.00    +0.000 C 
ATOM      2  C   UNL     1      87.620  69.701  88.307  0.00  0.00    +0.000 C 
ENDROOT
BRANCH   2   3
ATOM      3  C   UNL     1      87.134  71.093  88.628  0.00  0.00    +0.000 C 
BRANCH   3   4
ATOM      4  C   UNL     1      86.059  71.575  87.682  0.00  0.00    +0.000 A 
ATOM      5  C   UNL     1      86.256  71.527  86.295  0.00  0.00    +0.000 A 
ATOM      6  C   UNL     1      85.272  71.992  85.423  0.00  0.00    +0.000 A 
ATOM      7  C   UNL     1      84.083  72.517  85.927  0.00  0.00    +0.000 A 
ATOM      8  C   UNL     1      83.880  72.579  87.304  0.00  0.00    +0.000 A 
ATOM      9  C   UNL     1      84.862  72.113  88.178  0.00  0.00    +0.000 A 
ENDBRANCH   3   4
ENDBRANCH   2   3
BRANCH   2  10
ATOM     10  O   UNL     1      88.982  69.622  88.037  0.00  0.00    +0.000 OA
BRANCH  10  11
ATOM     11  C   UNL     1      89.392  69.581  86.724  0.00  0.00    +0.000 A 
ATOM     12  C   UNL     1      89.392  68.409  85.967  0.00  0.00    +0.000 A 
ATOM     13  C   UNL     1      89.782  68.448  84.627  0.00  0.00    +0.000 A 
ATOM     14  C   UNL     1      90.158  69.660  84.044  0.00  0.00    +0.000 A 
ATOM     15  C   UNL     1      90.136  70.835  84.797  0.00  0.00    +0.000 A 
ATOM     16  C   UNL     1      89.746  70.796  86.136  0.00  0.00    +0.000 A 
ENDBRANCH  10  11
ENDBRANCH   2  10
TORSDOF 4
ENDMDL
