MODEL 1
REMARK VINA RESULT:      -4.6      0.000      0.000
REMARK  Name = *****
REMARK  2 active torsions:
REMARK  status: ('A' for Active; 'I' for Inactive)
REMARK    1  A    between atoms: C_1  and  C_2
REMARK    2  A    between atoms: C_10  and  C_12
REMARK                            x       y       z     vdW  Elec       q    Type
REMARK                         _______ _______ _______ _____ _____    ______ ____
ROOT
ATOM      1  C   UNL     1      89.431  63.877  84.817  0.00  0.00    +0.000 C 
ATOM      2  C   UNL     1      89.602  64.529  86.189  0.00  0.00    +0.000 C 
ATOM      3  C   UNL     1      88.310  64.963  86.912  0.00  0.00    +0.000 C 
ATOM      4  C   UNL     1      87.035  64.180  86.576  0.00  0.00    +0.000 C 
ATOM      5  C   UNL     1      87.012  62.792  87.209  0.00  0.00    +0.000 C 
ATOM      6  C   UNL     1      87.199  62.866  88.721  0.00  0.00    +0.000 C 
ATOM      7  C   UNL     1      88.462  63.634  89.097  0.00  0.00    +0.000 C 
ATOM      8  C   UNL     1      88.496  65.015  88.447  0.00  0.00    +0.000 C 
ATOM      9  O   UNL     1      88.152  66.314  86.455  0.00  0.00    +0.000 OA
ATOM     10  C   UNL     1      89.398  66.700  86.089  0.00  0.00    +0.000 C 
ATOM     11  N   UNL     1      90.326  65.802  85.967  0.00  0.00    +0.000 NA
ENDROOT
BRANCH  10  12
ATOM     12  C   UNL     1      89.556  68.148  85.871  0.00  0.00    +0.000 A 
ATOM     13  C   UNL     1      89.851  68.670  84.606  0.00  0.00    +0.000 A 
ATOM     14  C   UNL     1      89.993  70.049  84.433  0.00  0.00    +0.000 A 
ATOM     15  C   UNL     1      89.842  70.909  85.520  0.00  0.00    +0.000 A 
ATOM     16  C   UNL     1      89.547  70.394  86.782  0.00  0.00    +0.000 A 
ATOM     17  C   UNL     1      89.405  69.016  86.959  0.00  0.00    +0.000 A 
ENDBRANCH  10  12
TORSDOF 1
ENDMDL
