REMARK  Name = *****
REMARK  5 active torsions:
REMARK  status: ('A' for Active; 'I' for Inactive)
REMARK    1  A    between atoms: C_1  and  C_2
REMARK    2  A    between atoms: C_5  and  S_8
REMARK    3  A    between atoms: S_8  and  O_10
REMARK    4  A    between atoms: O_10  and  C_11
REMARK    5  A    between atoms: C_11  and  C_12
REMARK                            x       y       z     vdW  Elec       q    Type
REMARK                         _______ _______ _______ _____ _____    ______ ____
ROOT
ATOM      1  O   UNL     1      -3.204   1.676  -0.992  0.00  0.00    +0.000 OA
ENDROOT
BRANCH   1   2
ATOM      2  S   UNL     1      -3.140   0.072  -0.845  0.00  0.00    +0.000 S 
ATOM      3  O   UNL     1      -4.029  -0.321   0.297  0.00  0.00    +0.000 OA
BRANCH   2   8
ATOM      4  C   UNL     1       2.587   0.156   1.325  0.00  0.00    +0.000 C 
ATOM      5  C   UNL     1       1.187   0.110   0.789  0.00  0.00    +0.000 A 
ATOM      6  C   UNL     1       0.906   0.587  -0.497  0.00  0.00    +0.000 A 
ATOM      7  C   UNL     1      -0.403   0.577  -0.985  0.00  0.00    +0.000 A 
ATOM      8  C   UNL     1      -1.452   0.103  -0.189  0.00  0.00    +0.000 A 
ATOM      9  C   UNL     1      -1.174  -0.366   1.099  0.00  0.00    +0.000 A 
ATOM     10  C   UNL     1       0.135  -0.354   1.588  0.00  0.00    +0.000 A 
ENDBRANCH   2   8
ENDBRANCH   1   2
BRANCH   1  11
ATOM     11  C   UNL     1      -4.499   2.242  -0.836  0.00  0.00    +0.000 C 
BRANCH  11  12
ATOM     12  C   UNL     1      -4.411   3.714  -1.154  0.00  0.00    +0.000 A 
ATOM     13  C   UNL     1      -4.700   4.678  -0.179  0.00  0.00    +0.000 A 
ATOM     14  C   UNL     1      -4.613   6.035  -0.489  0.00  0.00    +0.000 A 
ATOM     15  C   UNL     1      -4.242   6.460  -1.756  0.00  0.00    +0.000 A 
ATOM     16  C   UNL     1      -3.955   5.506  -2.721  0.00  0.00    +0.000 A 
ATOM     17  C   UNL     1      -4.036   4.145  -2.436  0.00  0.00    +0.000 A 
ATOM     18  F   UNL     1      -3.593   5.899  -3.949  0.00  0.00    +0.000 F 
ATOM     19  F   UNL     1      -4.894   6.943   0.455  0.00  0.00    +0.000 F 
ENDBRANCH  11  12
ENDBRANCH   1  11
TORSDOF 4
