REMARK  Name = *****
REMARK  3 active torsions:
REMARK  status: ('A' for Active; 'I' for Inactive)
REMARK    1  A    between atoms: C_1  and  C_2
REMARK    2  A    between atoms: C_2  and  C_10
REMARK    3  A    between atoms: N_3  and  C_4
REMARK                            x       y       z     vdW  Elec       q    Type
REMARK                         _______ _______ _______ _____ _____    ______ ____
ROOT
ATOM      1  C   UNL     1       1.168  -0.933  -0.477  0.00  0.00    +0.000 C 
ATOM      2  C   UNL     1       2.486  -0.230  -0.205  0.00  0.00    +0.000 C 
ATOM      3  N   UNL     1       3.002   0.676  -0.987  0.00  0.00    +0.000 NA
ENDROOT
BRANCH   3   4
ATOM      4  C   UNL     1       2.331   1.068  -2.151  0.00  0.00    +0.000 A 
ATOM      5  C   UNL     1       1.343   2.055  -2.104  0.00  0.00    +0.000 A 
ATOM      6  C   UNL     1       0.691   2.460  -3.271  0.00  0.00    +0.000 A 
ATOM      7  C   UNL     1       1.038   1.889  -4.495  0.00  0.00    +0.000 A 
ATOM      8  C   UNL     1       2.039   0.919  -4.553  0.00  0.00    +0.000 A 
ATOM      9  C   UNL     1       2.687   0.517  -3.384  0.00  0.00    +0.000 A 
ENDBRANCH   3   4
BRANCH   2  10
ATOM     10  C   UNL     1       3.227  -0.591   1.043  0.00  0.00    +0.000 A 
ATOM     11  C   UNL     1       2.560  -1.048   2.186  0.00  0.00    +0.000 A 
ATOM     12  C   UNL     1       3.283  -1.372   3.337  0.00  0.00    +0.000 A 
ATOM     13  C   UNL     1       4.670  -1.237   3.354  0.00  0.00    +0.000 A 
ATOM     14  C   UNL     1       5.339  -0.769   2.224  0.00  0.00    +0.000 A 
ATOM     15  C   UNL     1       4.620  -0.443   1.073  0.00  0.00    +0.000 A 
ENDBRANCH   2  10
TORSDOF 2
