MODEL 1
REMARK VINA RESULT:      -4.7      0.000      0.000
REMARK  Name = *****
REMARK  4 active torsions:
REMARK  status: ('A' for Active; 'I' for Inactive)
REMARK    1  A    between atoms: C_3  and  C_19
REMARK    2  A    between atoms: C_6  and  C_7
REMARK    3  A    between atoms: C_8  and  C_9
REMARK    4  A    between atoms: C_12  and  C_15
REMARK                            x       y       z     vdW  Elec       q    Type
REMARK                         _______ _______ _______ _____ _____    ______ ____
ROOT
ATOM      1  C   UNL     1      88.203  66.792  86.170  0.00  0.00    +0.000 C 
ATOM      2  C   UNL     1      87.880  68.029  86.585  0.00  0.00    +0.000 C 
ENDROOT
BRANCH   1   8
ATOM      3  C   UNL     1      86.547  64.921  86.464  0.00  0.00    +0.000 A 
ATOM      4  C   UNL     1      86.153  63.734  87.094  0.00  0.00    +0.000 A 
ATOM      5  C   UNL     1      86.955  63.169  88.089  0.00  0.00    +0.000 A 
ATOM      6  C   UNL     1      88.146  63.798  88.439  0.00  0.00    +0.000 A 
ATOM      7  C   UNL     1      88.544  64.980  87.815  0.00  0.00    +0.000 A 
ATOM      8  C   UNL     1      87.740  65.563  86.829  0.00  0.00    +0.000 A 
ATOM      9  F   UNL     1      88.939  63.274  89.385  0.00  0.00    +0.000 F 
BRANCH   5  10
ATOM     10  C   UNL     1      86.560  61.957  88.737  0.00  0.00    +0.000 C 
ATOM     11  N   UNL     1      86.205  60.981  89.254  0.00  0.00    +0.000 NA
ENDBRANCH   5  10
ENDBRANCH   1   8
BRANCH   2  12
ATOM     12  C   UNL     1      88.360  69.257  85.938  0.00  0.00    +0.000 A 
ATOM     13  C   UNL     1      87.425  70.218  85.536  0.00  0.00    +0.000 A 
ATOM     14  C   UNL     1      87.846  71.382  84.893  0.00  0.00    +0.000 A 
ATOM     15  C   UNL     1      89.194  71.609  84.628  0.00  0.00    +0.000 A 
ATOM     16  C   UNL     1      90.133  70.647  85.010  0.00  0.00    +0.000 A 
ATOM     17  C   UNL     1      89.717  69.476  85.656  0.00  0.00    +0.000 A 
ATOM     18  F   UNL     1      86.923  72.285  84.531  0.00  0.00    +0.000 F 
BRANCH  15  19
ATOM     19  C   UNL     1      89.611  72.805  83.966  0.00  0.00    +0.000 C 
ATOM     20  N   UNL     1      89.936  73.796  83.456  0.00  0.00    +0.000 NA
ENDBRANCH  15  19
ENDBRANCH   2  12
TORSDOF 4
ENDMDL
