MODEL 1
REMARK VINA RESULT:      -4.4      0.000      0.000
REMARK  Name = *****
REMARK  5 active torsions:
REMARK  status: ('A' for Active; 'I' for Inactive)
REMARK    1  A    between atoms: C_1  and  O_2
REMARK    2  A    between atoms: O_2  and  C_3
REMARK    3  A    between atoms: C_3  and  C_5
REMARK    4  A    between atoms: C_6  and  C_10
REMARK    5  A    between atoms: C_11  and  C_12
REMARK                            x       y       z     vdW  Elec       q    Type
REMARK                         _______ _______ _______ _____ _____    ______ ____
ROOT
ATOM      1  C   UNL     1      85.044  57.039  90.860  0.00  0.00    +0.000 A 
ATOM      2  C   UNL     1      84.605  58.360  90.889  0.00  0.00    +0.000 A 
ATOM      3  C   UNL     1      83.199  58.448  91.160  0.00  0.00    +0.000 A 
ATOM      4  C   UNL     1      82.609  57.216  91.316  0.00  0.00    +0.000 A 
ATOM      5  S   UNL     1      83.730  55.951  91.131  0.00  0.00    +0.000 S 
ENDROOT
BRANCH   1   6
ATOM      6  C   UNL     1      86.357  56.435  90.663  0.00  0.00    +0.000 C 
ATOM      7  O   UNL     1      87.184  56.203  91.539  0.00  0.00    +0.000 OA
BRANCH   6   9
ATOM      8  C   UNL     1      87.800  55.485  89.075  0.00  0.00    +0.000 C 
ATOM      9  O   UNL     1      86.578  56.173  89.341  0.00  0.00    +0.000 OA
ENDBRANCH   6   9
ENDBRANCH   1   6
BRANCH   2  10
ATOM     10  C   UNL     1      85.435  59.508  90.640  0.00  0.00    +0.000 C 
ATOM     11  C   UNL     1      84.988  60.718  90.262  0.00  0.00    +0.000 C 
BRANCH  11  12
ATOM     12  C   UNL     1      85.861  61.876  90.020  0.00  0.00    +0.000 A 
ATOM     13  C   UNL     1      86.006  62.911  90.954  0.00  0.00    +0.000 A 
ATOM     14  C   UNL     1      86.870  63.980  90.701  0.00  0.00    +0.000 A 
ATOM     15  C   UNL     1      87.604  64.019  89.518  0.00  0.00    +0.000 A 
ATOM     16  C   UNL     1      87.481  62.988  88.590  0.00  0.00    +0.000 A 
ATOM     17  C   UNL     1      86.618  61.919  88.843  0.00  0.00    +0.000 A 
ENDBRANCH  11  12
ENDBRANCH   2  10
TORSDOF 4
ENDMDL
