MODEL 1
REMARK VINA RESULT:      -4.7      0.000      0.000
REMARK  Name = *****
REMARK  5 active torsions:
REMARK  status: ('A' for Active; 'I' for Inactive)
REMARK    1  A    between atoms: C_1  and  C_2
REMARK    2  A    between atoms: C_5  and  S_8
REMARK    3  A    between atoms: S_8  and  C_9
REMARK    4  A    between atoms: C_9  and  C_10
REMARK    5  A    between atoms: C_14  and  C_16
REMARK                            x       y       z     vdW  Elec       q    Type
REMARK                         _______ _______ _______ _____ _____    ______ ____
ROOT
ATOM      1  S   UNL     1      88.160  70.465  88.597  0.00  0.00    +0.000 S 
ENDROOT
BRANCH   1   6
ATOM      2  C   UNL     1      83.223  73.018  86.098  0.00  0.00    +0.000 C 
ATOM      3  C   UNL     1      84.426  72.367  86.716  0.00  0.00    +0.000 A 
ATOM      4  C   UNL     1      84.549  72.282  88.108  0.00  0.00    +0.000 A 
ATOM      5  C   UNL     1      85.684  71.706  88.684  0.00  0.00    +0.000 A 
ATOM      6  C   UNL     1      86.711  71.213  87.875  0.00  0.00    +0.000 A 
ATOM      7  C   UNL     1      86.604  71.320  86.488  0.00  0.00    +0.000 A 
ATOM      8  C   UNL     1      85.469  71.895  85.910  0.00  0.00    +0.000 A 
ENDBRANCH   1   6
BRANCH   1   9
ATOM      9  C   UNL     1      89.013  69.922  87.079  0.00  0.00    +0.000 C 
BRANCH   9  10
ATOM     10  C   UNL     1      89.001  68.425  86.896  0.00  0.00    +0.000 A 
ATOM     11  C   UNL     1      87.934  67.655  87.379  0.00  0.00    +0.000 A 
ATOM     12  C   UNL     1      87.931  66.270  87.215  0.00  0.00    +0.000 A 
ATOM     13  C   UNL     1      88.995  65.637  86.574  0.00  0.00    +0.000 A 
ATOM     14  C   UNL     1      90.082  66.383  86.103  0.00  0.00    +0.000 A 
ATOM     15  C   UNL     1      90.069  67.777  86.256  0.00  0.00    +0.000 A 
ATOM     16  C   UNL     1      91.219  65.710  85.394  0.00  0.00    +0.000 C 
ENDBRANCH   9  10
ENDBRANCH   1   9
TORSDOF 3
ENDMDL
