MODEL 1
REMARK VINA RESULT:      -4.3      0.000      0.000
REMARK  Name = *****
REMARK  3 active torsions:
REMARK  status: ('A' for Active; 'I' for Inactive)
REMARK    1  A    between atoms: C_5  and  C_7
REMARK    2  A    between atoms: C_7  and  O_9
REMARK    3  A    between atoms: O_9  and  C_10
REMARK                            x       y       z     vdW  Elec       q    Type
REMARK                         _______ _______ _______ _____ _____    ______ ____
ROOT
ATOM      1  C   UNL     1      88.558  70.582  85.537  0.00  0.00    +0.000 C 
ATOM      2  O   UNL     1      89.651  71.121  85.612  0.00  0.00    +0.000 OA
ENDROOT
BRANCH   1   7
ATOM      3  C   UNL     1      85.172  72.072  86.127  0.00  0.00    +0.000 A 
ATOM      4  C   UNL     1      85.061  72.023  87.515  0.00  0.00    +0.000 A 
ATOM      5  C   UNL     1      86.094  71.478  88.280  0.00  0.00    +0.000 A 
ATOM      6  C   UNL     1      87.251  70.990  87.663  0.00  0.00    +0.000 A 
ATOM      7  C   UNL     1      87.374  71.064  86.271  0.00  0.00    +0.000 A 
ATOM      8  C   UNL     1      86.323  71.590  85.504  0.00  0.00    +0.000 A 
ATOM      9 CL   UNL     1      88.445  70.261  88.676  0.00  0.00    +0.000 Cl
ENDBRANCH   1   7
BRANCH   1  10
ATOM     10  O   UNL     1      88.234  69.391  84.916  0.00  0.00    +0.000 OA
BRANCH  10  11
ATOM     11  C   UNL     1      88.504  68.220  85.636  0.00  0.00    +0.000 A 
ATOM     12  C   UNL     1      87.409  67.526  86.153  0.00  0.00    +0.000 A 
ATOM     13  C   UNL     1      87.621  66.324  86.828  0.00  0.00    +0.000 A 
ATOM     14  C   UNL     1      88.916  65.832  86.962  0.00  0.00    +0.000 A 
ATOM     15  C   UNL     1      90.006  66.513  86.428  0.00  0.00    +0.000 A 
ATOM     16  C   UNL     1      89.801  67.713  85.748  0.00  0.00    +0.000 A 
ATOM     17  F   UNL     1      89.115  64.676  87.610  0.00  0.00    +0.000 F 
ENDBRANCH  10  11
ENDBRANCH   1  10
TORSDOF 3
ENDMDL
