REMARK  Name = *****
REMARK  3 active torsions:
REMARK  status: ('A' for Active; 'I' for Inactive)
REMARK    1  A    between atoms: C_4  and  S_7
REMARK    2  A    between atoms: S_7  and  C_8
REMARK    3  A    between atoms: C_8  and  C_9
REMARK                            x       y       z     vdW  Elec       q    Type
REMARK                         _______ _______ _______ _____ _____    ______ ____
ROOT
ATOM      1  C   UNL     1      -3.967  -0.952  -0.373  0.00  0.00    +0.000 C 
ENDROOT
BRANCH   1   2
ATOM      2  C   UNL     1      -5.456  -0.757  -0.532  0.00  0.00    +0.000 A 
ATOM      3  C   UNL     1      -6.003  -0.445  -1.787  0.00  0.00    +0.000 A 
ATOM      4  C   UNL     1      -7.379  -0.255  -1.933  0.00  0.00    +0.000 A 
ATOM      5  C   UNL     1      -8.214  -0.370  -0.824  0.00  0.00    +0.000 A 
ATOM      6  C   UNL     1      -7.687  -0.669   0.430  0.00  0.00    +0.000 A 
ATOM      7  C   UNL     1      -6.311  -0.859   0.576  0.00  0.00    +0.000 A 
ATOM      8 BR   UNL     1     -10.077  -0.111  -1.022  0.00  0.00    +0.000 Br
ENDBRANCH   1   2
BRANCH   1   9
ATOM      9  S   UNL     1      -3.131   0.625  -0.007  0.00  0.00    +0.000 S 
BRANCH   9  13
ATOM     10  C   UNL     1       1.343  -0.348   0.442  0.00  0.00    +0.000 A 
ATOM     11  C   UNL     1       0.467  -1.381   0.119  0.00  0.00    +0.000 A 
ATOM     12  C   UNL     1      -0.901  -1.127  -0.026  0.00  0.00    +0.000 A 
ATOM     13  C   UNL     1      -1.410   0.164   0.151  0.00  0.00    +0.000 A 
ATOM     14  C   UNL     1      -0.514   1.194   0.476  0.00  0.00    +0.000 A 
ATOM     15  C   UNL     1       0.853   0.941   0.620  0.00  0.00    +0.000 A 
ENDBRANCH   9  13
ENDBRANCH   1   9
TORSDOF 3
