REMARK  Name = *****
REMARK  5 active torsions:
REMARK  status: ('A' for Active; 'I' for Inactive)
REMARK    1  A    between atoms: C_1  and  C_2
REMARK    2  A    between atoms: C_5  and  S_8
REMARK    3  A    between atoms: S_8  and  O_10
REMARK    4  A    between atoms: O_10  and  C_11
REMARK    5  A    between atoms: C_16  and  C_18
REMARK                            x       y       z     vdW  Elec       q    Type
REMARK                         _______ _______ _______ _____ _____    ______ ____
ROOT
ATOM      1  S   UNL     1      -5.330   0.813  -3.079  0.00  0.00    +0.000 S 
ATOM      2  O   UNL     1      -5.382  -0.153  -1.933  0.00  0.00    +0.000 OA
ENDROOT
BRANCH   1   7
ATOM      3  C   UNL     1      -2.751  -2.219  -7.738  0.00  0.00    +0.000 C 
ATOM      4  C   UNL     1      -3.406  -1.476  -6.611  0.00  0.00    +0.000 A 
ATOM      5  C   UNL     1      -3.497  -0.079  -6.637  0.00  0.00    +0.000 A 
ATOM      6  C   UNL     1      -4.076   0.613  -5.569  0.00  0.00    +0.000 A 
ATOM      7  C   UNL     1      -4.554  -0.081  -4.451  0.00  0.00    +0.000 A 
ATOM      8  C   UNL     1      -4.455  -1.476  -4.422  0.00  0.00    +0.000 A 
ATOM      9  C   UNL     1      -3.879  -2.168  -5.490  0.00  0.00    +0.000 A 
ENDBRANCH   1   7
BRANCH   1  10
ATOM     10  O   UNL     1      -4.058   1.779  -2.863  0.00  0.00    +0.000 OA
BRANCH  10  11
ATOM     11  C   UNL     1      -3.925   2.379  -1.582  0.00  0.00    +0.000 C 
ATOM     12  C   UNL     1      -2.434   2.696  -1.334  0.00  0.00    +0.000 C 
ATOM     13  C   UNL     1      -2.433   4.214  -1.086  0.00  0.00    +0.000 C 
ATOM     14  C   UNL     1      -2.687   4.931  -2.423  0.00  0.00    +0.000 C 
ATOM     15  C   UNL     1      -4.174   4.657  -2.689  0.00  0.00    +0.000 C 
ATOM     16  C   UNL     1      -4.584   3.784  -1.482  0.00  0.00    +0.000 C 
ATOM     17  C   UNL     1      -3.759   4.419  -0.355  0.00  0.00    +0.000 C 
ATOM     18  C   UNL     1      -6.079   3.767  -1.234  0.00  0.00    +0.000 C 
ENDBRANCH  10  11
ENDBRANCH   1  10
TORSDOF 3
