MODEL 1
REMARK VINA RESULT:      -4.3      0.000      0.000
REMARK  Name = *****
REMARK  4 active torsions:
REMARK  status: ('A' for Active; 'I' for Inactive)
REMARK    1  A    between atoms: C_4  and  C_7
REMARK    2  A    between atoms: C_7  and  C_8
REMARK    3  A    between atoms: C_8  and  C_9
REMARK    4  A    between atoms: C_9  and  C_11
REMARK                            x       y       z     vdW  Elec       q    Type
REMARK                         _______ _______ _______ _____ _____    ______ ____
ROOT
ATOM      1  C   UNL     1      88.608  69.616  85.235  0.00  0.00    +0.000 C 
ATOM      2  F   UNL     1      87.412  69.073  84.859  0.00  0.00    +0.000 F 
ATOM      3 CL   UNL     1      89.825  69.130  84.001  0.00  0.00    +0.000 Cl
ENDROOT
BRANCH   1   4
ATOM      4  C   UNL     1      89.126  69.100  86.578  0.00  0.00    +0.000 C 
ATOM      5  O   UNL     1      90.120  68.373  86.669  0.00  0.00    +0.000 OA
BRANCH   4   6
ATOM      6  C   UNL     1      88.392  69.441  87.833  0.00  0.00    +0.000 A 
ATOM      7  C   UNL     1      88.772  70.493  88.673  0.00  0.00    +0.000 A 
ATOM      8  C   UNL     1      88.031  70.775  89.825  0.00  0.00    +0.000 A 
ATOM      9  C   UNL     1      86.906  70.016  90.139  0.00  0.00    +0.000 A 
ATOM     10  C   UNL     1      86.513  68.974  89.301  0.00  0.00    +0.000 A 
ATOM     11  C   UNL     1      87.251  68.689  88.151  0.00  0.00    +0.000 A 
ENDBRANCH   4   6
ENDBRANCH   1   4
BRANCH   1  12
ATOM     12  C   UNL     1      88.471  71.145  85.223  0.00  0.00    +0.000 C 
BRANCH  12  16
ATOM     13  C   UNL     1      84.382  72.518  84.987  0.00  0.00    +0.000 A 
ATOM     14  C   UNL     1      85.183  72.514  83.848  0.00  0.00    +0.000 A 
ATOM     15  C   UNL     1      86.503  72.067  83.922  0.00  0.00    +0.000 A 
ATOM     16  C   UNL     1      87.035  71.619  85.139  0.00  0.00    +0.000 A 
ATOM     17  C   UNL     1      86.221  71.631  86.280  0.00  0.00    +0.000 A 
ATOM     18  C   UNL     1      84.901  72.077  86.203  0.00  0.00    +0.000 A 
ENDBRANCH  12  16
ENDBRANCH   1  12
TORSDOF 4
ENDMDL
