MODEL 1
REMARK VINA RESULT:      -4.6      0.000      0.000
REMARK  Name = *****
REMARK  4 active torsions:
REMARK  status: ('A' for Active; 'I' for Inactive)
REMARK    1  A    between atoms: C_1  and  C_2
REMARK    2  A    between atoms: C_2  and  C_11
REMARK    3  A    between atoms: N_3  and  C_4
REMARK    4  A    between atoms: C_4  and  C_5
REMARK                            x       y       z     vdW  Elec       q    Type
REMARK                         _______ _______ _______ _____ _____    ______ ____
ROOT
ATOM      1  C   UNL     1      90.869  66.004  85.663  0.00  0.00    +0.000 C 
ATOM      2  C   UNL     1      89.727  66.852  86.194  0.00  0.00    +0.000 C 
ATOM      3  N   UNL     1      88.740  66.386  86.884  0.00  0.00    +0.000 NA
ENDROOT
BRANCH   2   4
ATOM      4  C   UNL     1      89.743  68.337  85.898  0.00  0.00    +0.000 C 
ATOM      5  C   UNL     1      89.625  69.261  86.871  0.00  0.00    +0.000 C 
ATOM      6  C   UNL     1      89.607  70.741  86.611  0.00  0.00    +0.000 C 
ATOM      7  C   UNL     1      89.407  71.098  85.140  0.00  0.00    +0.000 C 
ATOM      8  C   UNL     1      90.258  70.207  84.245  0.00  0.00    +0.000 C 
ATOM      9  C   UNL     1      89.911  68.729  84.447  0.00  0.00    +0.000 C 
ENDBRANCH   2   4
BRANCH   3  10
ATOM     10  C   UNL     1      88.648  64.964  87.196  0.00  0.00    +0.000 C 
BRANCH  10  11
ATOM     11  C   UNL     1      88.169  64.740  88.612  0.00  0.00    +0.000 A 
ATOM     12  C   UNL     1      88.927  63.985  89.518  0.00  0.00    +0.000 A 
ATOM     13  C   UNL     1      88.488  63.800  90.830  0.00  0.00    +0.000 A 
ATOM     14  C   UNL     1      87.289  64.371  91.253  0.00  0.00    +0.000 A 
ATOM     15  C   UNL     1      86.526  65.126  90.364  0.00  0.00    +0.000 A 
ATOM     16  C   UNL     1      86.964  65.310  89.052  0.00  0.00    +0.000 A 
ENDBRANCH  10  11
ENDBRANCH   3  10
TORSDOF 3
ENDMDL
