MODEL 1
REMARK VINA RESULT:      -4.4      0.000      0.000
REMARK  Name = *****
REMARK  3 active torsions:
REMARK  status: ('A' for Active; 'I' for Inactive)
REMARK    1  A    between atoms: C_2  and  C_3
REMARK    2  A    between atoms: C_6  and  C_8
REMARK    3  A    between atoms: C_9  and  C_10
REMARK                            x       y       z     vdW  Elec       q    Type
REMARK                         _______ _______ _______ _____ _____    ______ ____
ROOT
ATOM      1  C   UNL     1     101.621 126.003  82.330  0.00  0.00    +0.000 C 
ATOM      2  C   UNL     1     102.606 126.269  81.456  0.00  0.00    +0.000 C 
ENDROOT
BRANCH   2   3
ATOM      3  C   UNL     1     103.642 125.293  81.087  0.00  0.00    +0.000 A 
ATOM      4  C   UNL     1     104.392 125.408  79.909  0.00  0.00    +0.000 A 
ATOM      5  C   UNL     1     105.390 124.479  79.607  0.00  0.00    +0.000 A 
ATOM      6  C   UNL     1     105.655 123.430  80.485  0.00  0.00    +0.000 A 
ATOM      7  C   UNL     1     104.928 123.313  81.668  0.00  0.00    +0.000 A 
ATOM      8  C   UNL     1     103.930 124.243  81.970  0.00  0.00    +0.000 A 
ENDBRANCH   2   3
BRANCH   1  12
ATOM      9  C   UNL     1      99.508 129.005  83.640  0.00  0.00    +0.000 A 
ATOM     10  C   UNL     1      98.636 128.174  82.961  0.00  0.00    +0.000 A 
ATOM     11  C   UNL     1      99.269 127.017  82.417  0.00  0.00    +0.000 A 
ATOM     12  C   UNL     1     100.625 126.964  82.679  0.00  0.00    +0.000 A 
ATOM     13  S   UNL     1     101.098 128.345  83.595  0.00  0.00    +0.000 S 
BRANCH   9  15
ATOM     14  C   UNL     1      99.662 131.423  83.818  0.00  0.00    +0.000 C 
ATOM     15  C   UNL     1      99.291 130.238  84.320  0.00  0.00    +0.000 C 
ENDBRANCH   9  15
ENDBRANCH   1  12
TORSDOF 3
ENDMDL
