REMARK  Name = *****
REMARK  5 active torsions:
REMARK  status: ('A' for Active; 'I' for Inactive)
REMARK    1  A    between atoms: C_1  and  N_2
REMARK    2  A    between atoms: N_2  and  C_3
REMARK    3  A    between atoms: C_4  and  C_5
REMARK    4  A    between atoms: C_4  and  C_11
REMARK    5  A    between atoms: C_5  and  C_6
REMARK                            x       y       z     vdW  Elec       q    Type
REMARK                         _______ _______ _______ _____ _____    ______ ____
ROOT
ATOM      1  C   UNL     1       2.940  -0.505  -1.106  0.00  0.00    +0.000 C 
ATOM      2  C   UNL     1       4.429  -0.528  -1.002  0.00  0.00    +0.000 C 
ENDROOT
BRANCH   2   3
ATOM      3  C   UNL     1       5.232  -0.988  -2.150  0.00  0.00    +0.000 A 
ATOM      4  C   UNL     1       5.564  -2.342  -2.282  0.00  0.00    +0.000 A 
ATOM      5  C   UNL     1       6.348  -2.774  -3.354  0.00  0.00    +0.000 A 
ATOM      6  C   UNL     1       6.804  -1.855  -4.299  0.00  0.00    +0.000 A 
ATOM      7  C   UNL     1       6.477  -0.506  -4.176  0.00  0.00    +0.000 A 
ATOM      8  C   UNL     1       5.694  -0.072  -3.104  0.00  0.00    +0.000 A 
ENDBRANCH   2   3
BRANCH   1  10
ATOM      9  C   UNL     1       0.839  -0.905  -1.952  0.00  0.00    +0.000 C 
ATOM     10  N   UNL     1       2.284  -1.079  -2.057  0.00  0.00    +0.000 NA
ENDBRANCH   1  10
BRANCH   2  11
ATOM     11  C   UNL     1       5.099  -0.101   0.086  0.00  0.00    +0.000 C 
BRANCH  11  12
ATOM     12  C   UNL     1       4.497   0.335   1.299  0.00  0.00    +0.000 A 
ATOM     13  C   UNL     1       3.570  -0.298   2.111  0.00  0.00    +0.000 A 
ATOM     14  C   UNL     1       3.226   0.467   3.264  0.00  0.00    +0.000 A 
ATOM     15  C   UNL     1       3.916   1.656   3.314  0.00  0.00    +0.000 A 
ATOM     16  S   UNL     1       4.974   1.839   1.986  0.00  0.00    +0.000 S 
ENDBRANCH  11  12
ENDBRANCH   2  11
TORSDOF 4
