MODEL 1
REMARK VINA RESULT:      -5.5      0.000      0.000
REMARK  Name = *****
REMARK  1 active torsions:
REMARK  status: ('A' for Active; 'I' for Inactive)
REMARK    1  A    between atoms: C_3  and  C_13
REMARK                            x       y       z     vdW  Elec       q    Type
REMARK                         _______ _______ _______ _____ _____    ______ ____
ROOT
ATOM      1  C   UNL     1     103.640 127.461  80.799  0.00  0.00    +0.000 C 
ATOM      2  C   UNL     1     103.329 126.285  81.376  0.00  0.00    +0.000 C 
ATOM      3  C   UNL     1     102.159 126.040  82.322  0.00  0.00    +0.000 C 
ATOM      4  S   UNL     1     102.867 125.558  83.930  0.00  0.00    +0.000 S 
ATOM      5  C   UNL     1     103.752 124.134  83.434  0.00  0.00    +0.000 C 
ATOM      6  O   UNL     1     103.897 123.207  84.221  0.00  0.00    +0.000 OA
ATOM      7  C   UNL     1     104.335 124.068  82.067  0.00  0.00    +0.000 A 
ATOM      8  C   UNL     1     105.098 122.924  81.759  0.00  0.00    +0.000 A 
ATOM      9  C   UNL     1     105.678 122.766  80.502  0.00  0.00    +0.000 A 
ATOM     10  C   UNL     1     105.494 123.746  79.536  0.00  0.00    +0.000 A 
ATOM     11  C   UNL     1     104.738 124.884  79.830  0.00  0.00    +0.000 A 
ATOM     12  C   UNL     1     104.160 125.078  81.101  0.00  0.00    +0.000 A 
ENDROOT
BRANCH   3  13
ATOM     13  C   UNL     1     101.091 127.174  82.458  0.00  0.00    +0.000 C 
ATOM     14  C   UNL     1     101.263 128.127  83.663  0.00  0.00    +0.000 C 
ATOM     15  C   UNL     1     100.213 129.238  83.645  0.00  0.00    +0.000 C 
ATOM     16  C   UNL     1      98.799 128.666  83.640  0.00  0.00    +0.000 C 
ATOM     17  C   UNL     1      98.596 127.680  82.494  0.00  0.00    +0.000 C 
ATOM     18  C   UNL     1      99.662 126.583  82.489  0.00  0.00    +0.000 C 
ENDBRANCH   3  13
TORSDOF 1
ENDMDL
