REMARK  Name = *****
REMARK  3 active torsions:
REMARK  status: ('A' for Active; 'I' for Inactive)
REMARK    1  A    between atoms: C_4  and  N_7
REMARK    2  A    between atoms: C_8  and  O_9
REMARK    3  A    between atoms: O_9  and  C_10
REMARK                            x       y       z     vdW  Elec       q    Type
REMARK                         _______ _______ _______ _____ _____    ______ ____
ROOT
ATOM      1  N   UNL     1      -2.844   0.552  -0.891  0.00  0.00    +0.000 NA
ATOM      2  C   UNL     1      -3.568  -0.516  -0.762  0.00  0.00    +0.000 C 
ATOM      3 CL   UNL     1      -5.275  -0.285  -0.867  0.00  0.00    +0.000 Cl
ENDROOT
BRANCH   1   7
ATOM      4  C   UNL     1       1.333   0.181  -0.654  0.00  0.00    +0.000 A 
ATOM      5  C   UNL     1       0.687   0.003  -1.876  0.00  0.00    +0.000 A 
ATOM      6  C   UNL     1      -0.702   0.125  -1.955  0.00  0.00    +0.000 A 
ATOM      7  C   UNL     1      -1.453   0.413  -0.811  0.00  0.00    +0.000 A 
ATOM      8  C   UNL     1      -0.796   0.609   0.406  0.00  0.00    +0.000 A 
ATOM      9  C   UNL     1       0.593   0.488   0.487  0.00  0.00    +0.000 A 
ENDBRANCH   1   7
BRANCH   2  10
ATOM     10  O   UNL     1      -2.996  -1.773  -0.550  0.00  0.00    +0.000 OA
BRANCH  10  11
ATOM     11  C   UNL     1      -3.847  -2.880  -0.447  0.00  0.00    +0.000 A 
ATOM     12  C   UNL     1      -4.193  -3.581  -1.600  0.00  0.00    +0.000 A 
ATOM     13  C   UNL     1      -5.013  -4.702  -1.489  0.00  0.00    +0.000 A 
ATOM     14  C   UNL     1      -5.463  -5.116  -0.233  0.00  0.00    +0.000 A 
ATOM     15  C   UNL     1      -5.089  -4.416   0.917  0.00  0.00    +0.000 A 
ATOM     16  C   UNL     1      -4.269  -3.294   0.814  0.00  0.00    +0.000 A 
ENDBRANCH  10  11
ENDBRANCH   2  10
TORSDOF 3
