MODEL 1
REMARK VINA RESULT:      -4.2      0.000      0.000
REMARK  Name = *****
REMARK  3 active torsions:
REMARK  status: ('A' for Active; 'I' for Inactive)
REMARK    1  A    between atoms: C_1  and  C_2
REMARK    2  A    between atoms: C_2  and  C_11
REMARK    3  A    between atoms: N_3  and  C_4
REMARK                            x       y       z     vdW  Elec       q    Type
REMARK                         _______ _______ _______ _____ _____    ______ ____
ROOT
ATOM      1  C   UNL     1     100.132 126.700  82.571  0.00  0.00    +0.000 C 
ATOM      2  C   UNL     1     101.156 127.732  83.012  0.00  0.00    +0.000 C 
ATOM      3  N   UNL     1     102.446 127.593  82.878  0.00  0.00    +0.000 NA
ENDROOT
BRANCH   3   4
ATOM      4  C   UNL     1     102.989 126.446  82.295  0.00  0.00    +0.000 A 
ATOM      5  C   UNL     1     103.224 126.396  80.917  0.00  0.00    +0.000 A 
ATOM      6  C   UNL     1     103.793 125.259  80.338  0.00  0.00    +0.000 A 
ATOM      7  C   UNL     1     104.142 124.176  81.142  0.00  0.00    +0.000 A 
ATOM      8  C   UNL     1     103.932 124.223  82.520  0.00  0.00    +0.000 A 
ATOM      9  C   UNL     1     103.363 125.362  83.095  0.00  0.00    +0.000 A 
ATOM     10 CL   UNL     1     104.842 122.774  80.432  0.00  0.00    +0.000 Cl
ENDBRANCH   3   4
BRANCH   2  11
ATOM     11  C   UNL     1     100.693 128.985  83.609  0.00  0.00    +0.000 A 
ATOM     12  C   UNL     1      99.454 129.584  83.445  0.00  0.00    +0.000 A 
ATOM     13  C   UNL     1      99.322 130.800  84.174  0.00  0.00    +0.000 A 
ATOM     14  C   UNL     1     100.463 131.097  84.882  0.00  0.00    +0.000 A 
ATOM     15  S   UNL     1     101.677 129.914  84.664  0.00  0.00    +0.000 S 
ENDBRANCH   2  11
TORSDOF 2
ENDMDL
