MODEL 1
REMARK VINA RESULT:      -4.5      0.000      0.000
REMARK  Name = *****
REMARK  5 active torsions:
REMARK  status: ('A' for Active; 'I' for Inactive)
REMARK    1  A    between atoms: C_1  and  C_2
REMARK    2  A    between atoms: C_5  and  C_8
REMARK    3  A    between atoms: C_8  and  S_9
REMARK    4  A    between atoms: S_9  and  C_10
REMARK    5  A    between atoms: S_9  and  C_11
REMARK                            x       y       z     vdW  Elec       q    Type
REMARK                         _______ _______ _______ _____ _____    ______ ____
ROOT
ATOM      1  C   UNL     1     103.624 127.660  82.047  0.00  0.00    +0.000 C 
ENDROOT
BRANCH   1   6
ATOM      2  C   UNL     1     104.916 122.187  80.514  0.00  0.00    +0.000 C 
ATOM      3  C   UNL     1     104.612 123.600  80.914  0.00  0.00    +0.000 A 
ATOM      4  C   UNL     1     104.282 123.906  82.239  0.00  0.00    +0.000 A 
ATOM      5  C   UNL     1     103.967 125.215  82.606  0.00  0.00    +0.000 A 
ATOM      6  C   UNL     1     103.972 126.245  81.656  0.00  0.00    +0.000 A 
ATOM      7  C   UNL     1     104.283 125.932  80.325  0.00  0.00    +0.000 A 
ATOM      8  C   UNL     1     104.595 124.621  79.958  0.00  0.00    +0.000 A 
ENDBRANCH   1   6
BRANCH   1   9
ATOM      9  S   UNL     1     102.974 127.787  83.752  0.00  0.00    +0.000 S 
ATOM     10  C   UNL     1     103.317 129.553  83.953  0.00  0.00    +0.000 C 
BRANCH   9  11
ATOM     11  C   UNL     1     101.207 127.807  83.366  0.00  0.00    +0.000 A 
ATOM     12  C   UNL     1     100.465 128.961  83.652  0.00  0.00    +0.000 A 
ATOM     13  C   UNL     1      99.104 129.032  83.346  0.00  0.00    +0.000 A 
ATOM     14  C   UNL     1      98.473 127.958  82.727  0.00  0.00    +0.000 A 
ATOM     15  C   UNL     1      99.207 126.820  82.403  0.00  0.00    +0.000 A 
ATOM     16  C   UNL     1     100.568 126.750  82.711  0.00  0.00    +0.000 A 
ENDBRANCH   9  11
ENDBRANCH   1   9
TORSDOF 3
ENDMDL
