MODEL 1
REMARK VINA RESULT:      -5.0      0.000      0.000
REMARK  Name = *****
REMARK  4 active torsions:
REMARK  status: ('A' for Active; 'I' for Inactive)
REMARK    1  A    between atoms: C_1  and  C_2
REMARK    2  A    between atoms: N_4  and  C_5
REMARK    3  A    between atoms: C_8  and  C_11
REMARK    4  A    between atoms: C_12  and  C_13
REMARK                            x       y       z     vdW  Elec       q    Type
REMARK                         _______ _______ _______ _____ _____    ______ ____
ROOT
ATOM      1  C   UNL     1     106.379 123.671  79.502  0.00  0.00    +0.000 A 
ATOM      2  C   UNL     1     105.517 122.947  80.325  0.00  0.00    +0.000 A 
ATOM      3  C   UNL     1     104.375 123.550  80.868  0.00  0.00    +0.000 A 
ATOM      4  C   UNL     1     104.078 124.892  80.606  0.00  0.00    +0.000 A 
ATOM      5  C   UNL     1     104.934 125.612  79.766  0.00  0.00    +0.000 A 
ATOM      6  C   UNL     1     106.076 125.009  79.225  0.00  0.00    +0.000 A 
ENDROOT
BRANCH   1  10
ATOM      7  C   UNL     1     109.767 122.293  78.579  0.00  0.00    +0.000 C 
ATOM      8  C   UNL     1     108.749 122.859  79.537  0.00  0.00    +0.000 C 
ATOM      9  O   UNL     1     109.036 123.050  80.714  0.00  0.00    +0.000 OA
ATOM     10  N   UNL     1     107.546 123.139  78.915  0.00  0.00    +0.000 N 
ATOM     11  H   UNL     1     107.499 122.945  77.951  0.00  0.00    +0.000 HD
ENDBRANCH   1  10
BRANCH   4  12
ATOM     12  C   UNL     1     102.872 125.549  81.129  0.00  0.00    +0.000 C 
ATOM     13  C   UNL     1     102.894 126.502  82.075  0.00  0.00    +0.000 C 
BRANCH  13  14
ATOM     14  C   UNL     1     101.693 127.174  82.590  0.00  0.00    +0.000 A 
ATOM     15  C   UNL     1     101.753 128.381  83.300  0.00  0.00    +0.000 A 
ATOM     16  C   UNL     1     100.580 128.991  83.741  0.00  0.00    +0.000 A 
ATOM     17  C   UNL     1      99.337 128.435  83.483  0.00  0.00    +0.000 A 
ATOM     18  C   UNL     1      99.278 127.249  82.767  0.00  0.00    +0.000 A 
ATOM     19  C   UNL     1     100.436 126.619  82.315  0.00  0.00    +0.000 A 
ATOM     20  F   UNL     1      98.085 126.699  82.502  0.00  0.00    +0.000 F 
ATOM     21  F   UNL     1     100.657 130.142  84.422  0.00  0.00    +0.000 F 
ENDBRANCH  13  14
ENDBRANCH   4  12
TORSDOF 3
ENDMDL
