MODEL 1
REMARK VINA RESULT:      -3.2      0.000      0.000
REMARK  Name = *****
REMARK  3 active torsions:
REMARK  status: ('A' for Active; 'I' for Inactive)
REMARK    1  A    between atoms: C_4  and  C_7
REMARK    2  A    between atoms: C_7  and  C_8
REMARK    3  A    between atoms: C_8  and  C_9
REMARK                            x       y       z     vdW  Elec       q    Type
REMARK                         _______ _______ _______ _____ _____    ______ ____
ROOT
ATOM      1  C   UNL     1     100.260 126.718  83.487  0.00  0.00    +0.000 C 
ENDROOT
BRANCH   1   5
ATOM      2  C   UNL     1      97.852 128.757  85.742  0.00  0.00    +0.000 C 
ATOM      3  C   UNL     1      97.603 127.307  85.347  0.00  0.00    +0.000 C 
ATOM      4  S   UNL     1      97.490 127.068  83.552  0.00  0.00    +0.000 S 
ATOM      5  C   UNL     1      99.134 127.664  83.033  0.00  0.00    +0.000 C 
ATOM      6  S   UNL     1      99.364 129.412  83.494  0.00  0.00    +0.000 S 
ATOM      7  C   UNL     1      99.202 129.300  85.298  0.00  0.00    +0.000 C 
ENDBRANCH   1   5
BRANCH   1   8
ATOM      8  C   UNL     1     101.245 126.362  82.356  0.00  0.00    +0.000 C 
BRANCH   8   9
ATOM      9  C   UNL     1     102.719 126.478  82.782  0.00  0.00    +0.000 C 
ATOM     10  S   UNL     1     103.720 124.981  82.504  0.00  0.00    +0.000 S 
ATOM     11  C   UNL     1     103.744 124.933  80.690  0.00  0.00    +0.000 C 
ATOM     12  C   UNL     1     104.370 126.174  80.069  0.00  0.00    +0.000 C 
ATOM     13  C   UNL     1     103.580 127.454  80.307  0.00  0.00    +0.000 C 
ATOM     14  S   UNL     1     103.528 127.942  82.053  0.00  0.00    +0.000 S 
ENDBRANCH   8   9
ENDBRANCH   1   8
TORSDOF 3
ENDMDL
