MODEL 1
REMARK VINA RESULT:      -4.6      0.000      0.000
REMARK  Name = *****
REMARK  1 active torsions:
REMARK  status: ('A' for Active; 'I' for Inactive)
REMARK    1  A    between atoms: C_5  and  C_8
REMARK                            x       y       z     vdW  Elec       q    Type
REMARK                         _______ _______ _______ _____ _____    ______ ____
ROOT
ATOM      1  C   UNL     1      89.254  68.309  86.929  0.00  0.00    +0.000 A 
ATOM      2  N   UNL     1      88.398  67.316  87.088  0.00  0.00    +0.000 NA
ATOM      3  C   UNL     1      89.048  66.237  86.545  0.00  0.00    +0.000 A 
ATOM      4  C   UNL     1      88.658  64.899  86.410  0.00  0.00    +0.000 A 
ATOM      5  C   UNL     1      89.555  64.008  85.799  0.00  0.00    +0.000 A 
ATOM      6  C   UNL     1      90.805  64.441  85.336  0.00  0.00    +0.000 A 
ATOM      7  C   UNL     1      91.207  65.776  85.464  0.00  0.00    +0.000 A 
ATOM      8  C   UNL     1      90.291  66.625  86.073  0.00  0.00    +0.000 A 
ATOM      9  O   UNL     1      90.433  67.959  86.317  0.00  0.00    +0.000 OA
ENDROOT
BRANCH   1  14
ATOM     10  C   UNL     1      87.191  71.391  85.034  0.00  0.00    +0.000 C 
ATOM     11  C   UNL     1      86.516  71.470  86.398  0.00  0.00    +0.000 C 
ATOM     12  C   UNL     1      86.541  70.176  87.204  0.00  0.00    +0.000 C 
ATOM     13  C   UNL     1      87.804  70.031  88.056  0.00  0.00    +0.000 C 
ATOM     14  C   UNL     1      89.120  69.752  87.315  0.00  0.00    +0.000 C 
ATOM     15  C   UNL     1      89.414  70.687  86.128  0.00  0.00    +0.000 C 
ATOM     16  C   UNL     1      88.464  70.557  84.939  0.00  0.00    +0.000 C 
ENDBRANCH   1  14
TORSDOF 1
ENDMDL
