MODEL 1
REMARK VINA RESULT:      -4.7      0.000      0.000
REMARK  Name = *****
REMARK  4 active torsions:
REMARK  status: ('A' for Active; 'I' for Inactive)
REMARK    1  A    between atoms: C_3  and  N_16
REMARK    2  A    between atoms: C_6  and  C_7
REMARK    3  A    between atoms: C_7  and  C_8
REMARK    4  A    between atoms: C_8  and  C_9
REMARK                            x       y       z     vdW  Elec       q    Type
REMARK                         _______ _______ _______ _____ _____    ______ ____
ROOT
ATOM      1  C   UNL     1     100.510 128.907  83.605  0.00  0.00    +0.000 A 
ATOM      2  C   UNL     1      99.127 128.820  83.417  0.00  0.00    +0.000 A 
ATOM      3  C   UNL     1      98.564 127.734  82.744  0.00  0.00    +0.000 A 
ATOM      4  C   UNL     1      99.400 126.685  82.354  0.00  0.00    +0.000 A 
ATOM      5  C   UNL     1     100.783 126.766  82.539  0.00  0.00    +0.000 A 
ATOM      6  C   UNL     1     101.352 127.881  83.163  0.00  0.00    +0.000 A 
ENDROOT
BRANCH   3   7
ATOM      7  N   UNL     1      97.173 127.592  82.669  0.00  0.00    +0.000 N 
ATOM      8  H   UNL     1      96.720 126.899  83.202  0.00  0.00    +0.000 HD
ATOM      9  H   UNL     1      96.648 128.186  82.086  0.00  0.00    +0.000 HD
ENDBRANCH   3   7
BRANCH   6  10
ATOM     10  C   UNL     1     102.845 127.977  83.350  0.00  0.00    +0.000 C 
BRANCH  10  11
ATOM     11  C   UNL     1     103.583 127.918  82.010  0.00  0.00    +0.000 C 
BRANCH  11  12
ATOM     12  C   UNL     1     103.937 126.499  81.631  0.00  0.00    +0.000 A 
ATOM     13  C   UNL     1     104.062 126.137  80.282  0.00  0.00    +0.000 A 
ATOM     14  C   UNL     1     104.369 124.820  79.931  0.00  0.00    +0.000 A 
ATOM     15  C   UNL     1     104.547 123.862  80.925  0.00  0.00    +0.000 A 
ATOM     16  C   UNL     1     104.420 124.206  82.269  0.00  0.00    +0.000 A 
ATOM     17  C   UNL     1     104.112 125.523  82.622  0.00  0.00    +0.000 A 
ATOM     18 CL   UNL     1     104.924 122.240  80.491  0.00  0.00    +0.000 Cl
ENDBRANCH  11  12
ENDBRANCH  10  11
ENDBRANCH   6  10
TORSDOF 4
ENDMDL
