MODEL 1
REMARK VINA RESULT:      -4.4      0.000      0.000
REMARK  Name = *****
REMARK  3 active torsions:
REMARK  status: ('A' for Active; 'I' for Inactive)
REMARK    1  A    between atoms: C_1  and  N_2
REMARK    2  A    between atoms: C_3  and  C_7
REMARK    3  A    between atoms: C_8  and  C_9
REMARK                            x       y       z     vdW  Elec       q    Type
REMARK                         _______ _______ _______ _____ _____    ______ ____
ROOT
ATOM      1  C   UNL     1     102.075 126.383  82.887  0.00  0.00    +0.000 C 
ATOM      2  C   UNL     1     102.957 126.209  81.889  0.00  0.00    +0.000 C 
ATOM      3 CL   UNL     1     103.269 127.362  80.648  0.00  0.00    +0.000 Cl
ENDROOT
BRANCH   2   4
ATOM      4  C   UNL     1     103.674 124.931  81.762  0.00  0.00    +0.000 A 
ATOM      5  C   UNL     1     103.871 124.112  82.885  0.00  0.00    +0.000 A 
ATOM      6  C   UNL     1     104.567 122.905  82.768  0.00  0.00    +0.000 A 
ATOM      7  C   UNL     1     105.067 122.510  81.528  0.00  0.00    +0.000 A 
ATOM      8  C   UNL     1     104.875 123.310  80.404  0.00  0.00    +0.000 A 
ATOM      9  C   UNL     1     104.180 124.518  80.520  0.00  0.00    +0.000 A 
ATOM     10 CL   UNL     1     105.926 121.028  81.386  0.00  0.00    +0.000 Cl
ENDBRANCH   2   4
BRANCH   1  13
ATOM     11  C   UNL     1      99.060 126.749  82.425  0.00  0.00    +0.000 C 
ATOM     12  N   UNL     1     100.005 127.728  82.996  0.00  0.00    +0.000 NA
ATOM     13  C   UNL     1     101.280 127.599  83.154  0.00  0.00    +0.000 C 
ATOM     14  C   UNL     1     101.844 128.877  83.727  0.00  0.00    +0.000 C 
ATOM     15  C   UNL     1     100.615 129.522  84.346  0.00  0.00    +0.000 C 
ATOM     16  C   UNL     1      99.493 129.049  83.448  0.00  0.00    +0.000 C 
ENDBRANCH   1  13
TORSDOF 2
ENDMDL
