REMARK  Name = *****
REMARK  4 active torsions:
REMARK  status: ('A' for Active; 'I' for Inactive)
REMARK    1  A    between atoms: C_4  and  O_7
REMARK    2  A    between atoms: O_7  and  P_8
REMARK    3  A    between atoms: P_8  and  O_9
REMARK    4  A    between atoms: O_9  and  C_10
REMARK                            x       y       z     vdW  Elec       q    Type
REMARK                         _______ _______ _______ _____ _____    ______ ____
ROOT
ATOM      1  P   UNL     1      -3.868  -1.134  -0.281  0.00  0.00    +0.000 P 
ATOM      2 BR   UNL     1      -5.712  -0.004   0.024  0.00  0.00    +0.000 Br
ENDROOT
BRANCH   1   3
ATOM      3  O   UNL     1      -2.838   0.107  -0.365  0.00  0.00    +0.000 OA
BRANCH   3   7
ATOM      4  C   UNL     1      -1.264   2.097  -3.672  0.00  0.00    +0.000 A 
ATOM      5  C   UNL     1      -2.271   1.156  -3.882  0.00  0.00    +0.000 A 
ATOM      6  C   UNL     1      -2.826   0.464  -2.801  0.00  0.00    +0.000 A 
ATOM      7  C   UNL     1      -2.372   0.714  -1.503  0.00  0.00    +0.000 A 
ATOM      8  C   UNL     1      -1.366   1.663  -1.299  0.00  0.00    +0.000 A 
ATOM      9  C   UNL     1      -0.812   2.353  -2.379  0.00  0.00    +0.000 A 
ENDBRANCH   3   7
ENDBRANCH   1   3
BRANCH   1  10
ATOM     10  O   UNL     1      -3.602  -1.547   1.260  0.00  0.00    +0.000 OA
BRANCH  10  11
ATOM     11  C   UNL     1      -2.650  -2.434   1.693  0.00  0.00    +0.000 A 
ATOM     12  C   UNL     1      -2.195  -2.240   3.000  0.00  0.00    +0.000 A 
ATOM     13  C   UNL     1      -1.238  -3.096   3.548  0.00  0.00    +0.000 A 
ATOM     14  C   UNL     1      -0.742  -4.157   2.794  0.00  0.00    +0.000 A 
ATOM     15  C   UNL     1      -1.205  -4.365   1.495  0.00  0.00    +0.000 A 
ATOM     16  C   UNL     1      -2.161  -3.507   0.945  0.00  0.00    +0.000 A 
ENDBRANCH  10  11
ENDBRANCH   1  10
TORSDOF 4
