MODEL 1
REMARK VINA RESULT:      -4.5      0.000      0.000
REMARK  Name = *****
REMARK  4 active torsions:
REMARK  status: ('A' for Active; 'I' for Inactive)
REMARK    1  A    between atoms: C_3  and  C_16
REMARK    2  A    between atoms: C_6  and  N_7
REMARK    3  A    between atoms: C_8  and  C_9
REMARK    4  A    between atoms: C_12  and  C_15
REMARK                            x       y       z     vdW  Elec       q    Type
REMARK                         _______ _______ _______ _____ _____    ______ ____
ROOT
ATOM      1  N   UNL     1     101.590 126.055  82.762  0.00  0.00    +0.000 NA
ATOM      2  C   UNL     1     102.883 126.045  82.664  0.00  0.00    +0.000 C 
ENDROOT
BRANCH   1   8
ATOM      3  C   UNL     1      99.675 127.546  82.855  0.00  0.00    +0.000 A 
ATOM      4  C   UNL     1      99.109 128.775  83.208  0.00  0.00    +0.000 A 
ATOM      5  C   UNL     1      99.884 129.757  83.836  0.00  0.00    +0.000 A 
ATOM      6  C   UNL     1     101.239 129.501  84.077  0.00  0.00    +0.000 A 
ATOM      7  C   UNL     1     101.800 128.272  83.724  0.00  0.00    +0.000 A 
ATOM      8  C   UNL     1     101.018 127.283  83.126  0.00  0.00    +0.000 A 
ATOM      9  C   UNL     1      99.288 131.091  84.178  0.00  0.00    +0.000 C 
ENDBRANCH   1   8
BRANCH   2  10
ATOM     10  C   UNL     1     103.629 124.828  82.291  0.00  0.00    +0.000 A 
ATOM     11  C   UNL     1     104.002 123.891  83.257  0.00  0.00    +0.000 A 
ATOM     12  C   UNL     1     104.707 122.746  82.879  0.00  0.00    +0.000 A 
ATOM     13  C   UNL     1     105.036 122.527  81.535  0.00  0.00    +0.000 A 
ATOM     14  C   UNL     1     104.669 123.480  80.576  0.00  0.00    +0.000 A 
ATOM     15  C   UNL     1     103.963 124.626  80.950  0.00  0.00    +0.000 A 
ATOM     16  C   UNL     1     105.824 121.313  81.138  0.00  0.00    +0.000 C 
ENDBRANCH   2  10
TORSDOF 2
ENDMDL
