REMARK  Name = *****
REMARK  3 active torsions:
REMARK  status: ('A' for Active; 'I' for Inactive)
REMARK    1  A    between atoms: C_1  and  O_2
REMARK    2  A    between atoms: O_2  and  C_3
REMARK    3  A    between atoms: C_12  and  C_13
REMARK                            x       y       z     vdW  Elec       q    Type
REMARK                         _______ _______ _______ _____ _____    ______ ____
ROOT
ATOM      1  C   UNL     1       2.964  -0.833  -1.051  0.00  0.00    +0.000 A 
ATOM      2  N   UNL     1       2.580  -0.500  -2.309  0.00  0.00    +0.000 NA
ATOM      3  C   UNL     1       3.334  -0.923  -3.336  0.00  0.00    +0.000 A 
ATOM      4  C   UNL     1       2.963  -0.596  -4.633  0.00  0.00    +0.000 A 
ATOM      5  C   UNL     1       3.713  -1.010  -5.739  0.00  0.00    +0.000 A 
ATOM      6  C   UNL     1       4.862  -1.769  -5.550  0.00  0.00    +0.000 A 
ATOM      7  C   UNL     1       5.256  -2.111  -4.258  0.00  0.00    +0.000 A 
ATOM      8  C   UNL     1       4.498  -1.693  -3.150  0.00  0.00    +0.000 A 
ATOM      9  C   UNL     1       4.868  -2.019  -1.838  0.00  0.00    +0.000 A 
ATOM     10  C   UNL     1       4.100  -1.591  -0.746  0.00  0.00    +0.000 A 
ENDROOT
BRANCH  10  11
ATOM     11  C   UNL     1       4.505  -1.938   0.626  0.00  0.00    +0.000 A 
ATOM     12  C   UNL     1       4.787  -0.942   1.576  0.00  0.00    +0.000 A 
ATOM     13  C   UNL     1       5.188  -1.275   2.872  0.00  0.00    +0.000 A 
ATOM     14  C   UNL     1       5.316  -2.612   3.241  0.00  0.00    +0.000 A 
ATOM     15  C   UNL     1       5.044  -3.616   2.315  0.00  0.00    +0.000 A 
ATOM     16  C   UNL     1       4.643  -3.281   1.018  0.00  0.00    +0.000 A 
ENDBRANCH  10  11
BRANCH   1  18
ATOM     17  C   UNL     1       1.028   0.326  -0.396  0.00  0.00    +0.000 C 
ATOM     18  O   UNL     1       2.176  -0.411   0.006  0.00  0.00    +0.000 OA
ENDBRANCH   1  18
TORSDOF 2
