MODEL 1
REMARK VINA RESULT:      -4.3      0.000      0.000
REMARK  Name = *****
REMARK  4 active torsions:
REMARK  status: ('A' for Active; 'I' for Inactive)
REMARK    1  A    between atoms: C_1  and  C_2
REMARK    2  A    between atoms: C_4  and  S_10
REMARK    3  A    between atoms: S_10  and  C_11
REMARK    4  A    between atoms: C_11  and  C_12
REMARK                            x       y       z     vdW  Elec       q    Type
REMARK                         _______ _______ _______ _____ _____    ______ ____
ROOT
ATOM      1  C   UNL     1      85.565  72.044  84.328  0.00  0.00    +0.000 C 
ATOM      2  C   UNL     1      85.999  71.696  85.725  0.00  0.00    +0.000 A 
ATOM      3  C   UNL     1      87.225  71.039  85.924  0.00  0.00    +0.000 A 
ATOM      4  C   UNL     1      87.669  70.691  87.210  0.00  0.00    +0.000 A 
ATOM      5  C   UNL     1      86.877  71.037  88.315  0.00  0.00    +0.000 A 
ATOM      6  C   UNL     1      85.655  71.687  88.130  0.00  0.00    +0.000 A 
ATOM      7  C   UNL     1      85.218  72.010  86.845  0.00  0.00    +0.000 A 
ATOM      8 CL   UNL     1      83.695  72.811  86.686  0.00  0.00    +0.000 Cl
ATOM      9 CL   UNL     1      87.360  70.717  89.945  0.00  0.00    +0.000 Cl
ENDROOT
BRANCH   4  10
ATOM     10  S   UNL     1      89.248  69.849  87.315  0.00  0.00    +0.000 S 
BRANCH  10  11
ATOM     11  C   UNL     1      89.539  69.466  85.548  0.00  0.00    +0.000 C 
BRANCH  11  12
ATOM     12  C   UNL     1      90.021  68.078  85.322  0.00  0.00    +0.000 A 
ATOM     13  N   UNL     1      90.139  67.536  84.100  0.00  0.00    +0.000 NA
ATOM     14  O   UNL     1      90.620  66.251  84.367  0.00  0.00    +0.000 OA
ATOM     15  C   UNL     1      90.746  66.164  85.716  0.00  0.00    +0.000 A 
ATOM     16  N   UNL     1      90.399  67.252  86.355  0.00  0.00    +0.000 NA
ENDBRANCH  11  12
ENDBRANCH  10  11
ENDBRANCH   4  10
TORSDOF 3
ENDMDL
