MODEL 1
REMARK VINA RESULT:      -4.0      0.000      0.000
REMARK  Name = *****
REMARK  4 active torsions:
REMARK  status: ('A' for Active; 'I' for Inactive)
REMARK    1  A    between atoms: C_4  and  C_7
REMARK    2  A    between atoms: C_7  and  N_8
REMARK    3  A    between atoms: N_8  and  C_9
REMARK    4  A    between atoms: C_9  and  C_10
REMARK                            x       y       z     vdW  Elec       q    Type
REMARK                         _______ _______ _______ _____ _____    ______ ____
ROOT
ATOM      1  N   UNL     1     103.556 124.948  80.416  0.00  0.00    +0.000 NA
ENDROOT
BRANCH   1   2
ATOM      2  C   UNL     1     103.770 126.391  80.256  0.00  0.00    +0.000 C 
BRANCH   2   6
ATOM      3  C   UNL     1     101.863 127.619  84.003  0.00  0.00    +0.000 C 
ATOM      4  C   UNL     1     102.836 128.591  83.343  0.00  0.00    +0.000 C 
ATOM      5  C   UNL     1     103.717 127.892  82.309  0.00  0.00    +0.000 C 
ATOM      6  C   UNL     1     102.878 127.147  81.255  0.00  0.00    +0.000 C 
ATOM      7  C   UNL     1     101.904 126.173  81.935  0.00  0.00    +0.000 C 
ATOM      8  C   UNL     1     101.027 126.876  82.969  0.00  0.00    +0.000 C 
ENDBRANCH   2   6
ENDBRANCH   1   2
BRANCH   1   9
ATOM      9  C   UNL     1     104.628 124.254  80.247  0.00  0.00    +0.000 C 
BRANCH   9  10
ATOM     10  C   UNL     1     105.044 123.226  81.273  0.00  0.00    +0.000 C 
ATOM     11  C   UNL     1     104.704 121.827  80.752  0.00  0.00    +0.000 C 
ATOM     12  C   UNL     1     105.000 120.753  81.797  0.00  0.00    +0.000 C 
ATOM     13  C   UNL     1     104.294 121.045  83.118  0.00  0.00    +0.000 C 
ATOM     14  C   UNL     1     104.628 122.440  83.638  0.00  0.00    +0.000 C 
ATOM     15  C   UNL     1     104.332 123.516  82.597  0.00  0.00    +0.000 C 
ENDBRANCH   9  10
ENDBRANCH   1   9
TORSDOF 4
ENDMDL
