MODEL 1
REMARK VINA RESULT:      -4.5      0.000      0.000
REMARK  Name = *****
REMARK  5 active torsions:
REMARK  status: ('A' for Active; 'I' for Inactive)
REMARK    1  A    between atoms: C_1  and  C_2
REMARK    2  A    between atoms: C_5  and  N_8
REMARK    3  A    between atoms: N_8  and  S_9
REMARK    4  A    between atoms: S_9  and  C_11
REMARK    5  A    between atoms: C_14  and  C_17
REMARK                            x       y       z     vdW  Elec       q    Type
REMARK                         _______ _______ _______ _____ _____    ______ ____
ROOT
ATOM      1  N   UNL     1      88.613  68.674  85.996  0.00  0.00    +0.000 N 
ATOM      2  H   UNL     1      88.371  68.716  85.043  0.00  0.00    +0.000 HD
ENDROOT
BRANCH   1   7
ATOM      3  C   UNL     1      88.054  63.701  88.823  0.00  0.00    +0.000 C 
ATOM      4  C   UNL     1      88.163  64.993  88.069  0.00  0.00    +0.000 A 
ATOM      5  C   UNL     1      87.324  66.067  88.373  0.00  0.00    +0.000 A 
ATOM      6  C   UNL     1      87.449  67.285  87.694  0.00  0.00    +0.000 A 
ATOM      7  C   UNL     1      88.406  67.461  86.689  0.00  0.00    +0.000 A 
ATOM      8  C   UNL     1      89.276  66.390  86.427  0.00  0.00    +0.000 A 
ATOM      9  C   UNL     1      89.154  65.170  87.102  0.00  0.00    +0.000 A 
ENDBRANCH   1   7
BRANCH   1  10
ATOM     10  S   UNL     1      89.249  70.042  86.718  0.00  0.00    +0.000 S 
ATOM     11  O   UNL     1      89.988  70.868  85.710  0.00  0.00    +0.000 OA
BRANCH  10  12
ATOM     12  C   UNL     1      87.629  70.812  86.938  0.00  0.00    +0.000 A 
ATOM     13  C   UNL     1      86.905  71.233  85.816  0.00  0.00    +0.000 A 
ATOM     14  C   UNL     1      85.655  71.837  85.972  0.00  0.00    +0.000 A 
ATOM     15  C   UNL     1      85.117  72.033  87.250  0.00  0.00    +0.000 A 
ATOM     16  C   UNL     1      85.835  71.594  88.368  0.00  0.00    +0.000 A 
ATOM     17  C   UNL     1      87.086  70.991  88.213  0.00  0.00    +0.000 A 
ATOM     18  C   UNL     1      83.758  72.646  87.417  0.00  0.00    +0.000 C 
ENDBRANCH  10  12
ENDBRANCH   1  10
TORSDOF 3
ENDMDL
