REMARK  Name = *****
REMARK  2 active torsions:
REMARK  status: ('A' for Active; 'I' for Inactive)
REMARK    1  A    between atoms: C_4  and  C_6
REMARK    2  A    between atoms: C_7  and  C_8
REMARK                            x       y       z     vdW  Elec       q    Type
REMARK                         _______ _______ _______ _____ _____    ______ ____
ROOT
ATOM      1  C   UNL     1       0.169  -2.269   0.870  0.00  0.00    +0.000 C 
ATOM      2  C   UNL     1       1.127  -3.185   1.100  0.00  0.00    +0.000 C 
ENDROOT
BRANCH   2   3
ATOM      3  C   UNL     1       1.047  -4.206   2.152  0.00  0.00    +0.000 A 
ATOM      4  C   UNL     1       1.531  -5.493   1.886  0.00  0.00    +0.000 A 
ATOM      5  C   UNL     1       1.499  -6.483   2.872  0.00  0.00    +0.000 A 
ATOM      6  C   UNL     1       0.993  -6.191   4.137  0.00  0.00    +0.000 A 
ATOM      7  C   UNL     1       0.524  -4.909   4.418  0.00  0.00    +0.000 A 
ATOM      8  C   UNL     1       0.556  -3.920   3.432  0.00  0.00    +0.000 A 
ENDBRANCH   2   3
BRANCH   1  12
ATOM      9  C   UNL     1      -2.119  -0.067  -0.806  0.00  0.00    +0.000 C 
ATOM     10  C   UNL     1      -1.168   1.071  -0.498  0.00  0.00    +0.000 C 
ATOM     11  S   UNL     1       0.153   0.420   0.557  0.00  0.00    +0.000 S 
ATOM     12  C   UNL     1       0.250  -1.229  -0.206  0.00  0.00    +0.000 C 
ATOM     13  S   UNL     1      -1.120  -1.463  -1.376  0.00  0.00    +0.000 S 
ENDBRANCH   1  12
TORSDOF 2
