MODEL 1
REMARK VINA RESULT:      -5.0      0.000      0.000
REMARK  Name = *****
REMARK  6 active torsions:
REMARK  status: ('A' for Active; 'I' for Inactive)
REMARK    1  A    between atoms: C_1  and  C_2
REMARK    2  A    between atoms: C_5  and  C_8
REMARK    3  A    between atoms: C_8  and  C_9
REMARK    4  A    between atoms: C_9  and  C_10
REMARK    5  A    between atoms: C_13  and  C_16
REMARK    6  A    between atoms: C_16  and  O_17
REMARK                            x       y       z     vdW  Elec       q    Type
REMARK                         _______ _______ _______ _____ _____    ______ ____
ROOT
ATOM      1  C   UNL     1      88.854  70.158  87.117  0.00  0.00    +0.000 C 
ENDROOT
BRANCH   1   2
ATOM      2  C   UNL     1      88.903  68.657  86.970  0.00  0.00    +0.000 A 
ATOM      3  C   UNL     1      87.872  67.859  87.484  0.00  0.00    +0.000 A 
ATOM      4  C   UNL     1      87.927  66.469  87.366  0.00  0.00    +0.000 A 
ATOM      5  C   UNL     1      89.018  65.851  86.743  0.00  0.00    +0.000 A 
ATOM      6  C   UNL     1      90.045  66.649  86.223  0.00  0.00    +0.000 A 
ATOM      7  C   UNL     1      89.990  68.040  86.341  0.00  0.00    +0.000 A 
BRANCH   5   8
ATOM      8  C   UNL     1      89.058  64.356  86.582  0.00  0.00    +0.000 C 
BRANCH   8   9
ATOM      9  O   UNL     1      89.527  63.736  87.772  0.00  0.00    +0.000 OA
ATOM     10  H   UNL     1      89.212  62.820  87.807  0.00  0.00    +0.000 HD
ENDBRANCH   8   9
ENDBRANCH   5   8
ENDBRANCH   1   2
BRANCH   1  11
ATOM     11  C   UNL     1      87.929  70.583  88.261  0.00  0.00    +0.000 C 
BRANCH  11  16
ATOM     12  C   UNL     1      83.071  73.101  86.267  0.00  0.00    +0.000 C 
ATOM     13  C   UNL     1      84.310  72.431  86.778  0.00  0.00    +0.000 A 
ATOM     14  C   UNL     1      84.513  72.270  88.153  0.00  0.00    +0.000 A 
ATOM     15  C   UNL     1      85.683  71.675  88.633  0.00  0.00    +0.000 A 
ATOM     16  C   UNL     1      86.676  71.245  87.746  0.00  0.00    +0.000 A 
ATOM     17  C   UNL     1      86.476  71.414  86.371  0.00  0.00    +0.000 A 
ATOM     18  C   UNL     1      85.307  72.009  85.891  0.00  0.00    +0.000 A 
ENDBRANCH  11  16
ENDBRANCH   1  11
TORSDOF 5
ENDMDL
