REMARK  Name = *****
REMARK  5 active torsions:
REMARK  status: ('A' for Active; 'I' for Inactive)
REMARK    1  A    between atoms: C_1  and  C_2
REMARK    2  A    between atoms: C_7  and  C_8
REMARK    3  A    between atoms: C_8  and  O_10
REMARK    4  A    between atoms: O_10  and  C_11
REMARK    5  A    between atoms: C_11  and  C_12
REMARK                            x       y       z     vdW  Elec       q    Type
REMARK                         _______ _______ _______ _____ _____    ______ ____
ROOT
ATOM      1  C   UNL     1       3.800   2.172   0.789  0.00  0.00    +0.000 C 
ATOM      2  O   UNL     1       3.354   2.879   1.686  0.00  0.00    +0.000 OA
ENDROOT
BRANCH   1   9
ATOM      3  C   UNL     1       0.953  -0.037  -0.541  0.00  0.00    +0.000 C 
ATOM      4  C   UNL     1       2.185   0.322   0.302  0.00  0.00    +0.000 C 
ATOM      5  C   UNL     1       3.136  -0.884   0.430  0.00  0.00    +0.000 C 
ATOM      6  C   UNL     1       4.035  -1.074  -0.756  0.00  0.00    +0.000 C 
ATOM      7  C   UNL     1       4.252  -0.123  -1.676  0.00  0.00    +0.000 C 
ATOM      8  C   UNL     1       3.642   1.249  -1.603  0.00  0.00    +0.000 C 
ATOM      9  C   UNL     1       2.912   1.552  -0.282  0.00  0.00    +0.000 C 
ENDBRANCH   1   9
BRANCH   1  10
ATOM     10  O   UNL     1       5.099   1.801   0.667  0.00  0.00    +0.000 OA
BRANCH  10  11
ATOM     11  C   UNL     1       5.972   2.215   1.724  0.00  0.00    +0.000 C 
BRANCH  11  12
ATOM     12  C   UNL     1       6.052   1.124   2.761  0.00  0.00    +0.000 A 
ATOM     13  C   UNL     1       6.809  -0.031   2.519  0.00  0.00    +0.000 A 
ATOM     14  C   UNL     1       6.863  -1.053   3.468  0.00  0.00    +0.000 A 
ATOM     15  C   UNL     1       6.154  -0.933   4.662  0.00  0.00    +0.000 A 
ATOM     16  C   UNL     1       5.387   0.205   4.907  0.00  0.00    +0.000 A 
ATOM     17  C   UNL     1       5.333   1.228   3.959  0.00  0.00    +0.000 A 
ENDBRANCH  11  12
ENDBRANCH  10  11
ENDBRANCH   1  10
TORSDOF 4
