MODEL 1
REMARK VINA RESULT:      -5.2      0.000      0.000
REMARK  Name = *****
REMARK  2 active torsions:
REMARK  status: ('A' for Active; 'I' for Inactive)
REMARK    1  A    between atoms: C_10  and  O_11
REMARK    2  A    between atoms: O_11  and  C_12
REMARK                            x       y       z     vdW  Elec       q    Type
REMARK                         _______ _______ _______ _____ _____    ______ ____
ROOT
ATOM      1  C   UNL     1     100.389 131.177  84.495  0.00  0.00    +0.000 A 
ATOM      2  C   UNL     1     101.643 130.600  84.660  0.00  0.00    +0.000 A 
ATOM      3  C   UNL     1     101.869 129.294  84.222  0.00  0.00    +0.000 A 
ATOM      4  C   UNL     1     100.840 128.542  83.610  0.00  0.00    +0.000 A 
ATOM      5  C   UNL     1      99.571 129.136  83.449  0.00  0.00    +0.000 A 
ATOM      6  C   UNL     1      99.359 130.452  83.895  0.00  0.00    +0.000 A 
ATOM      7  C   UNL     1      98.543 128.400  82.848  0.00  0.00    +0.000 A 
ATOM      8  C   UNL     1      98.801 127.105  82.432  0.00  0.00    +0.000 A 
ATOM      9  N   UNL     1      99.995 126.499  82.566  0.00  0.00    +0.000 NA
ATOM     10  C   UNL     1     100.988 127.223  83.139  0.00  0.00    +0.000 A 
ENDROOT
BRANCH  10  11
ATOM     11  O   UNL     1     102.233 126.621  83.332  0.00  0.00    +0.000 OA
BRANCH  11  12
ATOM     12  C   UNL     1     102.918 126.224  82.209  0.00  0.00    +0.000 A 
ATOM     13  C   UNL     1     103.252 127.127  81.196  0.00  0.00    +0.000 A 
ATOM     14  C   UNL     1     104.003 126.691  80.104  0.00  0.00    +0.000 A 
ATOM     15  C   UNL     1     104.425 125.366  80.048  0.00  0.00    +0.000 A 
ATOM     16  C   UNL     1     104.116 124.468  81.065  0.00  0.00    +0.000 A 
ATOM     17  C   UNL     1     103.365 124.901  82.157  0.00  0.00    +0.000 A 
ATOM     18  F   UNL     1     105.149 124.950  79.000  0.00  0.00    +0.000 F 
ENDBRANCH  11  12
ENDBRANCH  10  11
TORSDOF 2
ENDMDL
