MODEL 1
REMARK VINA RESULT:      -3.9      0.000      0.000
REMARK  Name = *****
REMARK  3 active torsions:
REMARK  status: ('A' for Active; 'I' for Inactive)
REMARK    1  A    between atoms: C_4  and  N_7
REMARK    2  A    between atoms: N_7  and  C_8
REMARK    3  A    between atoms: C_8  and  C_10
REMARK                            x       y       z     vdW  Elec       q    Type
REMARK                         _______ _______ _______ _____ _____    ______ ____
ROOT
ATOM      1  N   UNL     1      89.376  63.776  87.318  0.00  0.00    +0.000 N 
ATOM      2  H   UNL     1      90.194  63.424  87.737  0.00  0.00    +0.000 HD
ENDROOT
BRANCH   1   6
ATOM      3  C   UNL     1      86.394  62.679  90.210  0.00  0.00    +0.000 C 
ATOM      4  C   UNL     1      87.388  63.775  90.581  0.00  0.00    +0.000 C 
ATOM      5  C   UNL     1      88.605  63.769  89.658  0.00  0.00    +0.000 C 
ATOM      6  C   UNL     1      88.196  63.864  88.182  0.00  0.00    +0.000 C 
ATOM      7  C   UNL     1      87.203  62.752  87.820  0.00  0.00    +0.000 C 
ATOM      8  C   UNL     1      85.986  62.763  88.742  0.00  0.00    +0.000 C 
ENDBRANCH   1   6
BRANCH   1   9
ATOM      9  C   UNL     1      89.480  64.127  85.982  0.00  0.00    +0.000 C 
ATOM     10  S   UNL     1      89.456  63.030  84.712  0.00  0.00    +0.000 S 
BRANCH   9  11
ATOM     11  C   UNL     1      89.629  65.559  85.698  0.00  0.00    +0.000 A 
ATOM     12  C   UNL     1      89.904  66.621  86.553  0.00  0.00    +0.000 A 
ATOM     13  C   UNL     1      89.973  67.881  85.887  0.00  0.00    +0.000 A 
ATOM     14  C   UNL     1      89.751  67.761  84.538  0.00  0.00    +0.000 A 
ATOM     15  S   UNL     1      89.461  66.143  84.079  0.00  0.00    +0.000 S 
ENDBRANCH   9  11
ENDBRANCH   1   9
TORSDOF 3
ENDMDL
