REMARK  Name = *****
REMARK  5 active torsions:
REMARK  status: ('A' for Active; 'I' for Inactive)
REMARK    1  A    between atoms: C_1  and  C_2
REMARK    2  A    between atoms: C_5  and  S_8
REMARK    3  A    between atoms: S_8  and  C_9
REMARK    4  A    between atoms: C_9  and  C_11
REMARK    5  A    between atoms: C_11  and  C_12
REMARK                            x       y       z     vdW  Elec       q    Type
REMARK                         _______ _______ _______ _____ _____    ______ ____
ROOT
ATOM      1  C   UNL     1      -4.069   1.708  -0.337  0.00  0.00    +0.000 C 
ATOM      2  O   UNL     1      -3.176   2.317  -0.920  0.00  0.00    +0.000 OA
ENDROOT
BRANCH   1   3
ATOM      3  S   UNL     1      -3.822   0.091   0.328  0.00  0.00    +0.000 S 
BRANCH   3   8
ATOM      4  C   UNL     1       1.088   0.889   3.854  0.00  0.00    +0.000 C 
ATOM      5  C   UNL     1      -0.118   0.685   2.986  0.00  0.00    +0.000 A 
ATOM      6  C   UNL     1      -1.358   0.354   3.545  0.00  0.00    +0.000 A 
ATOM      7  C   UNL     1      -2.481   0.185   2.728  0.00  0.00    +0.000 A 
ATOM      8  C   UNL     1      -2.382   0.356   1.344  0.00  0.00    +0.000 A 
ATOM      9  C   UNL     1      -1.145   0.686   0.786  0.00  0.00    +0.000 A 
ATOM     10  C   UNL     1      -0.023   0.859   1.601  0.00  0.00    +0.000 A 
ENDBRANCH   3   8
ENDBRANCH   1   3
BRANCH   1  11
ATOM     11  C   UNL     1      -5.470   2.255  -0.179  0.00  0.00    +0.000 C 
BRANCH  11  12
ATOM     12  C   UNL     1      -5.777   2.769   1.207  0.00  0.00    +0.000 A 
ATOM     13  C   UNL     1      -4.914   3.668   1.850  0.00  0.00    +0.000 A 
ATOM     14  C   UNL     1      -5.223   4.162   3.118  0.00  0.00    +0.000 A 
ATOM     15  C   UNL     1      -6.403   3.776   3.750  0.00  0.00    +0.000 A 
ATOM     16  C   UNL     1      -7.275   2.895   3.115  0.00  0.00    +0.000 A 
ATOM     17  C   UNL     1      -6.966   2.395   1.849  0.00  0.00    +0.000 A 
ENDBRANCH  11  12
ENDBRANCH   1  11
TORSDOF 4
