MODEL 1
REMARK VINA RESULT:      -4.5      0.000      0.000
REMARK  Name = *****
REMARK  4 active torsions:
REMARK  status: ('A' for Active; 'I' for Inactive)
REMARK    1  A    between atoms: C_1  and  C_2
REMARK    2  A    between atoms: C_5  and  S_8
REMARK    3  A    between atoms: S_8  and  C_9
REMARK    4  A    between atoms: C_10  and  C_11
REMARK                            x       y       z     vdW  Elec       q    Type
REMARK                         _______ _______ _______ _____ _____    ______ ____
ROOT
ATOM      1  S   UNL     1      88.884  64.300  86.672  0.00  0.00    +0.000 S 
ENDROOT
BRANCH   1   6
ATOM      2  C   UNL     1      86.760  64.599  92.377  0.00  0.00    +0.000 C 
ATOM      3  C   UNL     1      87.299  64.552  90.977  0.00  0.00    +0.000 A 
ATOM      4  C   UNL     1      86.614  65.184  89.933  0.00  0.00    +0.000 A 
ATOM      5  C   UNL     1      87.096  65.111  88.624  0.00  0.00    +0.000 A 
ATOM      6  C   UNL     1      88.266  64.402  88.342  0.00  0.00    +0.000 A 
ATOM      7  C   UNL     1      88.941  63.751  89.378  0.00  0.00    +0.000 A 
ATOM      8  C   UNL     1      88.458  63.823  90.687  0.00  0.00    +0.000 A 
ENDBRANCH   1   6
BRANCH   1   9
ATOM      9  C   UNL     1      88.769  65.973  86.232  0.00  0.00    +0.000 C 
ATOM     10  C   UNL     1      89.777  66.823  86.477  0.00  0.00    +0.000 C 
BRANCH  10  11
ATOM     11  C   UNL     1      89.748  68.246  86.117  0.00  0.00    +0.000 A 
ATOM     12  C   UNL     1      89.544  69.253  87.069  0.00  0.00    +0.000 A 
ATOM     13  C   UNL     1      89.551  70.598  86.692  0.00  0.00    +0.000 A 
ATOM     14  C   UNL     1      89.770  70.951  85.362  0.00  0.00    +0.000 A 
ATOM     15  C   UNL     1      89.990  69.958  84.409  0.00  0.00    +0.000 A 
ATOM     16  C   UNL     1      89.985  68.613  84.785  0.00  0.00    +0.000 A 
ENDBRANCH  10  11
ENDBRANCH   1   9
TORSDOF 3
ENDMDL
