MODEL 1
REMARK VINA RESULT:      -2.9      0.000      0.000
REMARK  Name = *****
REMARK  4 active torsions:
REMARK  status: ('A' for Active; 'I' for Inactive)
REMARK    1  A    between atoms: C_4  and  C_6
REMARK    2  A    between atoms: C_6  and  C_7
REMARK    3  A    between atoms: C_7  and  C_8
REMARK    4  A    between atoms: C_8  and  C_9
REMARK                            x       y       z     vdW  Elec       q    Type
REMARK                         _______ _______ _______ _____ _____    ______ ____
ROOT
ATOM      1  C   UNL     1      88.468  66.594  86.549  0.00  0.00    +0.000 C 
ENDROOT
BRANCH   1   2
ATOM      2  C   UNL     1      89.989  66.477  86.354  0.00  0.00    +0.000 C 
BRANCH   2   6
ATOM      3  C   UNL     1      90.424  63.353  84.728  0.00  0.00    +0.000 C 
ATOM      4  C   UNL     1      89.531  63.810  83.594  0.00  0.00    +0.000 C 
ATOM      5  S   UNL     1      88.940  65.484  83.964  0.00  0.00    +0.000 S 
ATOM      6  C   UNL     1      90.387  66.047  84.934  0.00  0.00    +0.000 C 
ATOM      7  S   UNL     1      91.603  64.688  85.029  0.00  0.00    +0.000 S 
ENDBRANCH   2   6
ENDBRANCH   1   2
BRANCH   1   8
ATOM      8  C   UNL     1      88.017  65.856  87.818  0.00  0.00    +0.000 C 
BRANCH   8   9
ATOM      9  C   UNL     1      88.451  64.382  87.849  0.00  0.00    +0.000 C 
ATOM     10  S   UNL     1      87.275  63.309  86.947  0.00  0.00    +0.000 S 
ATOM     11  C   UNL     1      86.846  62.206  88.323  0.00  0.00    +0.000 C 
ATOM     12  C   UNL     1      86.957  62.984  89.616  0.00  0.00    +0.000 C 
ATOM     13  S   UNL     1      88.561  63.818  89.582  0.00  0.00    +0.000 S 
ENDBRANCH   8   9
ENDBRANCH   1   8
TORSDOF 4
ENDMDL
