MODEL 1
REMARK VINA RESULT:      -4.1      0.000      0.000
REMARK  Name = *****
REMARK  1 active torsions:
REMARK  status: ('A' for Active; 'I' for Inactive)
REMARK    1  A    between atoms: C_8  and  C_10
REMARK                            x       y       z     vdW  Elec       q    Type
REMARK                         _______ _______ _______ _____ _____    ______ ____
ROOT
ATOM      1  C   UNL     1     105.773 123.056  79.981  0.00  0.00    +0.000 A 
ATOM      2  C   UNL     1     106.192 124.073  79.135  0.00  0.00    +0.000 A 
ATOM      3  C   UNL     1     105.604 125.339  79.202  0.00  0.00    +0.000 A 
ATOM      4  C   UNL     1     104.581 125.566  80.143  0.00  0.00    +0.000 A 
ATOM      5  C   UNL     1     104.144 124.559  81.004  0.00  0.00    +0.000 A 
ATOM      6  C   UNL     1     104.757 123.287  80.913  0.00  0.00    +0.000 A 
ATOM      7  C   UNL     1     103.096 125.033  81.867  0.00  0.00    +0.000 A 
ATOM      8  C   UNL     1     102.767 126.353  81.651  0.00  0.00    +0.000 A 
ATOM      9  S   UNL     1     103.718 127.030  80.405  0.00  0.00    +0.000 S 
ENDROOT
BRANCH   8  10
ATOM     10  C   UNL     1     101.706 127.102  82.414  0.00  0.00    +0.000 A 
ATOM     11  C   UNL     1     101.964 128.225  83.174  0.00  0.00    +0.000 A 
ATOM     12  S   UNL     1     100.557 128.851  83.922  0.00  0.00    +0.000 S 
ATOM     13  C   UNL     1      99.584 127.627  83.238  0.00  0.00    +0.000 A 
ATOM     14  C   UNL     1     100.317 126.759  82.456  0.00  0.00    +0.000 A 
ENDBRANCH   8  10
TORSDOF 1
ENDMDL
