MODEL 1
REMARK VINA RESULT:      -5.2      0.000      0.000
REMARK  Name = *****
REMARK  4 active torsions:
REMARK  status: ('A' for Active; 'I' for Inactive)
REMARK    1  A    between atoms: C_3  and  C_11
REMARK    2  A    between atoms: C_5  and  C_7
REMARK    3  A    between atoms: C_11  and  O_13
REMARK    4  A    between atoms: O_13  and  C_14
REMARK                            x       y       z     vdW  Elec       q    Type
REMARK                         _______ _______ _______ _____ _____    ______ ____
ROOT
ATOM      1  C   UNL     1     101.667 126.196  84.460  0.00  0.00    +0.000 C 
ATOM      2  O   UNL     1     101.430 125.264  85.212  0.00  0.00    +0.000 OA
ENDROOT
BRANCH   1   5
ATOM      3  C   UNL     1      98.658 127.434  82.476  0.00  0.00    +0.000 A 
ATOM      4  C   UNL     1      99.635 126.576  82.988  0.00  0.00    +0.000 A 
ATOM      5  C   UNL     1     100.603 127.061  83.876  0.00  0.00    +0.000 A 
ATOM      6  C   UNL     1     100.583 128.417  84.241  0.00  0.00    +0.000 A 
ATOM      7  C   UNL     1      99.609 129.289  83.725  0.00  0.00    +0.000 A 
ATOM      8  C   UNL     1      98.644 128.779  82.845  0.00  0.00    +0.000 A 
BRANCH   7   9
ATOM      9  C   UNL     1      99.580 130.738  84.146  0.00  0.00    +0.000 C 
ATOM     10  F   UNL     1     100.735 131.143  84.743  0.00  0.00    +0.000 F 
ATOM     11  F   UNL     1      99.380 131.593  83.105  0.00  0.00    +0.000 F 
ATOM     12  F   UNL     1      98.585 130.994  85.038  0.00  0.00    +0.000 F 
ENDBRANCH   7   9
ENDBRANCH   1   5
BRANCH   1  13
ATOM     13  O   UNL     1     102.909 126.612  84.015  0.00  0.00    +0.000 OA
BRANCH  13  14
ATOM     14  C   UNL     1     103.173 126.312  82.675  0.00  0.00    +0.000 A 
ATOM     15  C   UNL     1     103.162 127.314  81.706  0.00  0.00    +0.000 A 
ATOM     16  C   UNL     1     103.483 126.978  80.395  0.00  0.00    +0.000 A 
ATOM     17  C   UNL     1     103.828 125.677  80.048  0.00  0.00    +0.000 A 
ATOM     18  C   UNL     1     103.852 124.702  81.037  0.00  0.00    +0.000 A 
ATOM     19  C   UNL     1     103.534 125.005  82.358  0.00  0.00    +0.000 A 
ATOM     20  F   UNL     1     104.196 123.448  80.718  0.00  0.00    +0.000 F 
ATOM     21  F   UNL     1     103.470 127.928  79.450  0.00  0.00    +0.000 F 
ENDBRANCH  13  14
ENDBRANCH   1  13
TORSDOF 4
ENDMDL
