MODEL 1
REMARK VINA RESULT:      -4.2      0.000      0.000
REMARK  Name = *****
REMARK  4 active torsions:
REMARK  status: ('A' for Active; 'I' for Inactive)
REMARK    1  A    between atoms: C_5  and  O_7
REMARK    2  A    between atoms: O_7  and  C_8
REMARK    3  A    between atoms: C_8  and  O_10
REMARK    4  A    between atoms: O_10  and  C_11
REMARK                            x       y       z     vdW  Elec       q    Type
REMARK                         _______ _______ _______ _____ _____    ______ ____
ROOT
ATOM      1  C   UNL     1      89.778  69.000  85.426  0.00  0.00    +0.000 C 
ATOM      2  O   UNL     1      89.536  68.645  84.278  0.00  0.00    +0.000 OA
ENDROOT
BRANCH   1   3
ATOM      3  O   UNL     1      89.707  70.296  85.917  0.00  0.00    +0.000 OA
BRANCH   3   8
ATOM      4  C   UNL     1      86.380  71.645  85.151  0.00  0.00    +0.000 A 
ATOM      5  C   UNL     1      85.795  71.668  86.418  0.00  0.00    +0.000 A 
ATOM      6  C   UNL     1      86.514  71.231  87.534  0.00  0.00    +0.000 A 
ATOM      7  C   UNL     1      87.820  70.763  87.381  0.00  0.00    +0.000 A 
ATOM      8  C   UNL     1      88.391  70.724  86.106  0.00  0.00    +0.000 A 
ATOM      9  C   UNL     1      87.685  71.179  84.991  0.00  0.00    +0.000 A 
ATOM     10 CL   UNL     1      88.698  70.265  88.779  0.00  0.00    +0.000 Cl
ENDBRANCH   3   8
ENDBRANCH   1   3
BRANCH   1  11
ATOM     11  O   UNL     1      90.213  68.188  86.462  0.00  0.00    +0.000 OA
BRANCH  11  12
ATOM     12  C   UNL     1      89.451  67.022  86.580  0.00  0.00    +0.000 A 
ATOM     13  C   UNL     1      88.168  67.127  87.119  0.00  0.00    +0.000 A 
ATOM     14  C   UNL     1      87.373  65.986  87.217  0.00  0.00    +0.000 A 
ATOM     15  C   UNL     1      87.854  64.754  86.765  0.00  0.00    +0.000 A 
ATOM     16  C   UNL     1      89.132  64.662  86.207  0.00  0.00    +0.000 A 
ATOM     17  C   UNL     1      89.934  65.799  86.106  0.00  0.00    +0.000 A 
ATOM     18 CL   UNL     1      91.492  65.662  85.384  0.00  0.00    +0.000 Cl
ENDBRANCH  11  12
ENDBRANCH   1  11
TORSDOF 4
ENDMDL
