MODEL 1
REMARK VINA RESULT:      -4.3      0.000      0.000
REMARK  Name = *****
REMARK  6 active torsions:
REMARK  status: ('A' for Active; 'I' for Inactive)
REMARK    1  A    between atoms: C_1  and  C_2
REMARK    2  A    between atoms: C_2  and  C_3
REMARK    3  A    between atoms: C_3  and  N_4
REMARK    4  A    between atoms: N_4  and  C_5
REMARK    5  A    between atoms: N_4  and  O_11
REMARK    6  A    between atoms: O_11  and  C_12
REMARK                            x       y       z     vdW  Elec       q    Type
REMARK                         _______ _______ _______ _____ _____    ______ ____
ROOT
ATOM      1  N   UNL     1      88.468  70.038  86.644  0.00  0.00    +0.000 N 
ENDROOT
BRANCH   1   2
ATOM      2  C   UNL     1      88.656  68.630  86.727  0.00  0.00    +0.000 A 
ATOM      3  C   UNL     1      89.824  68.033  86.224  0.00  0.00    +0.000 A 
ATOM      4  C   UNL     1      90.035  66.654  86.327  0.00  0.00    +0.000 A 
ATOM      5  C   UNL     1      89.085  65.850  86.950  0.00  0.00    +0.000 A 
ATOM      6  C   UNL     1      87.932  66.424  87.479  0.00  0.00    +0.000 A 
ATOM      7  C   UNL     1      87.725  67.803  87.375  0.00  0.00    +0.000 A 
ENDBRANCH   1   2
BRANCH   1   8
ATOM      8  C   UNL     1      89.712  70.765  86.326  0.00  0.00    +0.000 C 
BRANCH   8  10
ATOM      9  C   UNL     1      90.644  70.766  83.963  0.00  0.00    +0.000 C 
ATOM     10  C   UNL     1      89.651  71.393  84.930  0.00  0.00    +0.000 C 
ENDBRANCH   8  10
ENDBRANCH   1   8
BRANCH   1  11
ATOM     11  O   UNL     1      87.426  70.508  85.819  0.00  0.00    +0.000 OA
BRANCH  11  12
ATOM     12  C   UNL     1      86.435  71.153  86.533  0.00  0.00    +0.000 A 
ATOM     13  C   UNL     1      86.345  71.194  87.925  0.00  0.00    +0.000 A 
ATOM     14  C   UNL     1      85.286  71.867  88.539  0.00  0.00    +0.000 A 
ATOM     15  C   UNL     1      84.311  72.493  87.764  0.00  0.00    +0.000 A 
ATOM     16  C   UNL     1      84.391  72.445  86.373  0.00  0.00    +0.000 A 
ATOM     17  C   UNL     1      85.449  71.772  85.759  0.00  0.00    +0.000 A 
ENDBRANCH  11  12
ENDBRANCH   1  11
TORSDOF 5
ENDMDL
