MODEL 1
REMARK VINA RESULT:      -4.5      0.000      0.000
REMARK  Name = *****
REMARK  4 active torsions:
REMARK  status: ('A' for Active; 'I' for Inactive)
REMARK    1  A    between atoms: C_1  and  C_2
REMARK    2  A    between atoms: C_2  and  O_10
REMARK    3  A    between atoms: C_3  and  C_4
REMARK    4  A    between atoms: O_10  and  C_11
REMARK                            x       y       z     vdW  Elec       q    Type
REMARK                         _______ _______ _______ _____ _____    ______ ____
ROOT
ATOM      1  C   UNL     1      87.422  66.214  86.018  0.00  0.00    +0.000 C 
ATOM      2  C   UNL     1      88.826  65.872  86.423  0.00  0.00    +0.000 C 
ATOM      3  C   UNL     1      89.871  66.722  86.429  0.00  0.00    +0.000 C 
ENDROOT
BRANCH   3   4
ATOM      4  C   UNL     1      89.800  68.153  86.127  0.00  0.00    +0.000 A 
ATOM      5  C   UNL     1      89.550  69.088  87.138  0.00  0.00    +0.000 A 
ATOM      6  C   UNL     1      89.493  70.449  86.839  0.00  0.00    +0.000 A 
ATOM      7  C   UNL     1      89.689  70.884  85.528  0.00  0.00    +0.000 A 
ATOM      8  C   UNL     1      89.945  69.959  84.517  0.00  0.00    +0.000 A 
ATOM      9  C   UNL     1      90.003  68.595  84.816  0.00  0.00    +0.000 A 
ENDBRANCH   3   4
BRANCH   2  10
ATOM     10  O   UNL     1      88.991  64.517  86.700  0.00  0.00    +0.000 OA
BRANCH  10  11
ATOM     11  C   UNL     1      88.235  63.949  87.701  0.00  0.00    +0.000 A 
ATOM     12  C   UNL     1      87.317  62.918  87.483  0.00  0.00    +0.000 A 
ATOM     13  C   UNL     1      86.615  62.375  88.560  0.00  0.00    +0.000 A 
ATOM     14  C   UNL     1      86.838  62.850  89.852  0.00  0.00    +0.000 A 
ATOM     15  C   UNL     1      87.770  63.865  90.072  0.00  0.00    +0.000 A 
ATOM     16  C   UNL     1      88.473  64.409  88.998  0.00  0.00    +0.000 A 
ENDBRANCH  10  11
ENDBRANCH   2  10
TORSDOF 3
ENDMDL
