MODEL 1
REMARK VINA RESULT:      -4.2      0.000      0.000
REMARK  Name = *****
REMARK  3 active torsions:
REMARK  status: ('A' for Active; 'I' for Inactive)
REMARK    1  A    between atoms: C_4  and  N_7
REMARK    2  A    between atoms: C_8  and  O_9
REMARK    3  A    between atoms: O_9  and  C_10
REMARK                            x       y       z     vdW  Elec       q    Type
REMARK                         _______ _______ _______ _____ _____    ______ ____
ROOT
ATOM      1  N   UNL     1      89.606  71.874  84.386  0.00  0.00    +0.000 NA
ATOM      2  C   UNL     1      88.454  72.214  83.897  0.00  0.00    +0.000 C 
ATOM      3 CL   UNL     1      88.392  73.753  83.118  0.00  0.00    +0.000 Cl
ENDROOT
BRANCH   1   7
ATOM      4  C   UNL     1      89.854  68.147  86.307  0.00  0.00    +0.000 A 
ATOM      5  C   UNL     1      89.677  69.307  87.059  0.00  0.00    +0.000 A 
ATOM      6  C   UNL     1      89.596  70.547  86.421  0.00  0.00    +0.000 A 
ATOM      7  C   UNL     1      89.703  70.634  85.030  0.00  0.00    +0.000 A 
ATOM      8  C   UNL     1      89.861  69.465  84.282  0.00  0.00    +0.000 A 
ATOM      9  C   UNL     1      89.942  68.225  84.918  0.00  0.00    +0.000 A 
ENDBRANCH   1   7
BRANCH   2  10
ATOM     10  O   UNL     1      87.336  71.382  83.998  0.00  0.00    +0.000 OA
BRANCH  10  11
ATOM     11  C   UNL     1      86.254  71.817  84.773  0.00  0.00    +0.000 A 
ATOM     12  C   UNL     1      85.168  72.422  84.145  0.00  0.00    +0.000 A 
ATOM     13  C   UNL     1      84.079  72.822  84.917  0.00  0.00    +0.000 A 
ATOM     14  C   UNL     1      84.081  72.601  86.296  0.00  0.00    +0.000 A 
ATOM     15  C   UNL     1      85.168  71.973  86.908  0.00  0.00    +0.000 A 
ATOM     16  C   UNL     1      86.261  71.569  86.144  0.00  0.00    +0.000 A 
ENDBRANCH  10  11
ENDBRANCH   2  10
TORSDOF 3
ENDMDL
