REMARK  Name = *****
REMARK  3 active torsions:
REMARK  status: ('A' for Active; 'I' for Inactive)
REMARK    1  A    between atoms: C_4  and  C_7
REMARK    2  A    between atoms: C_7  and  S_9
REMARK    3  A    between atoms: S_9  and  C_10
REMARK                            x       y       z     vdW  Elec       q    Type
REMARK                         _______ _______ _______ _____ _____    ______ ____
ROOT
ATOM      1  C   UNL     1      -2.843   0.029  -0.923  0.00  0.00    +0.000 C 
ATOM      2  F   UNL     1      -2.991  -0.023  -2.281  0.00  0.00    +0.000 F 
ENDROOT
BRANCH   1   6
ATOM      3  C   UNL     1       1.309  -0.129   0.266  0.00  0.00    +0.000 A 
ATOM      4  C   UNL     1       0.352   0.370   1.148  0.00  0.00    +0.000 A 
ATOM      5  C   UNL     1      -0.990   0.424   0.766  0.00  0.00    +0.000 A 
ATOM      6  C   UNL     1      -1.389  -0.023  -0.505  0.00  0.00    +0.000 A 
ATOM      7  C   UNL     1      -0.415  -0.527  -1.380  0.00  0.00    +0.000 A 
ATOM      8  C   UNL     1       0.927  -0.578  -0.996  0.00  0.00    +0.000 A 
ENDBRANCH   1   6
BRANCH   1   9
ATOM      9  S   UNL     1      -3.787  -1.351  -0.179  0.00  0.00    +0.000 S 
BRANCH   9  10
ATOM     10  C   UNL     1      -5.448  -0.780  -0.482  0.00  0.00    +0.000 A 
ATOM     11  C   UNL     1      -5.926  -0.575  -1.780  0.00  0.00    +0.000 A 
ATOM     12  C   UNL     1      -7.236  -0.136  -1.988  0.00  0.00    +0.000 A 
ATOM     13  C   UNL     1      -8.077   0.091  -0.901  0.00  0.00    +0.000 A 
ATOM     14  C   UNL     1      -7.612  -0.126   0.395  0.00  0.00    +0.000 A 
ATOM     15  C   UNL     1      -6.303  -0.565   0.604  0.00  0.00    +0.000 A 
ENDBRANCH   9  10
ENDBRANCH   1   9
TORSDOF 3
