MODEL 1
REMARK VINA RESULT:      -4.4      0.000      0.000
REMARK  Name = *****
REMARK  4 active torsions:
REMARK  status: ('A' for Active; 'I' for Inactive)
REMARK    1  A    between atoms: C_4  and  N_7
REMARK    2  A    between atoms: C_8  and  C_9
REMARK    3  A    between atoms: C_8  and  O_11
REMARK    4  A    between atoms: O_11  and  C_12
REMARK                            x       y       z     vdW  Elec       q    Type
REMARK                         _______ _______ _______ _____ _____    ______ ____
ROOT
ATOM      1  N   UNL     1      90.171  67.720  86.508  0.00  0.00    +0.000 NA
ATOM      2  C   UNL     1      89.929  68.656  85.641  0.00  0.00    +0.000 C 
ENDROOT
BRANCH   1   6
ATOM      3  C   UNL     1      90.408  63.692  85.343  0.00  0.00    +0.000 A 
ATOM      4  C   UNL     1      91.476  64.553  85.093  0.00  0.00    +0.000 A 
ATOM      5  C   UNL     1      91.397  65.892  85.481  0.00  0.00    +0.000 A 
ATOM      6  C   UNL     1      90.246  66.380  86.106  0.00  0.00    +0.000 A 
ATOM      7  C   UNL     1      89.190  65.506  86.375  0.00  0.00    +0.000 A 
ATOM      8  C   UNL     1      89.267  64.167  85.988  0.00  0.00    +0.000 A 
ENDBRANCH   1   6
BRANCH   2   9
ATOM      9  C   UNL     1      89.722  68.354  84.237  0.00  0.00    +0.000 C 
ATOM     10  N   UNL     1      89.552  68.138  83.106  0.00  0.00    +0.000 NA
ENDBRANCH   2   9
BRANCH   2  11
ATOM     11  O   UNL     1      89.834  70.010  85.929  0.00  0.00    +0.000 OA
BRANCH  11  12
ATOM     12  C   UNL     1      88.705  70.417  86.653  0.00  0.00    +0.000 A 
ATOM     13  C   UNL     1      88.735  70.468  88.045  0.00  0.00    +0.000 A 
ATOM     14  C   UNL     1      87.613  70.930  88.732  0.00  0.00    +0.000 A 
ATOM     15  C   UNL     1      86.484  71.350  88.024  0.00  0.00    +0.000 A 
ATOM     16  C   UNL     1      86.475  71.316  86.628  0.00  0.00    +0.000 A 
ATOM     17  C   UNL     1      87.594  70.854  85.935  0.00  0.00    +0.000 A 
ENDBRANCH  11  12
ENDBRANCH   2  11
TORSDOF 4
ENDMDL
