REMARK  Name = *****
REMARK  4 active torsions:
REMARK  status: ('A' for Active; 'I' for Inactive)
REMARK    1  A    between atoms: C_4  and  C_7
REMARK    2  A    between atoms: C_7  and  S_8
REMARK    3  A    between atoms: S_8  and  C_10
REMARK    4  A    between atoms: C_10  and  C_11
REMARK                            x       y       z     vdW  Elec       q    Type
REMARK                         _______ _______ _______ _____ _____    ______ ____
ROOT
ATOM      1  S   UNL     1      -3.732  -1.352   0.357  0.00  0.00    +0.000 S 
ATOM      2  O   UNL     1      -4.048  -1.468   1.821  0.00  0.00    +0.000 OA
ENDROOT
BRANCH   1   3
ATOM      3  C   UNL     1      -2.942   0.268   0.080  0.00  0.00    +0.000 C 
BRANCH   3   7
ATOM      4  C   UNL     1       1.190   0.273   1.315  0.00  0.00    +0.000 A 
ATOM      5  C   UNL     1       0.868   0.183  -0.038  0.00  0.00    +0.000 A 
ATOM      6  C   UNL     1      -0.469   0.180  -0.441  0.00  0.00    +0.000 A 
ATOM      7  C   UNL     1      -1.498   0.273   0.508  0.00  0.00    +0.000 A 
ATOM      8  C   UNL     1      -1.160   0.357   1.867  0.00  0.00    +0.000 A 
ATOM      9  C   UNL     1       0.177   0.358   2.267  0.00  0.00    +0.000 A 
ENDBRANCH   3   7
ENDBRANCH   1   3
BRANCH   1  10
ATOM     10  C   UNL     1      -5.282  -0.931  -0.512  0.00  0.00    +0.000 C 
BRANCH  10  11
ATOM     11  C   UNL     1      -6.244  -2.086  -0.528  0.00  0.00    +0.000 A 
ATOM     12  C   UNL     1      -7.308  -2.101   0.381  0.00  0.00    +0.000 A 
ATOM     13  C   UNL     1      -8.216  -3.156   0.433  0.00  0.00    +0.000 A 
ATOM     14  C   UNL     1      -8.073  -4.234  -0.435  0.00  0.00    +0.000 A 
ATOM     15  C   UNL     1      -7.023  -4.243  -1.352  0.00  0.00    +0.000 A 
ATOM     16  C   UNL     1      -6.114  -3.179  -1.398  0.00  0.00    +0.000 A 
ATOM     17 CL   UNL     1      -4.846  -3.261  -2.570  0.00  0.00    +0.000 Cl
ATOM     18  F   UNL     1      -7.484  -1.069   1.218  0.00  0.00    +0.000 F 
ENDBRANCH  10  11
ENDBRANCH   1  10
TORSDOF 4
