MODEL 1
REMARK VINA RESULT:      -5.1      0.000      0.000
REMARK  Name = *****
REMARK  3 active torsions:
REMARK  status: ('A' for Active; 'I' for Inactive)
REMARK    1  A    between atoms: C_1  and  C_2
REMARK    2  A    between atoms: C_5  and  C_8
REMARK    3  A    between atoms: C_9  and  C_10
REMARK                            x       y       z     vdW  Elec       q    Type
REMARK                         _______ _______ _______ _____ _____    ______ ____
ROOT
ATOM      1  C   UNL     1     101.869 125.920  82.237  0.00  0.00    +0.000 C 
ATOM      2  C   UNL     1     103.130 125.617  82.584  0.00  0.00    +0.000 C 
ENDROOT
BRANCH   2   3
ATOM      3  C   UNL     1     103.850 124.420  82.121  0.00  0.00    +0.000 A 
ATOM      4  C   UNL     1     104.219 124.206  80.783  0.00  0.00    +0.000 A 
ATOM      5  C   UNL     1     104.926 123.071  80.396  0.00  0.00    +0.000 A 
ATOM      6  C   UNL     1     105.282 122.138  81.358  0.00  0.00    +0.000 A 
ATOM      7  C   UNL     1     104.947 122.325  82.695  0.00  0.00    +0.000 A 
ATOM      8  C   UNL     1     104.237 123.466  83.076  0.00  0.00    +0.000 A 
ATOM      9  F   UNL     1     105.964 121.044  80.997  0.00  0.00    +0.000 F 
ATOM     10  F   UNL     1     103.909 125.103  79.835  0.00  0.00    +0.000 F 
ENDBRANCH   2   3
BRANCH   1  15
ATOM     11  C   UNL     1      99.141 130.585  84.318  0.00  0.00    +0.000 C 
ATOM     12  C   UNL     1      99.841 129.388  83.744  0.00  0.00    +0.000 A 
ATOM     13  C   UNL     1      99.111 128.363  83.133  0.00  0.00    +0.000 A 
ATOM     14  C   UNL     1      99.762 127.233  82.629  0.00  0.00    +0.000 A 
ATOM     15  C   UNL     1     101.153 127.106  82.727  0.00  0.00    +0.000 A 
ATOM     16  C   UNL     1     101.876 128.118  83.370  0.00  0.00    +0.000 A 
ATOM     17  C   UNL     1     101.226 129.249  83.873  0.00  0.00    +0.000 A 
ENDBRANCH   1  15
TORSDOF 2
ENDMDL
