REMARK  Name = *****
REMARK  4 active torsions:
REMARK  status: ('A' for Active; 'I' for Inactive)
REMARK    1  A    between atoms: C_6  and  C_7
REMARK    2  A    between atoms: C_7  and  O_9
REMARK    3  A    between atoms: O_9  and  C_10
REMARK    4  A    between atoms: C_10  and  C_11
REMARK                            x       y       z     vdW  Elec       q    Type
REMARK                         _______ _______ _______ _____ _____    ______ ____
ROOT
ATOM      1  O   UNL     1      -4.151   1.127  -0.178  0.00  0.00    +0.000 OA
ENDROOT
BRANCH   1   2
ATOM      2  C   UNL     1      -3.594  -0.019   0.279  0.00  0.00    +0.000 C 
ATOM      3  O   UNL     1      -4.193  -0.988   0.715  0.00  0.00    +0.000 OA
BRANCH   2   9
ATOM      4  C   UNL     1      -1.438   1.185  -0.300  0.00  0.00    +0.000 A 
ATOM      5  C   UNL     1      -0.041   1.199  -0.362  0.00  0.00    +0.000 A 
ATOM      6  C   UNL     1       0.678   0.087   0.062  0.00  0.00    +0.000 A 
ATOM      7  C   UNL     1       0.029  -1.042   0.549  0.00  0.00    +0.000 A 
ATOM      8  C   UNL     1      -1.366  -1.060   0.613  0.00  0.00    +0.000 A 
ATOM      9  C   UNL     1      -2.109   0.053   0.188  0.00  0.00    +0.000 A 
ATOM     10  F   UNL     1       2.015   0.104   0.001  0.00  0.00    +0.000 F 
ENDBRANCH   2   9
ENDBRANCH   1   2
BRANCH   1  11
ATOM     11  C   UNL     1      -5.583   1.191  -0.134  0.00  0.00    +0.000 C 
BRANCH  11  12
ATOM     12  C   UNL     1      -6.015   1.934   1.100  0.00  0.00    +0.000 A 
ATOM     13  C   UNL     1      -6.166   3.324   1.075  0.00  0.00    +0.000 A 
ATOM     14  C   UNL     1      -6.542   4.034   2.209  0.00  0.00    +0.000 A 
ATOM     15  C   UNL     1      -6.762   3.341   3.391  0.00  0.00    +0.000 A 
ATOM     16  C   UNL     1      -6.611   1.959   3.452  0.00  0.00    +0.000 A 
ATOM     17  C   UNL     1      -6.234   1.254   2.308  0.00  0.00    +0.000 A 
ATOM     18  F   UNL     1      -7.123   4.012   4.492  0.00  0.00    +0.000 F 
ATOM     19  F   UNL     1      -5.949   3.998  -0.064  0.00  0.00    +0.000 F 
ENDBRANCH  11  12
ENDBRANCH   1  11
TORSDOF 4
