MODEL 1
REMARK VINA RESULT:      -3.3      0.000      0.000
REMARK  Name = *****
REMARK  4 active torsions:
REMARK  status: ('A' for Active; 'I' for Inactive)
REMARK    1  A    between atoms: C_4  and  C_7
REMARK    2  A    between atoms: C_7  and  C_8
REMARK    3  A    between atoms: C_8  and  C_9
REMARK    4  A    between atoms: C_9  and  C_10
REMARK                            x       y       z     vdW  Elec       q    Type
REMARK                         _______ _______ _______ _____ _____    ______ ____
ROOT
ATOM      1  C   UNL     1      89.005  65.512  86.744  0.00  0.00    +0.000 C 
ENDROOT
BRANCH   1   2
ATOM      2  C   UNL     1      88.156  65.193  87.983  0.00  0.00    +0.000 C 
BRANCH   2   6
ATOM      3  C   UNL     1      86.200  63.423  90.815  0.00  0.00    +0.000 C 
ATOM      4  C   UNL     1      87.375  64.350  91.092  0.00  0.00    +0.000 C 
ATOM      5  S   UNL     1      88.918  63.780  90.326  0.00  0.00    +0.000 S 
ATOM      6  C   UNL     1      88.434  63.797  88.569  0.00  0.00    +0.000 C 
ATOM      7  S   UNL     1      87.048  62.648  88.268  0.00  0.00    +0.000 S 
ATOM      8  C   UNL     1      85.780  63.367  89.353  0.00  0.00    +0.000 C 
ENDBRANCH   2   6
ENDBRANCH   1   2
BRANCH   1   9
ATOM      9  C   UNL     1      89.387  66.998  86.626  0.00  0.00    +0.000 C 
BRANCH   9  10
ATOM     10  C   UNL     1      88.247  67.959  86.244  0.00  0.00    +0.000 C 
ATOM     11  S   UNL     1      87.914  69.287  87.445  0.00  0.00    +0.000 S 
ATOM     12  C   UNL     1      89.442  70.251  87.286  0.00  0.00    +0.000 C 
ATOM     13  C   UNL     1      89.648  70.801  85.882  0.00  0.00    +0.000 C 
ATOM     14  C   UNL     1      89.889  69.732  84.825  0.00  0.00    +0.000 C 
ATOM     15  S   UNL     1      88.462  68.641  84.564  0.00  0.00    +0.000 S 
ENDBRANCH   9  10
ENDBRANCH   1   9
TORSDOF 4
ENDMDL
