MODEL 1
REMARK VINA RESULT:      -4.7      0.000      0.000
REMARK  Name = *****
REMARK  4 active torsions:
REMARK  status: ('A' for Active; 'I' for Inactive)
REMARK    1  A    between atoms: C_4  and  C_7
REMARK    2  A    between atoms: C_7  and  C_9
REMARK    3  A    between atoms: C_9  and  S_10
REMARK    4  A    between atoms: S_10  and  C_11
REMARK                            x       y       z     vdW  Elec       q    Type
REMARK                         _______ _______ _______ _____ _____    ______ ____
ROOT
ATOM      1  C   UNL     1     100.304 126.551  82.904  0.00  0.00    +0.000 C 
ENDROOT
BRANCH   1   2
ATOM      2  C   UNL     1      99.144 127.528  82.791  0.00  0.00    +0.000 C 
ATOM      3  O   UNL     1      98.211 127.400  82.000  0.00  0.00    +0.000 OA
BRANCH   2   7
ATOM      4  C   UNL     1      99.058 130.822  85.549  0.00  0.00    +0.000 A 
ATOM      5  C   UNL     1      99.351 131.062  84.208  0.00  0.00    +0.000 A 
ATOM      6  C   UNL     1      99.386 130.004  83.295  0.00  0.00    +0.000 A 
ATOM      7  C   UNL     1      99.123 128.696  83.724  0.00  0.00    +0.000 A 
ATOM      8  C   UNL     1      98.837 128.465  85.077  0.00  0.00    +0.000 A 
ATOM      9  C   UNL     1      98.802 129.524  85.986  0.00  0.00    +0.000 A 
ENDBRANCH   2   7
ENDBRANCH   1   2
BRANCH   1  10
ATOM     10  S   UNL     1     101.917 127.384  82.745  0.00  0.00    +0.000 S 
BRANCH  10  11
ATOM     11  C   UNL     1     102.882 126.039  82.090  0.00  0.00    +0.000 A 
ATOM     12  C   UNL     1     103.327 124.997  82.912  0.00  0.00    +0.000 A 
ATOM     13  C   UNL     1     104.090 123.955  82.377  0.00  0.00    +0.000 A 
ATOM     14  C   UNL     1     104.414 123.958  81.023  0.00  0.00    +0.000 A 
ATOM     15  C   UNL     1     103.986 124.997  80.198  0.00  0.00    +0.000 A 
ATOM     16  C   UNL     1     103.224 126.039  80.734  0.00  0.00    +0.000 A 
ATOM     17 CL   UNL     1     105.351 122.674  80.365  0.00  0.00    +0.000 Cl
ENDBRANCH  10  11
ENDBRANCH   1  10
TORSDOF 4
ENDMDL
