REMARK  Name = *****
REMARK  3 active torsions:
REMARK  status: ('A' for Active; 'I' for Inactive)
REMARK    1  A    between atoms: C_1  and  C_2
REMARK    2  A    between atoms: C_5  and  C_8
REMARK    3  A    between atoms: C_14  and  C_17
REMARK                            x       y       z     vdW  Elec       q    Type
REMARK                         _______ _______ _______ _____ _____    ______ ____
ROOT
ATOM      1  C   UNL     1      -3.345   0.704  -0.288  0.00  0.00    +0.000 A 
ATOM      2  N   UNL     1      -4.161   1.340  -1.113  0.00  0.00    +0.000 NA
ATOM      3  C   UNL     1      -5.409   1.060  -0.617  0.00  0.00    +0.000 A 
ATOM      4  C   UNL     1      -5.302   0.256   0.503  0.00  0.00    +0.000 A 
ATOM      5  O   UNL     1      -3.977   0.022   0.724  0.00  0.00    +0.000 OA
ATOM      6  C   UNL     1      -6.376  -0.211   1.252  0.00  0.00    +0.000 A 
ATOM      7  C   UNL     1      -7.653   0.170   0.804  0.00  0.00    +0.000 A 
ATOM      8  C   UNL     1      -7.796   0.999  -0.324  0.00  0.00    +0.000 A 
ATOM      9  C   UNL     1      -6.682   1.450  -1.051  0.00  0.00    +0.000 A 
ATOM     10  C   UNL     1      -8.872  -0.262   1.572  0.00  0.00    +0.000 C 
ENDROOT
BRANCH   1  15
ATOM     11  C   UNL     1       2.437   0.512  -0.450  0.00  0.00    +0.000 C 
ATOM     12  C   UNL     1       0.938   0.534  -0.420  0.00  0.00    +0.000 A 
ATOM     13  C   UNL     1       0.219   1.273  -1.364  0.00  0.00    +0.000 A 
ATOM     14  C   UNL     1      -1.178   1.318  -1.314  0.00  0.00    +0.000 A 
ATOM     15  C   UNL     1      -1.886   0.637  -0.313  0.00  0.00    +0.000 A 
ATOM     16  C   UNL     1      -1.158  -0.090   0.639  0.00  0.00    +0.000 A 
ATOM     17  C   UNL     1       0.240  -0.137   0.590  0.00  0.00    +0.000 A 
ENDBRANCH   1  15
TORSDOF 1
