MODEL 1
REMARK VINA RESULT:      -4.2      0.000      0.000
REMARK  Name = *****
REMARK  3 active torsions:
REMARK  status: ('A' for Active; 'I' for Inactive)
REMARK    1  A    between atoms: C_1  and  C_2
REMARK    2  A    between atoms: C_5  and  N_8
REMARK    3  A    between atoms: C_9  and  C_10
REMARK                            x       y       z     vdW  Elec       q    Type
REMARK                         _______ _______ _______ _____ _____    ______ ____
ROOT
ATOM      1  C   UNL     1      99.208 130.391  84.389  0.00  0.00    +0.000 C 
ATOM      2  C   UNL     1      99.916 129.207  83.792  0.00  0.00    +0.000 A 
ATOM      3  C   UNL     1     101.315 129.085  83.824  0.00  0.00    +0.000 A 
ATOM      4  C   UNL     1     101.947 127.972  83.265  0.00  0.00    +0.000 A 
ATOM      5  C   UNL     1     101.196 126.966  82.658  0.00  0.00    +0.000 A 
ATOM      6  C   UNL     1      99.804 127.070  82.639  0.00  0.00    +0.000 A 
ATOM      7  C   UNL     1      99.168 128.182  83.196  0.00  0.00    +0.000 A 
ATOM      8 CL   UNL     1     102.309 130.298  84.551  0.00  0.00    +0.000 Cl
ENDROOT
BRANCH   5   9
ATOM      9  N   UNL     1     101.831 125.843  82.113  0.00  0.00    +0.000 NA
ATOM     10  C   UNL     1     103.097 125.729  82.369  0.00  0.00    +0.000 C 
BRANCH  10  11
ATOM     11  C   UNL     1     103.852 124.612  81.857  0.00  0.00    +0.000 A 
ATOM     12  C   UNL     1     104.241 124.349  80.559  0.00  0.00    +0.000 A 
ATOM     13  C   UNL     1     104.980 123.135  80.452  0.00  0.00    +0.000 A 
ATOM     14  C   UNL     1     105.129 122.516  81.672  0.00  0.00    +0.000 A 
ATOM     15  S   UNL     1     104.381 123.395  82.935  0.00  0.00    +0.000 S 
ENDBRANCH  10  11
ENDBRANCH   5   9
TORSDOF 2
ENDMDL
