MODEL 1
REMARK VINA RESULT:      -4.7      0.000      0.000
REMARK  Name = *****
REMARK  6 active torsions:
REMARK  status: ('A' for Active; 'I' for Inactive)
REMARK    1  A    between atoms: C_1  and  C_2
REMARK    2  A    between atoms: C_2  and  C_3
REMARK    3  A    between atoms: C_2  and  O_9
REMARK    4  A    between atoms: O_9  and  C_10
REMARK    5  A    between atoms: C_10  and  C_11
REMARK    6  A    between atoms: C_10  and  C_12
REMARK                            x       y       z     vdW  Elec       q    Type
REMARK                         _______ _______ _______ _____ _____    ______ ____
ROOT
ATOM      1  O   UNL     1     103.217 126.390  82.353  0.00  0.00    +0.000 OA
ENDROOT
BRANCH   1   3
ATOM      2  C   UNL     1     102.458 125.513  84.475  0.00  0.00    +0.000 C 
ATOM      3  C   UNL     1     102.069 125.896  83.049  0.00  0.00    +0.000 C 
BRANCH   3   4
ATOM      4  C   UNL     1     101.007 126.979  83.055  0.00  0.00    +0.000 A 
ATOM      5  C   UNL     1     101.256 128.239  83.625  0.00  0.00    +0.000 A 
ATOM      6  C   UNL     1     100.265 129.222  83.644  0.00  0.00    +0.000 A 
ATOM      7  C   UNL     1      99.012 128.959  83.098  0.00  0.00    +0.000 A 
ATOM      8  C   UNL     1      98.748 127.713  82.533  0.00  0.00    +0.000 A 
ATOM      9  C   UNL     1      99.737 126.728  82.513  0.00  0.00    +0.000 A 
ENDBRANCH   3   4
ENDBRANCH   1   3
BRANCH   1  10
ATOM     10  C   UNL     1     103.184 126.179  80.939  0.00  0.00    +0.000 C 
ATOM     11  C   UNL     1     103.552 127.475  80.218  0.00  0.00    +0.000 C 
BRANCH  10  12
ATOM     12  C   UNL     1     104.166 125.075  80.594  0.00  0.00    +0.000 A 
ATOM     13  C   UNL     1     105.085 125.248  79.548  0.00  0.00    +0.000 A 
ATOM     14  C   UNL     1     106.006 124.245  79.238  0.00  0.00    +0.000 A 
ATOM     15  C   UNL     1     106.023 123.060  79.970  0.00  0.00    +0.000 A 
ATOM     16  C   UNL     1     105.119 122.876  81.014  0.00  0.00    +0.000 A 
ATOM     17  C   UNL     1     104.198 123.877  81.326  0.00  0.00    +0.000 A 
ENDBRANCH  10  12
ENDBRANCH   1  10
TORSDOF 4
ENDMDL
