MODEL 1
REMARK VINA RESULT:      -4.4      0.000      0.000
REMARK  Name = *****
REMARK  3 active torsions:
REMARK  status: ('A' for Active; 'I' for Inactive)
REMARK    1  A    between atoms: C_6  and  C_7
REMARK    2  A    between atoms: C_7  and  O_8
REMARK    3  A    between atoms: O_8  and  C_9
REMARK                            x       y       z     vdW  Elec       q    Type
REMARK                         _______ _______ _______ _____ _____    ______ ____
ROOT
ATOM      1  C   UNL     1     102.705 125.485  82.740  0.00  0.00    +0.000 C 
ENDROOT
BRANCH   1   7
ATOM      2  C   UNL     1     104.186 123.745  81.645  0.00  0.00    +0.000 A 
ATOM      3  C   UNL     1     105.084 123.353  80.650  0.00  0.00    +0.000 A 
ATOM      4  C   UNL     1     105.459 124.262  79.667  0.00  0.00    +0.000 A 
ATOM      5  C   UNL     1     104.954 125.556  79.660  0.00  0.00    +0.000 A 
ATOM      6  C   UNL     1     104.057 125.950  80.653  0.00  0.00    +0.000 A 
ATOM      7  C   UNL     1     103.662 125.046  81.655  0.00  0.00    +0.000 A 
ATOM      8  F   UNL     1     106.322 123.884  78.715  0.00  0.00    +0.000 F 
ENDBRANCH   1   7
BRANCH   1   9
ATOM      9  O   UNL     1     101.457 125.827  82.140  0.00  0.00    +0.000 OA
BRANCH   9  10
ATOM     10  C   UNL     1     100.821 126.940  82.612  0.00  0.00    +0.000 A 
ATOM     11  C   UNL     1      99.451 127.196  82.545  0.00  0.00    +0.000 A 
ATOM     12  C   UNL     1      98.931 128.384  83.073  0.00  0.00    +0.000 A 
ATOM     13  C   UNL     1      99.783 129.315  83.664  0.00  0.00    +0.000 A 
ATOM     14  C   UNL     1     101.151 129.069  83.735  0.00  0.00    +0.000 A 
ATOM     15  C   UNL     1     101.666 127.883  83.207  0.00  0.00    +0.000 A 
ATOM     16 CL   UNL     1      99.139 130.773  84.311  0.00  0.00    +0.000 Cl
ENDBRANCH   9  10
ENDBRANCH   1   9
TORSDOF 3
ENDMDL
