MODEL 1
REMARK VINA RESULT:      -4.5      0.000      0.000
REMARK  Name = *****
REMARK  3 active torsions:
REMARK  status: ('A' for Active; 'I' for Inactive)
REMARK    1  A    between atoms: C_4  and  S_7
REMARK    2  A    between atoms: S_7  and  C_8
REMARK    3  A    between atoms: C_8  and  C_10
REMARK                            x       y       z     vdW  Elec       q    Type
REMARK                         _______ _______ _______ _____ _____    ______ ____
ROOT
ATOM      1  C   UNL     1     103.004 125.573  83.711  0.00  0.00    +0.000 C 
ATOM      2  O   UNL     1     102.514 125.018  84.688  0.00  0.00    +0.000 OA
ENDROOT
BRANCH   1   3
ATOM      3  C   UNL     1     103.653 124.759  82.636  0.00  0.00    +0.000 A 
ATOM      4  C   UNL     1     104.212 123.491  82.846  0.00  0.00    +0.000 A 
ATOM      5  C   UNL     1     104.793 122.799  81.781  0.00  0.00    +0.000 A 
ATOM      6  C   UNL     1     104.825 123.351  80.502  0.00  0.00    +0.000 A 
ATOM      7  C   UNL     1     104.271 124.608  80.281  0.00  0.00    +0.000 A 
ATOM      8  C   UNL     1     103.688 125.307  81.341  0.00  0.00    +0.000 A 
ATOM      9 CL   UNL     1     105.476 121.242  82.051  0.00  0.00    +0.000 Cl
ENDBRANCH   1   3
BRANCH   1  10
ATOM     10  S   UNL     1     102.943 127.322  83.511  0.00  0.00    +0.000 S 
BRANCH  10  14
ATOM     11  C   UNL     1      98.485 128.063  82.752  0.00  0.00    +0.000 A 
ATOM     12  C   UNL     1      99.251 129.043  83.382  0.00  0.00    +0.000 A 
ATOM     13  C   UNL     1     100.608 128.820  83.627  0.00  0.00    +0.000 A 
ATOM     14  C   UNL     1     101.205 127.612  83.250  0.00  0.00    +0.000 A 
ATOM     15  C   UNL     1     100.433 126.638  82.608  0.00  0.00    +0.000 A 
ATOM     16  C   UNL     1      99.075 126.861  82.364  0.00  0.00    +0.000 A 
ENDBRANCH  10  14
ENDBRANCH   1  10
TORSDOF 3
ENDMDL
