MODEL 1
REMARK VINA RESULT:      -4.5      0.000      0.000
REMARK  Name = *****
REMARK  3 active torsions:
REMARK  status: ('A' for Active; 'I' for Inactive)
REMARK    1  A    between atoms: C_4  and  S_7
REMARK    2  A    between atoms: S_7  and  N_9
REMARK    3  A    between atoms: N_9  and  C_10
REMARK                            x       y       z     vdW  Elec       q    Type
REMARK                         _______ _______ _______ _____ _____    ______ ____
ROOT
ATOM      1  N   UNL     1     102.546 125.463  82.014  0.00  0.00    +0.000 N 
ATOM      2  H   UNL     1     101.648 125.378  81.621  0.00  0.00    +0.000 HD
ENDROOT
BRANCH   1   3
ATOM      3  C   UNL     1     103.647 125.008  81.251  0.00  0.00    +0.000 A 
ATOM      4  C   UNL     1     104.200 123.728  81.396  0.00  0.00    +0.000 A 
ATOM      5  C   UNL     1     105.270 123.305  80.597  0.00  0.00    +0.000 A 
ATOM      6  C   UNL     1     105.803 124.152  79.629  0.00  0.00    +0.000 A 
ATOM      7  C   UNL     1     105.261 125.422  79.451  0.00  0.00    +0.000 A 
ATOM      8  C   UNL     1     104.192 125.840  80.249  0.00  0.00    +0.000 A 
ATOM      9 CL   UNL     1     103.561 127.434  79.994  0.00  0.00    +0.000 Cl
ENDBRANCH   1   3
BRANCH   1  10
ATOM     10  S   UNL     1     102.667 126.134  83.535  0.00  0.00    +0.000 S 
ATOM     11  O   UNL     1     102.342 125.115  84.584  0.00  0.00    +0.000 OA
BRANCH  10  15
ATOM     12  C   UNL     1      98.901 128.728  82.986  0.00  0.00    +0.000 A 
ATOM     13  C   UNL     1     100.009 129.249  83.654  0.00  0.00    +0.000 A 
ATOM     14  C   UNL     1     101.154 128.468  83.822  0.00  0.00    +0.000 A 
ATOM     15  C   UNL     1     101.195 127.162  83.323  0.00  0.00    +0.000 A 
ATOM     16  C   UNL     1     100.081 126.645  82.649  0.00  0.00    +0.000 A 
ATOM     17  C   UNL     1      98.936 127.428  82.483  0.00  0.00    +0.000 A 
ENDBRANCH  10  15
ENDBRANCH   1  10
TORSDOF 3
ENDMDL
