MODEL 1
REMARK VINA RESULT:      -4.4      0.000      0.000
REMARK  Name = *****
REMARK  3 active torsions:
REMARK  status: ('A' for Active; 'I' for Inactive)
REMARK    1  A    between atoms: C_2  and  C_3
REMARK    2  A    between atoms: C_8  and  C_9
REMARK    3  A    between atoms: C_10  and  C_11
REMARK                            x       y       z     vdW  Elec       q    Type
REMARK                         _______ _______ _______ _____ _____    ______ ____
ROOT
ATOM      1  C   UNL     1     101.330 128.245  83.255  0.00  0.00    +0.000 A 
ATOM      2  C   UNL     1     100.287 129.004  83.798  0.00  0.00    +0.000 A 
ATOM      3  C   UNL     1      98.957 128.629  83.590  0.00  0.00    +0.000 A 
ATOM      4  C   UNL     1      98.664 127.494  82.837  0.00  0.00    +0.000 A 
ATOM      5  C   UNL     1      99.699 126.731  82.292  0.00  0.00    +0.000 A 
ATOM      6  C   UNL     1     101.035 127.100  82.497  0.00  0.00    +0.000 A 
ENDROOT
BRANCH   1   8
ATOM      7  C   UNL     1     103.809 129.027  83.696  0.00  0.00    +0.000 C 
ATOM      8  C   UNL     1     102.681 128.668  83.495  0.00  0.00    +0.000 C 
ENDBRANCH   1   8
BRANCH   6   9
ATOM      9  C   UNL     1     102.065 126.287  81.920  0.00  0.00    +0.000 C 
ATOM     10  C   UNL     1     102.934 125.611  81.438  0.00  0.00    +0.000 C 
BRANCH  10  11
ATOM     11  C   UNL     1     103.973 124.818  80.862  0.00  0.00    +0.000 A 
ATOM     12  C   UNL     1     104.288 123.553  81.306  0.00  0.00    +0.000 A 
ATOM     13  S   UNL     1     105.578 122.863  80.417  0.00  0.00    +0.000 S 
ATOM     14  C   UNL     1     105.719 124.257  79.434  0.00  0.00    +0.000 A 
ATOM     15  C   UNL     1     104.801 125.227  79.777  0.00  0.00    +0.000 A 
ENDBRANCH  10  11
ENDBRANCH   6   9
TORSDOF 3
ENDMDL
