REMARK  Name = *****
REMARK  3 active torsions:
REMARK  status: ('A' for Active; 'I' for Inactive)
REMARK    1  A    between atoms: C_5  and  C_8
REMARK    2  A    between atoms: C_8  and  C_9
REMARK    3  A    between atoms: C_9  and  C_10
REMARK                            x       y       z     vdW  Elec       q    Type
REMARK                         _______ _______ _______ _____ _____    ______ ____
ROOT
ATOM      1  C   UNL     1      -0.391  -2.940   0.607  0.00  0.00    +0.000 C 
ENDROOT
BRANCH   1   6
ATOM      2  C   UNL     1       0.861   1.418   0.077  0.00  0.00    +0.000 C 
ATOM      3  C   UNL     1      -0.467   1.598   0.041  0.00  0.00    +0.000 C 
ATOM      4  C   UNL     1      -1.453   0.612  -0.338  0.00  0.00    +0.000 C 
ATOM      5  C   UNL     1      -1.367  -0.706  -0.096  0.00  0.00    +0.000 C 
ATOM      6  C   UNL     1      -0.213  -1.404   0.598  0.00  0.00    +0.000 C 
ATOM      7  C   UNL     1       1.123  -1.043  -0.024  0.00  0.00    +0.000 C 
ATOM      8  C   UNL     1       1.569   0.203  -0.252  0.00  0.00    +0.000 C 
ENDBRANCH   1   6
BRANCH   1   9
ATOM      9  C   UNL     1      -1.561  -3.401   1.487  0.00  0.00    +0.000 C 
BRANCH   9  10
ATOM     10  C   UNL     1      -1.648  -4.907   1.548  0.00  0.00    +0.000 A 
ATOM     11  C   UNL     1      -1.027  -5.613   2.587  0.00  0.00    +0.000 A 
ATOM     12  C   UNL     1      -1.095  -7.007   2.634  0.00  0.00    +0.000 A 
ATOM     13  C   UNL     1      -1.779  -7.706   1.641  0.00  0.00    +0.000 A 
ATOM     14  C   UNL     1      -2.394  -7.014   0.600  0.00  0.00    +0.000 A 
ATOM     15  C   UNL     1      -2.328  -5.620   0.552  0.00  0.00    +0.000 A 
ENDBRANCH   9  10
ENDBRANCH   1   9
TORSDOF 3
