REMARK  Name = *****
REMARK  4 active torsions:
REMARK  status: ('A' for Active; 'I' for Inactive)
REMARK    1  A    between atoms: C_1  and  C_2
REMARK    2  A    between atoms: C_4  and  N_8
REMARK    3  A    between atoms: N_8  and  C_9
REMARK    4  A    between atoms: C_9  and  C_10
REMARK                            x       y       z     vdW  Elec       q    Type
REMARK                         _______ _______ _______ _____ _____    ______ ____
ROOT
ATOM      1  N   UNL     1       5.223   2.649  -0.627  0.00  0.00    +0.000 NA
ENDROOT
BRANCH   1   5
ATOM      2  C   UNL     1       1.098   0.154   0.307  0.00  0.00    +0.000 C 
ATOM      3  C   UNL     1       2.569   0.197   0.017  0.00  0.00    +0.000 A 
ATOM      4  C   UNL     1       3.223   1.422  -0.161  0.00  0.00    +0.000 A 
ATOM      5  C   UNL     1       4.582   1.434  -0.461  0.00  0.00    +0.000 A 
ATOM      6  C   UNL     1       5.312   0.260  -0.602  0.00  0.00    +0.000 A 
ATOM      7  C   UNL     1       4.661  -0.962  -0.441  0.00  0.00    +0.000 A 
ATOM      8  C   UNL     1       3.296  -0.993  -0.139  0.00  0.00    +0.000 A 
ENDBRANCH   1   5
BRANCH   1   9
ATOM      9  C   UNL     1       5.740   3.628  -0.760  0.00  0.00    +0.000 C 
BRANCH   9  10
ATOM     10  C   UNL     1       6.403   4.884  -0.929  0.00  0.00    +0.000 A 
ATOM     11  C   UNL     1       5.856   6.043  -0.375  0.00  0.00    +0.000 A 
ATOM     12  C   UNL     1       6.504   7.269  -0.540  0.00  0.00    +0.000 A 
ATOM     13  C   UNL     1       7.698   7.336  -1.259  0.00  0.00    +0.000 A 
ATOM     14  C   UNL     1       8.245   6.179  -1.813  0.00  0.00    +0.000 A 
ATOM     15  C   UNL     1       7.598   4.952  -1.649  0.00  0.00    +0.000 A 
ENDBRANCH   9  10
ENDBRANCH   1   9
TORSDOF 3
