REMARK  Name = *****
REMARK  3 active torsions:
REMARK  status: ('A' for Active; 'I' for Inactive)
REMARK    1  A    between atoms: C_3  and  O_8
REMARK    2  A    between atoms: O_8  and  C_9
REMARK    3  A    between atoms: C_9  and  C_10
REMARK                            x       y       z     vdW  Elec       q    Type
REMARK                         _______ _______ _______ _____ _____    ______ ____
ROOT
ATOM      1  O   UNL     1       2.395   2.415   0.015  0.00  0.00    +0.000 OA
ENDROOT
BRANCH   1   4
ATOM      2  C   UNL     1       1.737  -1.151   0.057  0.00  0.00    +0.000 A 
ATOM      3  C   UNL     1       2.377   0.089   0.050  0.00  0.00    +0.000 A 
ATOM      4  C   UNL     1       1.638   1.276   0.019  0.00  0.00    +0.000 A 
ATOM      5  C   UNL     1       0.244   1.214  -0.006  0.00  0.00    +0.000 A 
ATOM      6  C   UNL     1      -0.392  -0.029   0.002  0.00  0.00    +0.000 A 
ATOM      7  C   UNL     1       0.345  -1.211   0.033  0.00  0.00    +0.000 A 
ATOM      8 CL   UNL     1      -2.113  -0.103  -0.027  0.00  0.00    +0.000 Cl
ENDBRANCH   1   4
BRANCH   1   9
ATOM      9  C   UNL     1       1.700   3.661  -0.006  0.00  0.00    +0.000 C 
BRANCH   9  10
ATOM     10  C   UNL     1       2.717   4.779  -0.029  0.00  0.00    +0.000 A 
ATOM     11  C   UNL     1       3.642   4.871  -1.083  0.00  0.00    +0.000 A 
ATOM     12  C   UNL     1       4.575   5.908  -1.118  0.00  0.00    +0.000 A 
ATOM     13  C   UNL     1       4.585   6.853  -0.100  0.00  0.00    +0.000 A 
ATOM     14  C   UNL     1       3.679   6.782   0.952  0.00  0.00    +0.000 A 
ATOM     15  C   UNL     1       2.745   5.746   0.989  0.00  0.00    +0.000 A 
ATOM     16  F   UNL     1       5.480   7.849  -0.133  0.00  0.00    +0.000 F 
ENDBRANCH   9  10
ENDBRANCH   1   9
TORSDOF 3
