MODEL 1
REMARK VINA RESULT:      -4.7      0.000      0.000
REMARK  Name = *****
REMARK  4 active torsions:
REMARK  status: ('A' for Active; 'I' for Inactive)
REMARK    1  A    between atoms: C_1  and  C_2
REMARK    2  A    between atoms: C_3  and  C_17
REMARK    3  A    between atoms: C_7  and  C_9
REMARK    4  A    between atoms: C_10  and  C_11
REMARK                            x       y       z     vdW  Elec       q    Type
REMARK                         _______ _______ _______ _____ _____    ______ ____
ROOT
ATOM      1  C   UNL     1      89.187  63.809  90.617  0.00  0.00    +0.000 C 
ATOM      2  C   UNL     1      88.206  64.223  89.548  0.00  0.00    +0.000 C 
ATOM      3  C   UNL     1      86.977  64.735  89.792  0.00  0.00    +0.000 C 
ATOM      4  C   UNL     1      85.956  65.060  88.723  0.00  0.00    +0.000 C 
ATOM      5  S   UNL     1      86.199  64.294  87.098  0.00  0.00    +0.000 S 
ATOM      6  O   UNL     1      86.007  62.809  87.221  0.00  0.00    +0.000 OA
ATOM      7  C   UNL     1      87.987  64.643  86.983  0.00  0.00    +0.000 C 
ATOM      8  C   UNL     1      88.728  63.968  88.145  0.00  0.00    +0.000 C 
ATOM      9  C   UNL     1      86.466  65.061  91.175  0.00  0.00    +0.000 C 
ENDROOT
BRANCH   7  10
ATOM     10  C   UNL     1      88.208  66.122  86.740  0.00  0.00    +0.000 C 
ATOM     11  C   UNL     1      89.357  66.724  86.385  0.00  0.00    +0.000 C 
BRANCH  11  12
ATOM     12  C   UNL     1      89.491  68.169  86.150  0.00  0.00    +0.000 A 
ATOM     13  C   UNL     1      89.371  69.113  87.178  0.00  0.00    +0.000 A 
ATOM     14  C   UNL     1      89.539  70.476  86.915  0.00  0.00    +0.000 A 
ATOM     15  C   UNL     1      89.841  70.908  85.626  0.00  0.00    +0.000 A 
ATOM     16  C   UNL     1      89.980  69.977  84.599  0.00  0.00    +0.000 A 
ATOM     17  C   UNL     1      89.812  68.615  84.861  0.00  0.00    +0.000 A 
ENDBRANCH  11  12
ENDBRANCH   7  10
TORSDOF 2
ENDMDL
