MODEL 1
REMARK VINA RESULT:      -4.1      0.000      0.000
REMARK  Name = *****
REMARK  3 active torsions:
REMARK  status: ('A' for Active; 'I' for Inactive)
REMARK    1  A    between atoms: C_3  and  O_8
REMARK    2  A    between atoms: O_8  and  C_9
REMARK    3  A    between atoms: C_9  and  C_11
REMARK                            x       y       z     vdW  Elec       q    Type
REMARK                         _______ _______ _______ _____ _____    ______ ____
ROOT
ATOM      1  O   UNL     1     102.795 126.996  82.892  0.00  0.00    +0.000 OA
ENDROOT
BRANCH   1   4
ATOM      2  C   UNL     1      99.860 129.104  83.558  0.00  0.00    +0.000 A 
ATOM      3  C   UNL     1     101.186 128.677  83.475  0.00  0.00    +0.000 A 
ATOM      4  C   UNL     1     101.468 127.428  82.921  0.00  0.00    +0.000 A 
ATOM      5  C   UNL     1     100.453 126.583  82.479  0.00  0.00    +0.000 A 
ATOM      6  C   UNL     1      99.139 127.025  82.568  0.00  0.00    +0.000 A 
ATOM      7  C   UNL     1      98.833 128.276  83.101  0.00  0.00    +0.000 A 
ATOM      8  F   UNL     1      98.147 126.231  82.144  0.00  0.00    +0.000 F 
ENDBRANCH   1   4
BRANCH   1   9
ATOM      9  C   UNL     1     103.315 126.839  81.607  0.00  0.00    +0.000 C 
ATOM     10  O   UNL     1     103.335 127.715  80.747  0.00  0.00    +0.000 OA
BRANCH   9  11
ATOM     11  C   UNL     1     103.823 125.485  81.464  0.00  0.00    +0.000 A 
ATOM     12  C   UNL     1     104.205 124.798  80.323  0.00  0.00    +0.000 A 
ATOM     13  C   UNL     1     104.652 123.474  80.604  0.00  0.00    +0.000 A 
ATOM     14  C   UNL     1     104.600 123.188  81.948  0.00  0.00    +0.000 A 
ATOM     15  S   UNL     1     104.015 124.508  82.862  0.00  0.00    +0.000 S 
ENDBRANCH   9  11
ENDBRANCH   1   9
TORSDOF 3
ENDMDL
