REMARK  Name = *****
REMARK  2 active torsions:
REMARK  status: ('A' for Active; 'I' for Inactive)
REMARK    1  A    between atoms: C_4  and  N_7
REMARK    2  A    between atoms: C_8  and  C_9
REMARK                            x       y       z     vdW  Elec       q    Type
REMARK                         _______ _______ _______ _____ _____    ______ ____
ROOT
ATOM      1  N   UNL     1      -2.724   0.395  -0.790  0.00  0.00    +0.000 NA
ATOM      2  C   UNL     1      -3.605  -0.345  -0.197  0.00  0.00    +0.000 C 
ENDROOT
BRANCH   2   3
ATOM      3  C   UNL     1      -5.045  -0.212  -0.483  0.00  0.00    +0.000 A 
ATOM      4  C   UNL     1      -5.508   0.733  -1.403  0.00  0.00    +0.000 A 
ATOM      5  C   UNL     1      -6.873   0.831  -1.647  0.00  0.00    +0.000 A 
ATOM      6  C   UNL     1      -7.781   0.008  -0.995  0.00  0.00    +0.000 A 
ATOM      7  C   UNL     1      -7.305  -0.926  -0.084  0.00  0.00    +0.000 A 
ATOM      8  C   UNL     1      -5.944  -1.048   0.182  0.00  0.00    +0.000 A 
ATOM      9  F   UNL     1      -8.170  -1.727   0.551  0.00  0.00    +0.000 F 
ATOM     10  F   UNL     1      -7.322   1.736  -2.527  0.00  0.00    +0.000 F 
ENDBRANCH   2   3
BRANCH   1  14
ATOM     11  C   UNL     1       1.283  -0.269   0.286  0.00  0.00    +0.000 A 
ATOM     12  C   UNL     1       0.697  -1.032  -0.723  0.00  0.00    +0.000 A 
ATOM     13  C   UNL     1      -0.634  -0.811  -1.081  0.00  0.00    +0.000 A 
ATOM     14  C   UNL     1      -1.390   0.165  -0.426  0.00  0.00    +0.000 A 
ATOM     15  C   UNL     1      -0.791   0.937   0.573  0.00  0.00    +0.000 A 
ATOM     16  C   UNL     1       0.540   0.718   0.933  0.00  0.00    +0.000 A 
ENDBRANCH   1  14
TORSDOF 2
