MODEL 1
REMARK VINA RESULT:      -4.8      0.000      0.000
REMARK  Name = *****
REMARK  3 active torsions:
REMARK  status: ('A' for Active; 'I' for Inactive)
REMARK    1  A    between atoms: C_6  and  C_7
REMARK    2  A    between atoms: C_7  and  C_8
REMARK    3  A    between atoms: C_8  and  C_10
REMARK                            x       y       z     vdW  Elec       q    Type
REMARK                         _______ _______ _______ _____ _____    ______ ____
ROOT
ATOM      1  C   UNL     1      89.848  66.692  86.515  0.00  0.00    +0.000 C 
ATOM      2 BR   UNL     1      91.002  65.696  85.282  0.00  0.00    +0.000 Br
ENDROOT
BRANCH   1   8
ATOM      3  C   UNL     1      89.567  69.185  86.978  0.00  0.00    +0.000 A 
ATOM      4  C   UNL     1      89.534  70.511  86.542  0.00  0.00    +0.000 A 
ATOM      5  C   UNL     1      89.733  70.796  85.199  0.00  0.00    +0.000 A 
ATOM      6  C   UNL     1      89.962  69.780  84.279  0.00  0.00    +0.000 A 
ATOM      7  C   UNL     1      89.997  68.453  84.712  0.00  0.00    +0.000 A 
ATOM      8  C   UNL     1      89.810  68.137  86.071  0.00  0.00    +0.000 A 
ATOM      9  F   UNL     1      89.700  72.068  84.780  0.00  0.00    +0.000 F 
ENDBRANCH   1   8
BRANCH   1  10
ATOM     10  C   UNL     1      88.491  66.005  86.573  0.00  0.00    +0.000 C 
ATOM     11  O   UNL     1      87.723  65.921  85.614  0.00  0.00    +0.000 OA
BRANCH  10  12
ATOM     12  C   UNL     1      88.045  65.417  87.874  0.00  0.00    +0.000 A 
ATOM     13  C   UNL     1      86.988  65.951  88.624  0.00  0.00    +0.000 A 
ATOM     14  C   UNL     1      86.617  65.355  89.833  0.00  0.00    +0.000 A 
ATOM     15  C   UNL     1      87.295  64.229  90.287  0.00  0.00    +0.000 A 
ATOM     16  C   UNL     1      88.339  63.682  89.553  0.00  0.00    +0.000 A 
ATOM     17  C   UNL     1      88.713  64.273  88.344  0.00  0.00    +0.000 A 
ATOM     18  F   UNL     1      86.934  63.665  91.446  0.00  0.00    +0.000 F 
ENDBRANCH  10  12
ENDBRANCH   1  10
TORSDOF 3
ENDMDL
