MODEL 1
REMARK VINA RESULT:      -4.5      0.000      0.000
REMARK  Name = *****
REMARK  5 active torsions:
REMARK  status: ('A' for Active; 'I' for Inactive)
REMARK    1  A    between atoms: C_1  and  C_2
REMARK    2  A    between atoms: C_5  and  S_8
REMARK    3  A    between atoms: S_8  and  O_10
REMARK    4  A    between atoms: O_10  and  C_11
REMARK    5  A    between atoms: C_11  and  C_12
REMARK                            x       y       z     vdW  Elec       q    Type
REMARK                         _______ _______ _______ _____ _____    ______ ____
ROOT
ATOM      1  S   UNL     1      89.546  66.920  85.630  0.00  0.00    +0.000 S 
ATOM      2  O   UNL     1      90.902  66.556  86.154  0.00  0.00    +0.000 OA
ENDROOT
BRANCH   1   7
ATOM      3  C   UNL     1      87.423  71.166  89.484  0.00  0.00    +0.000 C 
ATOM      4  C   UNL     1      87.922  70.149  88.501  0.00  0.00    +0.000 A 
ATOM      5  C   UNL     1      87.266  68.920  88.360  0.00  0.00    +0.000 A 
ATOM      6  C   UNL     1      87.758  67.955  87.478  0.00  0.00    +0.000 A 
ATOM      7  C   UNL     1      88.915  68.204  86.734  0.00  0.00    +0.000 A 
ATOM      8  C   UNL     1      89.575  69.428  86.876  0.00  0.00    +0.000 A 
ATOM      9  C   UNL     1      89.085  70.392  87.760  0.00  0.00    +0.000 A 
ENDBRANCH   1   7
BRANCH   1  10
ATOM     10  O   UNL     1      88.518  65.827  86.216  0.00  0.00    +0.000 OA
BRANCH  10  11
ATOM     11  C   UNL     1      89.127  64.614  86.625  0.00  0.00    +0.000 C 
BRANCH  11  12
ATOM     12  C   UNL     1      88.229  63.960  87.646  0.00  0.00    +0.000 A 
ATOM     13  C   UNL     1      87.330  62.960  87.246  0.00  0.00    +0.000 A 
ATOM     14  C   UNL     1      86.503  62.336  88.182  0.00  0.00    +0.000 A 
ATOM     15  C   UNL     1      86.578  62.703  89.524  0.00  0.00    +0.000 A 
ATOM     16  C   UNL     1      87.477  63.683  89.938  0.00  0.00    +0.000 A 
ATOM     17  C   UNL     1      88.304  64.308  89.002  0.00  0.00    +0.000 A 
ATOM     18 BR   UNL     1      85.457  61.860  90.791  0.00  0.00    +0.000 Br
ENDBRANCH  11  12
ENDBRANCH  10  11
ENDBRANCH   1  10
TORSDOF 4
ENDMDL
