REMARK  Name = *****
REMARK  3 active torsions:
REMARK  status: ('A' for Active; 'I' for Inactive)
REMARK    1  A    between atoms: C_5  and  C_7
REMARK    2  A    between atoms: C_7  and  O_9
REMARK    3  A    between atoms: O_9  and  C_10
REMARK                            x       y       z     vdW  Elec       q    Type
REMARK                         _______ _______ _______ _____ _____    ______ ____
ROOT
ATOM      1  C   UNL     1       0.906  -2.163  -0.719  0.00  0.00    +0.000 C 
ATOM      2  O   UNL     1       0.495  -3.307  -0.584  0.00  0.00    +0.000 OA
ENDROOT
BRANCH   1   7
ATOM      3  C   UNL     1      -1.902  -0.071   0.668  0.00  0.00    +0.000 A 
ATOM      4  C   UNL     1      -1.285   1.165   0.858  0.00  0.00    +0.000 A 
ATOM      5  C   UNL     1       0.063   1.324   0.539  0.00  0.00    +0.000 A 
ATOM      6  C   UNL     1       0.790   0.250   0.025  0.00  0.00    +0.000 A 
ATOM      7  C   UNL     1       0.182  -0.989  -0.181  0.00  0.00    +0.000 A 
ATOM      8  C   UNL     1      -1.172  -1.146   0.154  0.00  0.00    +0.000 A 
ATOM      9  F   UNL     1       2.089   0.448  -0.243  0.00  0.00    +0.000 F 
ENDBRANCH   1   7
BRANCH   1  10
ATOM     10  O   UNL     1       2.017  -1.761  -1.430  0.00  0.00    +0.000 OA
BRANCH  10  11
ATOM     11  C   UNL     1       2.763  -2.843  -1.904  0.00  0.00    +0.000 A 
ATOM     12  C   UNL     1       3.772  -3.416  -1.123  0.00  0.00    +0.000 A 
ATOM     13  C   UNL     1       4.524  -4.472  -1.636  0.00  0.00    +0.000 A 
ATOM     14  C   UNL     1       4.267  -4.934  -2.927  0.00  0.00    +0.000 A 
ATOM     15  C   UNL     1       3.272  -4.348  -3.713  0.00  0.00    +0.000 A 
ATOM     16  C   UNL     1       2.518  -3.291  -3.204  0.00  0.00    +0.000 A 
ATOM     17 CL   UNL     1       5.195  -6.236  -3.564  0.00  0.00    +0.000 Cl
ATOM     18 CL   UNL     1       4.121  -2.836   0.463  0.00  0.00    +0.000 Cl
ENDBRANCH  10  11
ENDBRANCH   1  10
TORSDOF 3
