MODEL 1
REMARK VINA RESULT:      -4.3      0.000      0.000
REMARK  Name = *****
REMARK  5 active torsions:
REMARK  status: ('A' for Active; 'I' for Inactive)
REMARK    1  A    between atoms: C_1  and  C_2
REMARK    2  A    between atoms: C_5  and  N_8
REMARK    3  A    between atoms: C_9  and  C_10
REMARK    4  A    between atoms: C_9  and  C_11
REMARK    5  A    between atoms: C_16  and  S_17
REMARK                            x       y       z     vdW  Elec       q    Type
REMARK                         _______ _______ _______ _____ _____    ______ ____
ROOT
ATOM      1  N   UNL     1     101.938 127.683  83.341  0.00  0.00    +0.000 NA
ATOM      2  C   UNL     1     100.640 127.760  83.282  0.00  0.00    +0.000 C 
ATOM      3  C   UNL     1      99.754 126.841  82.464  0.00  0.00    +0.000 C 
ENDROOT
BRANCH   1   8
ATOM      4  C   UNL     1     104.778 123.838  80.213  0.00  0.00    +0.000 C 
ATOM      5  C   UNL     1     104.003 124.834  81.023  0.00  0.00    +0.000 A 
ATOM      6  C   UNL     1     103.650 126.072  80.475  0.00  0.00    +0.000 A 
ATOM      7  C   UNL     1     102.961 127.014  81.243  0.00  0.00    +0.000 A 
ATOM      8  C   UNL     1     102.611 126.731  82.564  0.00  0.00    +0.000 A 
ATOM      9  C   UNL     1     102.992 125.512  83.124  0.00  0.00    +0.000 A 
ATOM     10  C   UNL     1     103.683 124.567  82.361  0.00  0.00    +0.000 A 
ENDBRANCH   1   8
BRANCH   2  11
ATOM     11  C   UNL     1      99.963 128.779  84.122  0.00  0.00    +0.000 A 
ATOM     12  C   UNL     1      99.804 130.052  83.552  0.00  0.00    +0.000 A 
ATOM     13  C   UNL     1      99.194 131.074  84.277  0.00  0.00    +0.000 A 
ATOM     14  C   UNL     1      98.731 130.825  85.566  0.00  0.00    +0.000 A 
ATOM     15  C   UNL     1      98.869 129.553  86.129  0.00  0.00    +0.000 A 
ATOM     16  C   UNL     1      99.488 128.513  85.416  0.00  0.00    +0.000 A 
BRANCH  16  17
ATOM     17  S   UNL     1      99.550 126.897  86.178  0.00  0.00    +0.000 S 
ATOM     18  H   UNL     1      98.601 126.098  85.623  0.00  0.00    +0.000 HD
ENDBRANCH  16  17
ENDBRANCH   2  11
TORSDOF 3
ENDMDL
