MODEL 1
REMARK VINA RESULT:      -5.0      0.000      0.000
REMARK  Name = *****
REMARK  5 active torsions:
REMARK  status: ('A' for Active; 'I' for Inactive)
REMARK    1  A    between atoms: C_1  and  C_2
REMARK    2  A    between atoms: C_5  and  C_8
REMARK    3  A    between atoms: C_8  and  O_10
REMARK    4  A    between atoms: O_10  and  C_11
REMARK    5  A    between atoms: C_15  and  C_17
REMARK                            x       y       z     vdW  Elec       q    Type
REMARK                         _______ _______ _______ _____ _____    ______ ____
ROOT
ATOM      1  C   UNL     1     103.154 126.720  81.740  0.00  0.00    +0.000 C 
ATOM      2  O   UNL     1     103.170 127.499  80.798  0.00  0.00    +0.000 OA
ENDROOT
BRANCH   1   7
ATOM      3  C   UNL     1     105.338 121.343  81.645  0.00  0.00    +0.000 C 
ATOM      4  C   UNL     1     104.752 122.724  81.647  0.00  0.00    +0.000 A 
ATOM      5  C   UNL     1     104.689 123.472  80.465  0.00  0.00    +0.000 A 
ATOM      6  C   UNL     1     104.171 124.771  80.471  0.00  0.00    +0.000 A 
ATOM      7  C   UNL     1     103.719 125.343  81.667  0.00  0.00    +0.000 A 
ATOM      8  C   UNL     1     103.796 124.601  82.853  0.00  0.00    +0.000 A 
ATOM      9  C   UNL     1     104.313 123.303  82.843  0.00  0.00    +0.000 A 
ENDBRANCH   1   7
BRANCH   1  10
ATOM     10  O   UNL     1     102.635 126.944  83.002  0.00  0.00    +0.000 OA
BRANCH  10  11
ATOM     11  C   UNL     1     101.306 127.377  83.011  0.00  0.00    +0.000 A 
ATOM     12  C   UNL     1     100.301 126.578  82.469  0.00  0.00    +0.000 A 
ATOM     13  C   UNL     1      98.993 127.058  82.446  0.00  0.00    +0.000 A 
ATOM     14  C   UNL     1      98.705 128.333  82.941  0.00  0.00    +0.000 A 
ATOM     15  C   UNL     1      99.726 129.149  83.452  0.00  0.00    +0.000 A 
ATOM     16  C   UNL     1     101.036 128.658  83.489  0.00  0.00    +0.000 A 
ATOM     17  C   UNL     1      99.405 130.504  84.010  0.00  0.00    +0.000 C 
ENDBRANCH  10  11
ENDBRANCH   1  10
TORSDOF 3
ENDMDL
