MODEL 1
REMARK VINA RESULT:      -4.4      0.000      0.000
REMARK  Name = *****
REMARK  3 active torsions:
REMARK  status: ('A' for Active; 'I' for Inactive)
REMARK    1  A    between atoms: C_4  and  C_7
REMARK    2  A    between atoms: C_7  and  C_8
REMARK    3  A    between atoms: C_8  and  C_11
REMARK                            x       y       z     vdW  Elec       q    Type
REMARK                         _______ _______ _______ _____ _____    ______ ____
ROOT
ATOM      1  C   UNL     1      87.088  63.696  88.197  0.00  0.00    +0.000 C 
ATOM      2  C   UNL     1      86.705  62.473  87.806  0.00  0.00    +0.000 C 
ATOM      3  F   UNL     1      86.733  61.400  88.617  0.00  0.00    +0.000 F 
ENDROOT
BRANCH   1   4
ATOM      4  C   UNL     1      87.555  63.924  89.579  0.00  0.00    +0.000 A 
ATOM      5  C   UNL     1      88.901  63.722  89.914  0.00  0.00    +0.000 A 
ATOM      6  C   UNL     1      89.353  63.958  91.215  0.00  0.00    +0.000 A 
ATOM      7  C   UNL     1      88.464  64.398  92.193  0.00  0.00    +0.000 A 
ATOM      8  C   UNL     1      87.123  64.599  91.874  0.00  0.00    +0.000 A 
ATOM      9  C   UNL     1      86.671  64.364  90.572  0.00  0.00    +0.000 A 
ENDBRANCH   1   4
BRANCH   1  10
ATOM     10  C   UNL     1      87.005  64.885  87.268  0.00  0.00    +0.000 C 
BRANCH  10  14
ATOM     11  C   UNL     1      90.832  66.117  85.690  0.00  0.00    +0.000 A 
ATOM     12  C   UNL     1      89.997  67.050  86.301  0.00  0.00    +0.000 A 
ATOM     13  C   UNL     1      88.761  66.652  86.815  0.00  0.00    +0.000 A 
ATOM     14  C   UNL     1      88.353  65.313  86.729  0.00  0.00    +0.000 A 
ATOM     15  C   UNL     1      89.198  64.385  86.104  0.00  0.00    +0.000 A 
ATOM     16  C   UNL     1      90.432  64.786  85.590  0.00  0.00    +0.000 A 
ENDBRANCH  10  14
ENDBRANCH   1  10
TORSDOF 3
ENDMDL
