MODEL 1
REMARK VINA RESULT:      -4.6      0.000      0.000
REMARK  Name = *****
REMARK  5 active torsions:
REMARK  status: ('A' for Active; 'I' for Inactive)
REMARK    1  A    between atoms: C_1  and  C_2
REMARK    2  A    between atoms: C_5  and  C_8
REMARK    3  A    between atoms: C_8  and  P_9
REMARK    4  A    between atoms: P_9  and  C_10
REMARK    5  A    between atoms: P_9  and  C_11
REMARK                            x       y       z     vdW  Elec       q    Type
REMARK                         _______ _______ _______ _____ _____    ______ ____
ROOT
ATOM      1  C   UNL     1     103.593 127.748  81.680  0.00  0.00    +0.000 C 
ENDROOT
BRANCH   1   6
ATOM      2  C   UNL     1     105.011 122.214  80.501  0.00  0.00    +0.000 C 
ATOM      3  C   UNL     1     104.677 123.642  80.814  0.00  0.00    +0.000 A 
ATOM      4  C   UNL     1     104.197 123.997  82.079  0.00  0.00    +0.000 A 
ATOM      5  C   UNL     1     103.856 125.322  82.362  0.00  0.00    +0.000 A 
ATOM      6  C   UNL     1     103.984 126.322  81.385  0.00  0.00    +0.000 A 
ATOM      7  C   UNL     1     104.440 125.954  80.109  0.00  0.00    +0.000 A 
ATOM      8  C   UNL     1     104.782 124.628  79.828  0.00  0.00    +0.000 A 
ENDBRANCH   1   6
BRANCH   1   9
ATOM      9  P   UNL     1     102.989 127.721  83.409  0.00  0.00    +0.000 P 
ATOM     10  C   UNL     1     103.398 129.423  83.958  0.00  0.00    +0.000 C 
BRANCH   9  11
ATOM     11  C   UNL     1     101.189 127.840  83.180  0.00  0.00    +0.000 A 
ATOM     12  C   UNL     1     100.438 128.959  83.564  0.00  0.00    +0.000 A 
ATOM     13  C   UNL     1      99.055 128.997  83.362  0.00  0.00    +0.000 A 
ATOM     14  C   UNL     1      98.405 127.914  82.775  0.00  0.00    +0.000 A 
ATOM     15  C   UNL     1      99.136 126.794  82.390  0.00  0.00    +0.000 A 
ATOM     16  C   UNL     1     100.519 126.758  82.592  0.00  0.00    +0.000 A 
ENDBRANCH   9  11
ENDBRANCH   1   9
TORSDOF 3
ENDMDL
