MODEL 1
REMARK VINA RESULT:      -4.7      0.000      0.000
REMARK  Name = *****
REMARK  2 active torsions:
REMARK  status: ('A' for Active; 'I' for Inactive)
REMARK    1  A    between atoms: C_5  and  C_6
REMARK    2  A    between atoms: C_7  and  C_8
REMARK                            x       y       z     vdW  Elec       q    Type
REMARK                         _______ _______ _______ _____ _____    ______ ____
ROOT
ATOM      1  C   UNL     1     105.364 121.200  82.837  0.00  0.00    +0.000 C 
ATOM      2  C   UNL     1     105.473 121.450  81.333  0.00  0.00    +0.000 C 
ATOM      3  C   UNL     1     105.724 122.926  81.018  0.00  0.00    +0.000 C 
ATOM      4  C   UNL     1     104.685 123.801  81.679  0.00  0.00    +0.000 C 
ATOM      5  C   UNL     1     103.949 124.672  80.967  0.00  0.00    +0.000 C 
ATOM      6  F   UNL     1     104.152 124.770  79.634  0.00  0.00    +0.000 F 
ATOM      7  C   UNL     1     104.563 123.580  83.169  0.00  0.00    +0.000 C 
ATOM      8  C   UNL     1     104.313 122.103  83.481  0.00  0.00    +0.000 C 
ENDROOT
BRANCH   5   9
ATOM      9  C   UNL     1     102.952 125.516  81.522  0.00  0.00    +0.000 C 
ATOM     10  C   UNL     1     102.106 126.228  81.991  0.00  0.00    +0.000 C 
BRANCH  10  11
ATOM     11  C   UNL     1     101.104 127.077  82.555  0.00  0.00    +0.000 A 
ATOM     12  C   UNL     1      99.750 126.775  82.383  0.00  0.00    +0.000 A 
ATOM     13  C   UNL     1      98.773 127.607  82.934  0.00  0.00    +0.000 A 
ATOM     14  C   UNL     1      99.147 128.740  83.656  0.00  0.00    +0.000 A 
ATOM     15  C   UNL     1     100.498 129.043  83.829  0.00  0.00    +0.000 A 
ATOM     16  C   UNL     1     101.476 128.213  83.280  0.00  0.00    +0.000 A 
ENDBRANCH  10  11
ENDBRANCH   5   9
TORSDOF 2
ENDMDL
