REMARK  Name = *****
REMARK  6 active torsions:
REMARK  status: ('A' for Active; 'I' for Inactive)
REMARK    1  A    between atoms: C_1  and  O_2
REMARK    2  A    between atoms: O_2  and  C_3
REMARK    3  A    between atoms: C_3  and  C_5
REMARK    4  A    between atoms: C_8  and  C_10
REMARK    5  A    between atoms: C_10  and  C_11
REMARK    6  A    between atoms: C_11  and  C_12
REMARK                            x       y       z     vdW  Elec       q    Type
REMARK                         _______ _______ _______ _____ _____    ______ ____
ROOT
ATOM      1  C   UNL     1       4.702   1.098  -0.815  0.00  0.00    +0.000 A 
ATOM      2  C   UNL     1       5.074   0.140   0.112  0.00  0.00    +0.000 A 
ATOM      3  C   UNL     1       6.404   0.325   0.589  0.00  0.00    +0.000 A 
ATOM      4  C   UNL     1       7.017   1.418   0.013  0.00  0.00    +0.000 A 
ATOM      5  S   UNL     1       5.978   2.208  -1.093  0.00  0.00    +0.000 S 
ENDROOT
BRANCH   1   6
ATOM      6  C   UNL     1       3.448   1.260  -1.527  0.00  0.00    +0.000 C 
ATOM      7  O   UNL     1       3.178   2.134  -2.343  0.00  0.00    +0.000 OA
BRANCH   6   9
ATOM      8  C   UNL     1       1.306   0.346  -1.801  0.00  0.00    +0.000 C 
ATOM      9  O   UNL     1       2.577   0.274  -1.154  0.00  0.00    +0.000 OA
ENDBRANCH   6   9
ENDBRANCH   1   6
BRANCH   4  10
ATOM     10  C   UNL     1       8.405   1.937   0.253  0.00  0.00    +0.000 C 
BRANCH  10  11
ATOM     11  C   UNL     1       9.418   1.294  -0.698  0.00  0.00    +0.000 C 
BRANCH  11  12
ATOM     12  C   UNL     1      10.816   1.806  -0.450  0.00  0.00    +0.000 A 
ATOM     13  C   UNL     1      11.655   1.165   0.472  0.00  0.00    +0.000 A 
ATOM     14  C   UNL     1      12.939   1.652   0.716  0.00  0.00    +0.000 A 
ATOM     15  C   UNL     1      13.395   2.785   0.045  0.00  0.00    +0.000 A 
ATOM     16  C   UNL     1      12.567   3.433  -0.870  0.00  0.00    +0.000 A 
ATOM     17  C   UNL     1      11.282   2.948  -1.115  0.00  0.00    +0.000 A 
ENDBRANCH  11  12
ENDBRANCH  10  11
ENDBRANCH   4  10
TORSDOF 5
