MODEL 1
REMARK VINA RESULT:      -3.2      0.000      0.000
REMARK  Name = *****
REMARK  4 active torsions:
REMARK  status: ('A' for Active; 'I' for Inactive)
REMARK    1  A    between atoms: C_5  and  C_6
REMARK    2  A    between atoms: C_6  and  S_14
REMARK    3  A    between atoms: C_7  and  C_8
REMARK    4  A    between atoms: C_7  and  S_13
REMARK                            x       y       z     vdW  Elec       q    Type
REMARK                         _______ _______ _______ _____ _____    ______ ____
ROOT
ATOM      1  C   UNL     1     102.104 127.929  83.069  0.00  0.00    +0.000 C 
ATOM      2  C   UNL     1     100.765 127.983  83.297  0.00  0.00    +0.000 C 
ENDROOT
BRANCH   1   7
ATOM      3  C   UNL     1     103.167 127.242  80.862  0.00  0.00    +0.000 A 
ATOM      4  C   UNL     1     103.762 126.143  80.282  0.00  0.00    +0.000 A 
ATOM      5  S   UNL     1     103.817 124.803  81.345  0.00  0.00    +0.000 S 
ATOM      6  C   UNL     1     103.042 125.685  82.590  0.00  0.00    +0.000 A 
ATOM      7  C   UNL     1     102.753 126.979  82.204  0.00  0.00    +0.000 A 
ENDBRANCH   1   7
BRANCH   2   8
ATOM      8  C   UNL     1     100.128 128.947  84.159  0.00  0.00    +0.000 A 
ATOM      9  C   UNL     1      99.937 128.738  85.511  0.00  0.00    +0.000 A 
ATOM     10  S   UNL     1      99.155 130.064  86.262  0.00  0.00    +0.000 S 
ATOM     11  C   UNL     1      99.063 130.920  84.782  0.00  0.00    +0.000 A 
ATOM     12  C   UNL     1      99.616 130.213  83.738  0.00  0.00    +0.000 A 
ENDBRANCH   2   8
BRANCH   2  13
ATOM     13  S   UNL     1      99.619 126.872  82.546  0.00  0.00    +0.000 S 
ATOM     14  H   UNL     1      98.604 126.613  83.413  0.00  0.00    +0.000 HD
ENDBRANCH   2  13
BRANCH   1  15
ATOM     15  S   UNL     1     103.216 129.055  83.846  0.00  0.00    +0.000 S 
ATOM     16  H   UNL     1     102.540 129.803  84.759  0.00  0.00    +0.000 HD
ENDBRANCH   1  15
TORSDOF 4
ENDMDL
