MODEL 1
REMARK VINA RESULT:      -4.3      0.000      0.000
REMARK  Name = *****
REMARK  3 active torsions:
REMARK  status: ('A' for Active; 'I' for Inactive)
REMARK    1  A    between atoms: C_4  and  N_7
REMARK    2  A    between atoms: N_7  and  P_8
REMARK    3  A    between atoms: P_8  and  C_9
REMARK                            x       y       z     vdW  Elec       q    Type
REMARK                         _______ _______ _______ _____ _____    ______ ____
ROOT
ATOM      1  P   UNL     1     102.634 125.682  82.967  0.00  0.00    +0.000 P 
ENDROOT
BRANCH   1   2
ATOM      2  C   UNL     1     103.717 125.209  81.632  0.00  0.00    +0.000 A 
ATOM      3  C   UNL     1     104.238 123.914  81.865  0.00  0.00    +0.000 A 
ATOM      4  C   UNL     1     105.121 123.300  80.971  0.00  0.00    +0.000 A 
ATOM      5  C   UNL     1     105.504 123.965  79.817  0.00  0.00    +0.000 A 
ATOM      6  C   UNL     1     105.002 125.241  79.567  0.00  0.00    +0.000 A 
ATOM      7  C   UNL     1     104.111 125.873  80.460  0.00  0.00    +0.000 A 
ATOM      8 CL   UNL     1     103.609 127.450  79.944  0.00  0.00    +0.000 Cl
ENDBRANCH   1   2
BRANCH   1   9
ATOM      9  N   UNL     1     101.322 125.992  82.254  0.00  0.00    +0.000 NA
BRANCH   9  13
ATOM     10  C   UNL     1      99.303 129.410  83.599  0.00  0.00    +0.000 A 
ATOM     11  C   UNL     1     100.678 129.296  83.784  0.00  0.00    +0.000 A 
ATOM     12  C   UNL     1     101.350 128.148  83.350  0.00  0.00    +0.000 A 
ATOM     13  C   UNL     1     100.668 127.075  82.742  0.00  0.00    +0.000 A 
ATOM     14  C   UNL     1      99.283 127.236  82.543  0.00  0.00    +0.000 A 
ATOM     15  C   UNL     1      98.605 128.382  82.975  0.00  0.00    +0.000 A 
ENDBRANCH   9  13
ENDBRANCH   1   9
TORSDOF 3
ENDMDL
