REMARK  Name = *****
REMARK  4 active torsions:
REMARK  status: ('A' for Active; 'I' for Inactive)
REMARK    1  A    between atoms: C_1  and  C_2
REMARK    2  A    between atoms: C_2  and  C_11
REMARK    3  A    between atoms: N_3  and  C_4
REMARK    4  A    between atoms: C_4  and  C_5
REMARK                            x       y       z     vdW  Elec       q    Type
REMARK                         _______ _______ _______ _____ _____    ______ ____
ROOT
ATOM      1  C   UNL     1       0.957  -0.069   0.058  0.00  0.00    +0.000 C 
ATOM      2  C   UNL     1       2.474  -0.072   0.001  0.00  0.00    +0.000 C 
ATOM      3  N   UNL     1       3.169  -0.886  -0.722  0.00  0.00    +0.000 NA
ENDROOT
BRANCH   2   4
ATOM      4  C   UNL     1       3.222   0.942   0.841  0.00  0.00    +0.000 C 
ATOM      5  C   UNL     1       2.583   1.841   1.614  0.00  0.00    +0.000 C 
ATOM      6  C   UNL     1       3.292   2.880   2.436  0.00  0.00    +0.000 C 
ATOM      7  C   UNL     1       4.767   3.041   2.073  0.00  0.00    +0.000 C 
ATOM      8  C   UNL     1       5.429   1.684   1.877  0.00  0.00    +0.000 C 
ATOM      9  C   UNL     1       4.732   0.883   0.773  0.00  0.00    +0.000 C 
ENDBRANCH   2   4
BRANCH   3  10
ATOM     10  C   UNL     1       2.520  -1.899  -1.546  0.00  0.00    +0.000 C 
BRANCH  10  11
ATOM     11  C   UNL     1       3.534  -2.743  -2.284  0.00  0.00    +0.000 A 
ATOM     12  C   UNL     1       3.528  -4.140  -2.169  0.00  0.00    +0.000 A 
ATOM     13  C   UNL     1       4.454  -4.914  -2.871  0.00  0.00    +0.000 A 
ATOM     14  C   UNL     1       5.393  -4.301  -3.698  0.00  0.00    +0.000 A 
ATOM     15  C   UNL     1       5.409  -2.913  -3.823  0.00  0.00    +0.000 A 
ATOM     16  C   UNL     1       4.484  -2.139  -3.121  0.00  0.00    +0.000 A 
ENDBRANCH  10  11
ENDBRANCH   3  10
TORSDOF 3
