REMARK  Name = *****
REMARK  5 active torsions:
REMARK  status: ('A' for Active; 'I' for Inactive)
REMARK    1  A    between atoms: C_1  and  C_2
REMARK    2  A    between atoms: C_3  and  C_20
REMARK    3  A    between atoms: C_5  and  O_8
REMARK    4  A    between atoms: O_8  and  C_9
REMARK    5  A    between atoms: C_9  and  C_11
REMARK                            x       y       z     vdW  Elec       q    Type
REMARK                         _______ _______ _______ _____ _____    ______ ____
ROOT
ATOM      1  C   UNL     1      -4.245  -0.535  -0.297  0.00  0.00    +0.000 C 
ATOM      2  O   UNL     1      -4.159   0.074  -1.353  0.00  0.00    +0.000 OA
ENDROOT
BRANCH   1   3
ATOM      3  C   UNL     1      -5.505  -1.179   0.137  0.00  0.00    +0.000 A 
ATOM      4  C   UNL     1      -5.779  -1.482   1.472  0.00  0.00    +0.000 A 
ATOM      5  C   UNL     1      -6.985  -2.084   1.819  0.00  0.00    +0.000 A 
ATOM      6  C   UNL     1      -7.925  -2.380   0.840  0.00  0.00    +0.000 A 
ATOM      7  C   UNL     1      -7.677  -2.074  -0.494  0.00  0.00    +0.000 A 
ATOM      8  C   UNL     1      -6.468  -1.470  -0.847  0.00  0.00    +0.000 A 
ATOM      9  F   UNL     1      -9.086  -2.959   1.175  0.00  0.00    +0.000 F 
ATOM     10  F   UNL     1      -7.242  -2.374   3.103  0.00  0.00    +0.000 F 
ATOM     11  F   UNL     1      -4.910  -1.181   2.448  0.00  0.00    +0.000 F 
ENDBRANCH   1   3
BRANCH   1  12
ATOM     12  O   UNL     1      -3.237  -0.808   0.604  0.00  0.00    +0.000 OA
BRANCH  12  17
ATOM     13  C   UNL     1       1.981   1.270  -0.362  0.00  0.00    +0.000 C 
ATOM     14  C   UNL     1       0.607   0.707  -0.119  0.00  0.00    +0.000 A 
ATOM     15  C   UNL     1       0.404  -0.676   0.074  0.00  0.00    +0.000 A 
ATOM     16  C   UNL     1      -0.897  -1.154   0.296  0.00  0.00    +0.000 A 
ATOM     17  C   UNL     1      -1.974  -0.270   0.317  0.00  0.00    +0.000 A 
ATOM     18  C   UNL     1      -1.780   1.098   0.159  0.00  0.00    +0.000 A 
ATOM     19  C   UNL     1      -0.492   1.581  -0.068  0.00  0.00    +0.000 A 
ATOM     20  C   UNL     1       1.550  -1.650   0.043  0.00  0.00    +0.000 C 
ENDBRANCH  12  17
ENDBRANCH   1  12
TORSDOF 3
