REMARK  Name = *****
REMARK  2 active torsions:
REMARK  status: ('A' for Active; 'I' for Inactive)
REMARK    1  A    between atoms: C_4  and  N_7
REMARK    2  A    between atoms: C_8  and  C_9
REMARK                            x       y       z     vdW  Elec       q    Type
REMARK                         _______ _______ _______ _____ _____    ______ ____
ROOT
ATOM      1  N   UNL     1      -2.710   0.396  -0.795  0.00  0.00    +0.000 NA
ATOM      2  C   UNL     1      -3.596  -0.334  -0.193  0.00  0.00    +0.000 C 
ENDROOT
BRANCH   2   3
ATOM      3  C   UNL     1      -5.033  -0.200  -0.480  0.00  0.00    +0.000 A 
ATOM      4  C   UNL     1      -5.502   0.735  -1.408  0.00  0.00    +0.000 A 
ATOM      5  C   UNL     1      -6.873   0.837  -1.657  0.00  0.00    +0.000 A 
ATOM      6  C   UNL     1      -7.772   0.008  -0.983  0.00  0.00    +0.000 A 
ATOM      7  C   UNL     1      -7.303  -0.924  -0.057  0.00  0.00    +0.000 A 
ATOM      8  C   UNL     1      -5.936  -1.024   0.190  0.00  0.00    +0.000 A 
ATOM      9  F   UNL     1      -5.505  -1.927   1.083  0.00  0.00    +0.000 F 
ENDBRANCH   2   3
BRANCH   1  13
ATOM     10  C   UNL     1       1.295  -0.265   0.290  0.00  0.00    +0.000 A 
ATOM     11  C   UNL     1       0.700  -1.056  -0.693  0.00  0.00    +0.000 A 
ATOM     12  C   UNL     1      -0.631  -0.836  -1.053  0.00  0.00    +0.000 A 
ATOM     13  C   UNL     1      -1.377   0.165  -0.427  0.00  0.00    +0.000 A 
ATOM     14  C   UNL     1      -0.770   0.963   0.546  0.00  0.00    +0.000 A 
ATOM     15  C   UNL     1       0.561   0.747   0.908  0.00  0.00    +0.000 A 
ENDBRANCH   1  13
TORSDOF 2
