MODEL 1
REMARK VINA RESULT:      -4.8      0.000      0.000
REMARK  Name = *****
REMARK  5 active torsions:
REMARK  status: ('A' for Active; 'I' for Inactive)
REMARK    1  A    between atoms: C_1  and  C_2
REMARK    2  A    between atoms: C_3  and  O_16
REMARK    3  A    between atoms: C_6  and  C_8
REMARK    4  A    between atoms: C_9  and  C_10
REMARK    5  A    between atoms: O_16  and  C_17
REMARK                            x       y       z     vdW  Elec       q    Type
REMARK                         _______ _______ _______ _____ _____    ______ ____
ROOT
ATOM      1  C   UNL     1     106.214 124.568  78.419  0.00  0.00    +0.000 C 
ATOM      2  C   UNL     1     105.559 124.226  79.729  0.00  0.00    +0.000 A 
ATOM      3  C   UNL     1     105.992 123.145  80.519  0.00  0.00    +0.000 A 
ATOM      4  C   UNL     1     105.371 122.897  81.748  0.00  0.00    +0.000 A 
ATOM      5  C   UNL     1     104.325 123.713  82.193  0.00  0.00    +0.000 A 
ATOM      6  C   UNL     1     103.895 124.786  81.416  0.00  0.00    +0.000 A 
ATOM      7  C   UNL     1     104.516 125.047  80.194  0.00  0.00    +0.000 A 
ENDROOT
BRANCH   6   8
ATOM      8  C   UNL     1     102.819 125.614  81.865  0.00  0.00    +0.000 C 
ATOM      9  C   UNL     1     101.901 126.300  82.226  0.00  0.00    +0.000 C 
BRANCH   9  10
ATOM     10  C   UNL     1     100.794 127.106  82.637  0.00  0.00    +0.000 A 
ATOM     11  C   UNL     1      99.490 126.710  82.333  0.00  0.00    +0.000 A 
ATOM     12  C   UNL     1      98.409 127.504  82.721  0.00  0.00    +0.000 A 
ATOM     13  C   UNL     1      98.631 128.694  83.414  0.00  0.00    +0.000 A 
ATOM     14  C   UNL     1      99.933 129.090  83.721  0.00  0.00    +0.000 A 
ATOM     15  C   UNL     1     101.014 128.297  83.334  0.00  0.00    +0.000 A 
ENDBRANCH   9  10
ENDBRANCH   6   8
BRANCH   3  16
ATOM     16  O   UNL     1     107.028 122.405  80.011  0.00  0.00    +0.000 OA
ATOM     17  C   UNL     1     107.670 121.491  80.891  0.00  0.00    +0.000 C 
ENDBRANCH   3  16
TORSDOF 3
ENDMDL
