MODEL 1
REMARK VINA RESULT:      -4.5      0.000      0.000
REMARK  Name = *****
REMARK  4 active torsions:
REMARK  status: ('A' for Active; 'I' for Inactive)
REMARK    1  A    between atoms: C_4  and  C_7
REMARK    2  A    between atoms: C_7  and  O_9
REMARK    3  A    between atoms: O_9  and  C_10
REMARK    4  A    between atoms: C_10  and  C_11
REMARK                            x       y       z     vdW  Elec       q    Type
REMARK                         _______ _______ _______ _____ _____    ______ ____
ROOT
ATOM      1  C   UNL     1     104.545 124.504  80.077  0.00  0.00    +0.000 C 
ATOM      2  O   UNL     1     105.440 124.749  79.282  0.00  0.00    +0.000 OA
ENDROOT
BRANCH   1   6
ATOM      3  C   UNL     1     104.324 121.216  82.924  0.00  0.00    +0.000 C 
ATOM      4  C   UNL     1     104.770 122.571  83.462  0.00  0.00    +0.000 C 
ATOM      5  C   UNL     1     104.339 123.708  82.529  0.00  0.00    +0.000 C 
ATOM      6  C   UNL     1     104.582 123.399  81.075  0.00  0.00    +0.000 C 
ATOM      7  C   UNL     1     104.856 122.156  80.636  0.00  0.00    +0.000 C 
ATOM      8  C   UNL     1     104.904 120.955  81.534  0.00  0.00    +0.000 C 
ENDBRANCH   1   6
BRANCH   1   9
ATOM      9  O   UNL     1     103.374 125.175  80.180  0.00  0.00    +0.000 OA
BRANCH   9  10
ATOM     10  C   UNL     1     103.532 126.585  80.353  0.00  0.00    +0.000 C 
BRANCH  10  11
ATOM     11  C   UNL     1     102.772 126.995  81.590  0.00  0.00    +0.000 A 
ATOM     12  C   UNL     1     103.164 128.128  82.318  0.00  0.00    +0.000 A 
ATOM     13  C   UNL     1     102.465 128.509  83.466  0.00  0.00    +0.000 A 
ATOM     14  C   UNL     1     101.371 127.761  83.897  0.00  0.00    +0.000 A 
ATOM     15  C   UNL     1     100.975 126.631  83.183  0.00  0.00    +0.000 A 
ATOM     16  C   UNL     1     101.673 126.249  82.036  0.00  0.00    +0.000 A 
ENDBRANCH  10  11
ENDBRANCH   9  10
ENDBRANCH   1   9
TORSDOF 4
ENDMDL
