REMARK  Name = *****
REMARK  2 active torsions:
REMARK  status: ('A' for Active; 'I' for Inactive)
REMARK    1  A    between atoms: C_4  and  C_7
REMARK    2  A    between atoms: C_7  and  P_9
REMARK                            x       y       z     vdW  Elec       q    Type
REMARK                         _______ _______ _______ _____ _____    ______ ____
ROOT
ATOM      1  C   UNL     1      -3.409  -0.629  -0.291  0.00  0.00    +0.000 C 
ATOM      2  C   UNL     1      -4.689  -0.923  -0.355  0.00  0.00    +0.000 C 
ATOM      3  C   UNL     1      -6.051  -1.399  -0.439  0.00  0.00    +0.000 C 
ATOM      4  C   UNL     1      -6.809  -1.566   0.727  0.00  0.00    +0.000 C 
ATOM      5  C   UNL     1      -8.138  -1.991   0.652  0.00  0.00    +0.000 C 
ATOM      6  C   UNL     1      -8.722  -2.240  -0.589  0.00  0.00    +0.000 C 
ATOM      7  C   UNL     1      -7.984  -2.056  -1.757  0.00  0.00    +0.000 C 
ATOM      8  C   UNL     1      -6.657  -1.628  -1.683  0.00  0.00    +0.000 C 
ENDROOT
BRANCH   1  12
ATOM      9  C   UNL     1       0.756   0.169  -0.115  0.00  0.00    +0.000 A 
ATOM     10  C   UNL     1       0.085   0.219  -1.335  0.00  0.00    +0.000 A 
ATOM     11  C   UNL     1      -1.284  -0.050  -1.391  0.00  0.00    +0.000 A 
ATOM     12  C   UNL     1      -1.990  -0.386  -0.227  0.00  0.00    +0.000 A 
ATOM     13  C   UNL     1      -1.309  -0.415   0.997  0.00  0.00    +0.000 A 
ATOM     14  C   UNL     1       0.060  -0.144   1.052  0.00  0.00    +0.000 A 
ENDBRANCH   1  12
BRANCH   1  15
ATOM     15  P   UNL     1      -3.638  -2.448  -0.439  0.00  0.00    +0.000 P 
ATOM     16  H   UNL     1      -3.485  -3.307   0.630  0.00  0.00    +0.000 HD
ENDBRANCH   1  15
TORSDOF 2
