MODEL 1
REMARK VINA RESULT:      -4.3      0.000      0.000
REMARK  Name = *****
REMARK  4 active torsions:
REMARK  status: ('A' for Active; 'I' for Inactive)
REMARK    1  A    between atoms: C_1  and  C_2
REMARK    2  A    between atoms: C_6  and  C_9
REMARK    3  A    between atoms: C_9  and  S_10
REMARK    4  A    between atoms: S_10  and  C_11
REMARK                            x       y       z     vdW  Elec       q    Type
REMARK                         _______ _______ _______ _____ _____    ______ ____
ROOT
ATOM      1  C   UNL     1      88.566  64.777  85.445  0.00  0.00    +0.000 C 
ATOM      2  C   UNL     1      89.134  65.312  86.755  0.00  0.00    +0.000 C 
ATOM      3  C   UNL     1      88.208  65.079  87.949  0.00  0.00    +0.000 C 
ATOM      4  C   UNL     1      86.997  66.007  87.958  0.00  0.00    +0.000 C 
ATOM      5  C   UNL     1      87.426  67.472  87.898  0.00  0.00    +0.000 C 
ATOM      6  C   UNL     1      88.278  67.769  86.656  0.00  0.00    +0.000 C 
ATOM      7  C   UNL     1      89.456  66.794  86.620  0.00  0.00    +0.000 C 
ATOM      8  O   UNL     1      90.610  67.164  86.403  0.00  0.00    +0.000 OA
ENDROOT
BRANCH   6   9
ATOM      9  C   UNL     1      88.800  69.214  86.620  0.00  0.00    +0.000 C 
BRANCH   9  10
ATOM     10  S   UNL     1      88.316  70.157  88.113  0.00  0.00    +0.000 S 
BRANCH  10  11
ATOM     11  C   UNL     1      86.888  71.019  87.481  0.00  0.00    +0.000 A 
ATOM     12  C   UNL     1      86.687  71.195  86.109  0.00  0.00    +0.000 A 
ATOM     13  C   UNL     1      85.552  71.863  85.643  0.00  0.00    +0.000 A 
ATOM     14  C   UNL     1      84.609  72.351  86.546  0.00  0.00    +0.000 A 
ATOM     15  C   UNL     1      84.796  72.167  87.915  0.00  0.00    +0.000 A 
ATOM     16  C   UNL     1      85.930  71.499  88.381  0.00  0.00    +0.000 A 
ENDBRANCH  10  11
ENDBRANCH   9  10
ENDBRANCH   6   9
TORSDOF 3
ENDMDL
