MODEL 1
REMARK VINA RESULT:      -4.8      0.000      0.000
REMARK  Name = *****
REMARK  2 active torsions:
REMARK  status: ('A' for Active; 'I' for Inactive)
REMARK    1  A    between atoms: C_1  and  C_2
REMARK    2  A    between atoms: C_4  and  N_8
REMARK                            x       y       z     vdW  Elec       q    Type
REMARK                         _______ _______ _______ _____ _____    ______ ____
ROOT
ATOM      1  N   UNL     1     102.819 126.419  81.772  0.00  0.00    +0.000 N 
ATOM      2  C   UNL     1     103.102 125.020  82.140  0.00  0.00    +0.000 C 
ATOM      3  C   UNL     1     104.155 124.512  81.195  0.00  0.00    +0.000 A 
ATOM      4  C   UNL     1     104.706 123.235  81.197  0.00  0.00    +0.000 A 
ATOM      5  C   UNL     1     105.680 122.919  80.247  0.00  0.00    +0.000 A 
ATOM      6  C   UNL     1     106.092 123.874  79.307  0.00  0.00    +0.000 A 
ATOM      7  C   UNL     1     105.534 125.154  79.310  0.00  0.00    +0.000 A 
ATOM      8  C   UNL     1     104.569 125.458  80.257  0.00  0.00    +0.000 A 
ATOM      9  S   UNL     1     103.717 126.991  80.469  0.00  0.00    +0.000 S 
ENDROOT
BRANCH   1  13
ATOM     10  C   UNL     1      98.065 127.222  83.052  0.00  0.00    +0.000 C 
ATOM     11  C   UNL     1      99.514 127.600  83.135  0.00  0.00    +0.000 A 
ATOM     12  C   UNL     1     100.483 126.851  82.442  0.00  0.00    +0.000 A 
ATOM     13  C   UNL     1     101.854 127.177  82.458  0.00  0.00    +0.000 A 
ATOM     14  C   UNL     1     102.207 128.317  83.205  0.00  0.00    +0.000 A 
ATOM     15  C   UNL     1     101.254 129.084  83.887  0.00  0.00    +0.000 A 
ATOM     16  C   UNL     1      99.911 128.730  83.848  0.00  0.00    +0.000 A 
ENDBRANCH   1  13
TORSDOF 1
ENDMDL
