MODEL 1
REMARK VINA RESULT:      -4.8      0.000      0.000
REMARK  Name = *****
REMARK  5 active torsions:
REMARK  status: ('A' for Active; 'I' for Inactive)
REMARK    1  A    between atoms: C_1  and  C_2
REMARK    2  A    between atoms: C_4  and  C_8
REMARK    3  A    between atoms: N_9  and  C_10
REMARK    4  A    between atoms: C_11  and  C_17
REMARK    5  A    between atoms: C_15  and  C_16
REMARK                            x       y       z     vdW  Elec       q    Type
REMARK                         _______ _______ _______ _____ _____    ______ ____
ROOT
ATOM      1  C   UNL     1     102.357 127.056  82.119  0.00  0.00    +0.000 C 
ATOM      2  N   UNL     1     101.808 127.169  83.286  0.00  0.00    +0.000 NA
ENDROOT
BRANCH   2   3
ATOM      3  C   UNL     1     101.047 128.332  83.527  0.00  0.00    +0.000 A 
ATOM      4  C   UNL     1      99.680 128.420  83.186  0.00  0.00    +0.000 A 
ATOM      5  C   UNL     1      98.977 129.609  83.439  0.00  0.00    +0.000 A 
ATOM      6  C   UNL     1      99.599 130.683  84.071  0.00  0.00    +0.000 A 
ATOM      7  C   UNL     1     100.933 130.582  84.455  0.00  0.00    +0.000 A 
ATOM      8  C   UNL     1     101.665 129.414  84.190  0.00  0.00    +0.000 A 
ATOM      9  C   UNL     1     103.096 129.318  84.642  0.00  0.00    +0.000 C 
ATOM     10  C   UNL     1      98.947 127.289  82.518  0.00  0.00    +0.000 C 
ENDBRANCH   2   3
BRANCH   1  14
ATOM     11  C   UNL     1     104.531 122.694  83.322  0.00  0.00    +0.000 C 
ATOM     12  C   UNL     1     104.188 123.756  82.321  0.00  0.00    +0.000 A 
ATOM     13  C   UNL     1     103.427 124.873  82.688  0.00  0.00    +0.000 A 
ATOM     14  C   UNL     1     103.154 125.872  81.749  0.00  0.00    +0.000 A 
ATOM     15  C   UNL     1     103.627 125.766  80.439  0.00  0.00    +0.000 A 
ATOM     16  C   UNL     1     104.368 124.646  80.065  0.00  0.00    +0.000 A 
ATOM     17  C   UNL     1     104.651 123.648  81.002  0.00  0.00    +0.000 A 
ENDBRANCH   1  14
TORSDOF 2
ENDMDL
