MODEL 1
REMARK VINA RESULT:      -4.7      0.000      0.000
REMARK  Name = *****
REMARK  2 active torsions:
REMARK  status: ('A' for Active; 'I' for Inactive)
REMARK    1  A    between atoms: C_4  and  N_7
REMARK    2  A    between atoms: C_8  and  C_9
REMARK                            x       y       z     vdW  Elec       q    Type
REMARK                         _______ _______ _______ _____ _____    ______ ____
ROOT
ATOM      1  N   UNL     1     101.593 125.906  82.232  0.00  0.00    +0.000 NA
ATOM      2  C   UNL     1     102.708 126.256  81.674  0.00  0.00    +0.000 C 
ENDROOT
BRANCH   2   3
ATOM      3  C   UNL     1     103.676 125.259  81.179  0.00  0.00    +0.000 A 
ATOM      4  C   UNL     1     104.320 125.437  79.952  0.00  0.00    +0.000 A 
ATOM      5  C   UNL     1     105.225 124.476  79.520  0.00  0.00    +0.000 A 
ATOM      6  C   UNL     1     105.498 123.347  80.287  0.00  0.00    +0.000 A 
ATOM      7  C   UNL     1     104.854 123.171  81.512  0.00  0.00    +0.000 A 
ATOM      8  C   UNL     1     103.940 124.128  81.960  0.00  0.00    +0.000 A 
ATOM      9  F   UNL     1     105.848 124.636  78.346  0.00  0.00    +0.000 F 
ENDBRANCH   2   3
BRANCH   1  13
ATOM     10  C   UNL     1      99.114 129.065  83.468  0.00  0.00    +0.000 A 
ATOM     11  C   UNL     1     100.488 129.129  83.696  0.00  0.00    +0.000 A 
ATOM     12  C   UNL     1     101.312 128.078  83.285  0.00  0.00    +0.000 A 
ATOM     13  C   UNL     1     100.767 126.957  82.655  0.00  0.00    +0.000 A 
ATOM     14  C   UNL     1      99.392 126.908  82.416  0.00  0.00    +0.000 A 
ATOM     15  C   UNL     1      98.565 127.956  82.824  0.00  0.00    +0.000 A 
ENDBRANCH   1  13
TORSDOF 2
ENDMDL
