MODEL 1
REMARK VINA RESULT:      -4.4      0.000      0.000
REMARK  Name = *****
REMARK  4 active torsions:
REMARK  status: ('A' for Active; 'I' for Inactive)
REMARK    1  A    between atoms: C_1  and  C_2
REMARK    2  A    between atoms: C_5  and  C_8
REMARK    3  A    between atoms: C_8  and  C_16
REMARK    4  A    between atoms: N_9  and  C_10
REMARK                            x       y       z     vdW  Elec       q    Type
REMARK                         _______ _______ _______ _____ _____    ______ ____
ROOT
ATOM      1  C   UNL     1      87.426  63.536  88.386  0.00  0.00    +0.000 C 
ATOM      2  N   UNL     1      87.773  64.245  87.368  0.00  0.00    +0.000 NA
ATOM      3  C   UNL     1      86.745  62.213  88.126  0.00  0.00    +0.000 C 
ENDROOT
BRANCH   1   8
ATOM      4  C   UNL     1      88.187  64.845  93.948  0.00  0.00    +0.000 C 
ATOM      5  C   UNL     1      87.994  64.534  92.492  0.00  0.00    +0.000 A 
ATOM      6  C   UNL     1      89.077  64.100  91.714  0.00  0.00    +0.000 A 
ATOM      7  C   UNL     1      88.897  63.778  90.368  0.00  0.00    +0.000 A 
ATOM      8  C   UNL     1      87.626  63.888  89.805  0.00  0.00    +0.000 A 
ATOM      9  C   UNL     1      86.533  64.301  90.567  0.00  0.00    +0.000 A 
ATOM     10  C   UNL     1      86.720  64.619  91.912  0.00  0.00    +0.000 A 
ENDBRANCH   1   8
BRANCH   2  11
ATOM     11  C   UNL     1      88.404  65.555  87.522  0.00  0.00    +0.000 C 
ATOM     12  C   UNL     1      87.307  66.622  87.410  0.00  0.00    +0.000 C 
ATOM     13  C   UNL     1      87.892  68.031  87.410  0.00  0.00    +0.000 C 
ATOM     14  C   UNL     1      88.942  68.204  86.317  0.00  0.00    +0.000 C 
ATOM     15  C   UNL     1      90.032  67.139  86.408  0.00  0.00    +0.000 C 
ATOM     16  C   UNL     1      89.442  65.731  86.409  0.00  0.00    +0.000 C 
ENDBRANCH   2  11
TORSDOF 2
ENDMDL
