MODEL 1
REMARK VINA RESULT:      -4.6      0.000      0.000
REMARK  Name = *****
REMARK  4 active torsions:
REMARK  status: ('A' for Active; 'I' for Inactive)
REMARK    1  A    between atoms: C_1  and  C_2
REMARK    2  A    between atoms: C_4  and  C_8
REMARK    3  A    between atoms: C_8  and  C_9
REMARK    4  A    between atoms: C_9  and  C_10
REMARK                            x       y       z     vdW  Elec       q    Type
REMARK                         _______ _______ _______ _____ _____    ______ ____
ROOT
ATOM      1  C   UNL     1      87.979  69.449  87.692  0.00  0.00    +0.000 C 
ENDROOT
BRANCH   1   5
ATOM      2  C   UNL     1      90.201  71.808  84.155  0.00  0.00    +0.000 C 
ATOM      3  C   UNL     1      89.882  70.586  84.966  0.00  0.00    +0.000 C 
ATOM      4  C   UNL     1      89.719  70.638  86.300  0.00  0.00    +0.000 C 
ATOM      5  C   UNL     1      89.432  69.436  87.170  0.00  0.00    +0.000 C 
ATOM      6  C   UNL     1      89.739  68.122  86.424  0.00  0.00    +0.000 C 
ATOM      7  C   UNL     1      89.191  68.134  85.000  0.00  0.00    +0.000 C 
ATOM      8  C   UNL     1      89.770  69.296  84.191  0.00  0.00    +0.000 C 
ENDBRANCH   1   5
BRANCH   1   9
ATOM      9  C   UNL     1      87.583  70.778  88.345  0.00  0.00    +0.000 C 
BRANCH   9  10
ATOM     10  C   UNL     1      86.383  71.393  87.666  0.00  0.00    +0.000 A 
ATOM     11  C   UNL     1      85.303  71.869  88.421  0.00  0.00    +0.000 A 
ATOM     12  C   UNL     1      84.188  72.422  87.789  0.00  0.00    +0.000 A 
ATOM     13  C   UNL     1      84.141  72.498  86.398  0.00  0.00    +0.000 A 
ATOM     14  C   UNL     1      85.207  72.021  85.638  0.00  0.00    +0.000 A 
ATOM     15  C   UNL     1      86.323  71.469  86.269  0.00  0.00    +0.000 A 
ENDBRANCH   9  10
ENDBRANCH   1   9
TORSDOF 3
ENDMDL
