MODEL 1
REMARK VINA RESULT:      -4.5      0.000      0.000
REMARK  Name = *****
REMARK  5 active torsions:
REMARK  status: ('A' for Active; 'I' for Inactive)
REMARK    1  A    between atoms: C_1  and  C_2
REMARK    2  A    between atoms: C_4  and  C_17
REMARK    3  A    between atoms: C_5  and  C_8
REMARK    4  A    between atoms: C_8  and  C_9
REMARK    5  A    between atoms: C_9  and  C_11
REMARK                            x       y       z     vdW  Elec       q    Type
REMARK                         _______ _______ _______ _____ _____    ______ ____
ROOT
ATOM      1  C   UNL     1      89.314  70.124  87.273  0.00  0.00    +0.000 C 
ENDROOT
BRANCH   1   6
ATOM      2  C   UNL     1      83.986  72.512  87.260  0.00  0.00    +0.000 C 
ATOM      3  C   UNL     1      85.366  71.925  87.277  0.00  0.00    +0.000 A 
ATOM      4  C   UNL     1      85.994  71.620  88.491  0.00  0.00    +0.000 A 
ATOM      5  C   UNL     1      87.271  71.030  88.526  0.00  0.00    +0.000 A 
ATOM      6  C   UNL     1      87.932  70.747  87.314  0.00  0.00    +0.000 A 
ATOM      7  C   UNL     1      87.284  71.031  86.100  0.00  0.00    +0.000 A 
ATOM      8  C   UNL     1      86.015  71.610  86.083  0.00  0.00    +0.000 A 
ATOM      9  C   UNL     1      87.893  70.725  89.861  0.00  0.00    +0.000 C 
ENDBRANCH   1   6
BRANCH   1  10
ATOM     10  C   UNL     1      89.444  68.940  86.327  0.00  0.00    +0.000 C 
ATOM     11  O   UNL     1      89.968  69.017  85.217  0.00  0.00    +0.000 OA
BRANCH  10  12
ATOM     12  C   UNL     1      88.915  67.614  86.778  0.00  0.00    +0.000 A 
ATOM     13  C   UNL     1      87.725  67.485  87.506  0.00  0.00    +0.000 A 
ATOM     14  C   UNL     1      87.277  66.221  87.903  0.00  0.00    +0.000 A 
ATOM     15  C   UNL     1      88.011  65.081  87.576  0.00  0.00    +0.000 A 
ATOM     16  C   UNL     1      89.197  65.201  86.854  0.00  0.00    +0.000 A 
ATOM     17  C   UNL     1      89.648  66.461  86.458  0.00  0.00    +0.000 A 
ENDBRANCH  10  12
ENDBRANCH   1  10
TORSDOF 3
ENDMDL
