MODEL 1
REMARK VINA RESULT:      -4.5      0.000      0.000
REMARK  Name = *****
REMARK  3 active torsions:
REMARK  status: ('A' for Active; 'I' for Inactive)
REMARK    1  A    between atoms: C_1  and  C_2
REMARK    2  A    between atoms: C_3  and  N_9
REMARK    3  A    between atoms: C_10  and  C_11
REMARK                            x       y       z     vdW  Elec       q    Type
REMARK                         _______ _______ _______ _____ _____    ______ ____
ROOT
ATOM      1  C   UNL     1     103.283 129.144  83.654  0.00  0.00    +0.000 C 
ATOM      2  C   UNL     1     101.962 128.462  83.430  0.00  0.00    +0.000 A 
ATOM      3  C   UNL     1     101.861 127.360  82.560  0.00  0.00    +0.000 A 
ATOM      4  C   UNL     1     100.628 126.725  82.385  0.00  0.00    +0.000 A 
ATOM      5  C   UNL     1      99.497 127.200  83.043  0.00  0.00    +0.000 A 
ATOM      6  C   UNL     1      99.582 128.305  83.886  0.00  0.00    +0.000 A 
ATOM      7  C   UNL     1     100.811 128.934  84.081  0.00  0.00    +0.000 A 
ATOM      8 CL   UNL     1      97.981 126.418  82.811  0.00  0.00    +0.000 Cl
ENDROOT
BRANCH   3   9
ATOM      9  N   UNL     1     102.990 126.857  81.892  0.00  0.00    +0.000 NA
ATOM     10  C   UNL     1     102.917 125.622  81.506  0.00  0.00    +0.000 C 
BRANCH  10  11
ATOM     11  C   UNL     1     104.025 124.959  80.792  0.00  0.00    +0.000 A 
ATOM     12  C   UNL     1     104.321 123.613  81.020  0.00  0.00    +0.000 A 
ATOM     13  C   UNL     1     105.373 123.008  80.332  0.00  0.00    +0.000 A 
ATOM     14  C   UNL     1     106.127 123.748  79.420  0.00  0.00    +0.000 A 
ATOM     15  C   UNL     1     105.830 125.092  79.192  0.00  0.00    +0.000 A 
ATOM     16  C   UNL     1     104.777 125.702  79.878  0.00  0.00    +0.000 A 
ENDBRANCH  10  11
ENDBRANCH   3   9
TORSDOF 2
ENDMDL
