REMARK  Name = *****
REMARK  5 active torsions:
REMARK  status: ('A' for Active; 'I' for Inactive)
REMARK    1  A    between atoms: C_1  and  C_2
REMARK    2  A    between atoms: C_3  and  N_9
REMARK    3  A    between atoms: N_9  and  C_10
REMARK    4  A    between atoms: N_9  and  N_17
REMARK    5  A    between atoms: C_10  and  C_11
REMARK                            x       y       z     vdW  Elec       q    Type
REMARK                         _______ _______ _______ _____ _____    ______ ____
ROOT
ATOM      1  N   UNL     1       0.033   2.507   0.440  0.00  0.00    +0.000 N 
ENDROOT
BRANCH   1   4
ATOM      2  C   UNL     1      -1.228   1.217   2.734  0.00  0.00    +0.000 C 
ATOM      3  C   UNL     1      -0.895   0.477   1.463  0.00  0.00    +0.000 A 
ATOM      4  C   UNL     1      -0.307   1.128   0.343  0.00  0.00    +0.000 A 
ATOM      5  C   UNL     1      -0.120   0.369  -0.837  0.00  0.00    +0.000 A 
ATOM      6  C   UNL     1      -0.451  -0.991  -0.883  0.00  0.00    +0.000 A 
ATOM      7  C   UNL     1      -1.000  -1.618   0.230  0.00  0.00    +0.000 A 
ATOM      8  C   UNL     1      -1.236  -0.886   1.389  0.00  0.00    +0.000 A 
ATOM      9 CL   UNL     1       0.430   1.071  -2.323  0.00  0.00    +0.000 Cl
ENDBRANCH   1   4
BRANCH   1  10
ATOM     10  N   UNL     1      -0.985   3.406   0.363  0.00  0.00    +0.000 NA
ATOM     11  O   UNL     1      -0.607   4.581   0.318  0.00  0.00    +0.000 OA
ENDBRANCH   1  10
BRANCH   1  12
ATOM     12  C   UNL     1       1.464   2.854   0.241  0.00  0.00    +0.000 C 
BRANCH  12  13
ATOM     13  C   UNL     1       2.466   1.880   0.833  0.00  0.00    +0.000 A 
ATOM     14  C   UNL     1       2.555   1.695   2.221  0.00  0.00    +0.000 A 
ATOM     15  C   UNL     1       3.482   0.802   2.761  0.00  0.00    +0.000 A 
ATOM     16  C   UNL     1       4.339   0.093   1.921  0.00  0.00    +0.000 A 
ATOM     17  C   UNL     1       4.272   0.278   0.542  0.00  0.00    +0.000 A 
ATOM     18  C   UNL     1       3.343   1.168   0.001  0.00  0.00    +0.000 A 
ENDBRANCH  12  13
ENDBRANCH   1  12
TORSDOF 4
