MODEL 1
REMARK VINA RESULT:      -5.2      0.000      0.000
REMARK  Name = *****
REMARK  2 active torsions:
REMARK  status: ('A' for Active; 'I' for Inactive)
REMARK    1  A    between atoms: C_5  and  C_7
REMARK    2  A    between atoms: C_8  and  C_9
REMARK                            x       y       z     vdW  Elec       q    Type
REMARK                         _______ _______ _______ _____ _____    ______ ____
ROOT
ATOM      1  C   UNL     1     101.682 126.056  82.189  0.00  0.00    +0.000 C 
ATOM      2  C   UNL     1     102.930 126.258  81.737  0.00  0.00    +0.000 C 
ENDROOT
BRANCH   1   7
ATOM      3  C   UNL     1     100.616 129.279  83.818  0.00  0.00    +0.000 A 
ATOM      4  C   UNL     1      99.233 129.259  83.653  0.00  0.00    +0.000 A 
ATOM      5  C   UNL     1      98.632 128.183  83.004  0.00  0.00    +0.000 A 
ATOM      6  C   UNL     1      99.415 127.133  82.528  0.00  0.00    +0.000 A 
ATOM      7  C   UNL     1     100.806 127.124  82.698  0.00  0.00    +0.000 A 
ATOM      8  C   UNL     1     101.398 128.222  83.340  0.00  0.00    +0.000 A 
ATOM      9  F   UNL     1      98.796 126.128  81.888  0.00  0.00    +0.000 F 
ENDBRANCH   1   7
BRANCH   2  10
ATOM     10  C   UNL     1     103.793 125.191  81.210  0.00  0.00    +0.000 A 
ATOM     11  C   UNL     1     104.432 125.383  79.981  0.00  0.00    +0.000 A 
ATOM     12  C   UNL     1     105.277 124.400  79.475  0.00  0.00    +0.000 A 
ATOM     13  C   UNL     1     105.513 123.224  80.176  0.00  0.00    +0.000 A 
ATOM     14  C   UNL     1     104.897 123.029  81.410  0.00  0.00    +0.000 A 
ATOM     15  C   UNL     1     104.045 124.011  81.926  0.00  0.00    +0.000 A 
ATOM     16  F   UNL     1     105.876 124.591  78.292  0.00  0.00    +0.000 F 
ENDBRANCH   2  10
TORSDOF 2
ENDMDL
