MODEL 1
REMARK VINA RESULT:      -4.7      0.000      0.000
REMARK  Name = *****
REMARK  6 active torsions:
REMARK  status: ('A' for Active; 'I' for Inactive)
REMARK    1  A    between atoms: C_1  and  C_2
REMARK    2  A    between atoms: C_3  and  C_19
REMARK    3  A    between atoms: C_5  and  C_8
REMARK    4  A    between atoms: C_8  and  C_9
REMARK    5  A    between atoms: C_9  and  C_10
REMARK    6  A    between atoms: C_10  and  C_12
REMARK                            x       y       z     vdW  Elec       q    Type
REMARK                         _______ _______ _______ _____ _____    ______ ____
ROOT
ATOM      1  C   UNL     1      89.624  68.417  86.495  0.00  0.00    +0.000 C 
ENDROOT
BRANCH   1   2
ATOM      2  C   UNL     1      88.418  67.531  86.260  0.00  0.00    +0.000 C 
ATOM      3  O   UNL     1      87.767  67.559  85.218  0.00  0.00    +0.000 OA
BRANCH   2   4
ATOM      4  C   UNL     1      88.051  66.536  87.296  0.00  0.00    +0.000 A 
ATOM      5  C   UNL     1      88.848  65.382  87.363  0.00  0.00    +0.000 A 
ATOM      6  C   UNL     1      88.588  64.398  88.316  0.00  0.00    +0.000 A 
ATOM      7  C   UNL     1      87.525  64.554  89.203  0.00  0.00    +0.000 A 
ATOM      8  C   UNL     1      86.715  65.689  89.127  0.00  0.00    +0.000 A 
ATOM      9  C   UNL     1      86.969  66.681  88.172  0.00  0.00    +0.000 A 
ATOM     10 CL   UNL     1      85.864  68.005  88.102  0.00  0.00    +0.000 Cl
ENDBRANCH   2   4
ENDBRANCH   1   2
BRANCH   1  11
ATOM     11  C   UNL     1      89.296  69.870  86.156  0.00  0.00    +0.000 C 
BRANCH  11  16
ATOM     12  C   UNL     1      85.503  72.084  89.997  0.00  0.00    +0.000 C 
ATOM     13  C   UNL     1      86.465  71.522  88.985  0.00  0.00    +0.000 A 
ATOM     14  C   UNL     1      86.185  71.559  87.606  0.00  0.00    +0.000 A 
ATOM     15  C   UNL     1      87.116  71.024  86.701  0.00  0.00    +0.000 A 
ATOM     16  C   UNL     1      88.321  70.460  87.144  0.00  0.00    +0.000 A 
ATOM     17  C   UNL     1      88.589  70.428  88.515  0.00  0.00    +0.000 A 
ATOM     18  C   UNL     1      87.671  70.957  89.425  0.00  0.00    +0.000 A 
ATOM     19  C   UNL     1      84.906  72.150  87.080  0.00  0.00    +0.000 C 
ENDBRANCH  11  16
ENDBRANCH   1  11
TORSDOF 4
ENDMDL
