MODEL 1
REMARK VINA RESULT:      -4.9      0.000      0.000
REMARK  Name = *****
REMARK  1 active torsions:
REMARK  status: ('A' for Active; 'I' for Inactive)
REMARK    1  A    between atoms: C_10  and  C_13
REMARK                            x       y       z     vdW  Elec       q    Type
REMARK                         _______ _______ _______ _____ _____    ______ ____
ROOT
ATOM      1  C   UNL     1      86.658  62.234  88.278  0.00  0.00    +0.000 C 
ATOM      2  C   UNL     1      87.250  62.939  89.494  0.00  0.00    +0.000 C 
ATOM      3  C   UNL     1      88.550  63.704  89.244  0.00  0.00    +0.000 C 
ATOM      4  C   UNL     1      88.327  64.978  88.432  0.00  0.00    +0.000 C 
ATOM      5  C   UNL     1      88.386  64.798  86.907  0.00  0.00    +0.000 C 
ATOM      6  C   UNL     1      87.734  63.516  86.369  0.00  0.00    +0.000 C 
ATOM      7  C   UNL     1      86.427  63.119  87.053  0.00  0.00    +0.000 C 
ATOM      8  O   UNL     1      87.705  65.940  86.334  0.00  0.00    +0.000 OA
ATOM      9  O   UNL     1      88.276  66.149  84.991  0.00  0.00    +0.000 OA
ATOM     10  C   UNL     1      89.612  66.655  85.179  0.00  0.00    +0.000 C 
ATOM     11  O   UNL     1      90.215  66.154  86.385  0.00  0.00    +0.000 OA
ATOM     12  O   UNL     1      89.775  64.755  86.503  0.00  0.00    +0.000 OA
ENDROOT
BRANCH  10  13
ATOM     13  C   UNL     1      89.678  68.171  85.183  0.00  0.00    +0.000 A 
ATOM     14  C   UNL     1      89.794  68.923  84.004  0.00  0.00    +0.000 A 
ATOM     15  C   UNL     1      89.854  70.317  84.049  0.00  0.00    +0.000 A 
ATOM     16  C   UNL     1      89.797  70.981  85.273  0.00  0.00    +0.000 A 
ATOM     17  C   UNL     1      89.676  70.252  86.453  0.00  0.00    +0.000 A 
ATOM     18  C   UNL     1      89.617  68.858  86.409  0.00  0.00    +0.000 A 
ENDBRANCH  10  13
TORSDOF 1
ENDMDL
