MODEL 1
REMARK VINA RESULT:      -4.8      0.000      0.000
REMARK  Name = *****
REMARK  4 active torsions:
REMARK  status: ('A' for Active; 'I' for Inactive)
REMARK    1  A    between atoms: C_1  and  C_2
REMARK    2  A    between atoms: C_5  and  C_8
REMARK    3  A    between atoms: N_9  and  C_10
REMARK    4  A    between atoms: C_11  and  C_17
REMARK                            x       y       z     vdW  Elec       q    Type
REMARK                         _______ _______ _______ _____ _____    ______ ____
ROOT
ATOM      1  C   UNL     1     102.600 127.145  82.385  0.00  0.00    +0.000 C 
ATOM      2  N   UNL     1     101.474 127.091  83.025  0.00  0.00    +0.000 NA
ENDROOT
BRANCH   2   3
ATOM      3  C   UNL     1     100.948 128.321  83.451  0.00  0.00    +0.000 A 
ATOM      4  C   UNL     1      99.588 128.629  83.261  0.00  0.00    +0.000 A 
ATOM      5  C   UNL     1      99.092 129.865  83.704  0.00  0.00    +0.000 A 
ATOM      6  C   UNL     1      99.933 130.776  84.344  0.00  0.00    +0.000 A 
ATOM      7  C   UNL     1     101.272 130.453  84.548  0.00  0.00    +0.000 A 
ATOM      8  C   UNL     1     101.779 129.233  84.110  0.00  0.00    +0.000 A 
ATOM      9 CL   UNL     1     102.308 131.574  85.344  0.00  0.00    +0.000 Cl
ATOM     10  C   UNL     1      98.669 127.651  82.585  0.00  0.00    +0.000 C 
ENDBRANCH   2   3
BRANCH   1  15
ATOM     11  C   UNL     1     105.198 122.362  80.451  0.00  0.00    +0.000 C 
ATOM     12  C   UNL     1     104.550 123.618  80.955  0.00  0.00    +0.000 A 
ATOM     13  C   UNL     1     104.283 124.677  80.077  0.00  0.00    +0.000 A 
ATOM     14  C   UNL     1     103.649 125.834  80.535  0.00  0.00    +0.000 A 
ATOM     15  C   UNL     1     103.270 125.933  81.876  0.00  0.00    +0.000 A 
ATOM     16  C   UNL     1     103.517 124.879  82.757  0.00  0.00    +0.000 A 
ATOM     17  C   UNL     1     104.151 123.723  82.295  0.00  0.00    +0.000 A 
ENDBRANCH   1  15
TORSDOF 2
ENDMDL
