MODEL 1
REMARK VINA RESULT:      -4.8      0.000      0.000
REMARK  Name = *****
REMARK  3 active torsions:
REMARK  status: ('A' for Active; 'I' for Inactive)
REMARK    1  A    between atoms: C_1  and  C_2
REMARK    2  A    between atoms: C_7  and  C_8
REMARK    3  A    between atoms: C_9  and  C_10
REMARK                            x       y       z     vdW  Elec       q    Type
REMARK                         _______ _______ _______ _____ _____    ______ ____
ROOT
ATOM      1  C   UNL     1     102.996 125.392  81.891  0.00  0.00    +0.000 C 
ATOM      2  C   UNL     1     102.132 126.156  82.226  0.00  0.00    +0.000 C 
ENDROOT
BRANCH   1   9
ATOM      3  C   UNL     1     104.126 123.482  83.827  0.00  0.00    +0.000 C 
ATOM      4  C   UNL     1     104.581 123.555  82.395  0.00  0.00    +0.000 A 
ATOM      5  C   UNL     1     105.594 122.693  81.947  0.00  0.00    +0.000 A 
ATOM      6  C   UNL     1     106.044 122.745  80.626  0.00  0.00    +0.000 A 
ATOM      7  C   UNL     1     105.488 123.660  79.737  0.00  0.00    +0.000 A 
ATOM      8  C   UNL     1     104.484 124.526  80.167  0.00  0.00    +0.000 A 
ATOM      9  C   UNL     1     104.028 124.480  81.491  0.00  0.00    +0.000 A 
ENDBRANCH   1   9
BRANCH   2  10
ATOM     10  C   UNL     1     101.102 127.068  82.629  0.00  0.00    +0.000 A 
ATOM     11  C   UNL     1      99.771 126.729  82.353  0.00  0.00    +0.000 A 
ATOM     12  C   UNL     1      98.730 127.583  82.724  0.00  0.00    +0.000 A 
ATOM     13  C   UNL     1      99.012 128.783  83.373  0.00  0.00    +0.000 A 
ATOM     14  C   UNL     1     100.334 129.131  83.653  0.00  0.00    +0.000 A 
ATOM     15  C   UNL     1     101.379 128.276  83.283  0.00  0.00    +0.000 A 
ATOM     16 BR   UNL     1     103.152 128.821  83.702  0.00  0.00    +0.000 Br
ENDBRANCH   2  10
TORSDOF 2
ENDMDL
