MODEL 1
REMARK VINA RESULT:      -4.7      0.000      0.000
REMARK  Name = *****
REMARK  3 active torsions:
REMARK  status: ('A' for Active; 'I' for Inactive)
REMARK    1  A    between atoms: C_1  and  C_2
REMARK    2  A    between atoms: C_2  and  C_10
REMARK    3  A    between atoms: N_3  and  C_4
REMARK                            x       y       z     vdW  Elec       q    Type
REMARK                         _______ _______ _______ _____ _____    ______ ____
ROOT
ATOM      1  C   UNL     1     103.143 127.226  81.216  0.00  0.00    +0.000 C 
ATOM      2  C   UNL     1     102.800 125.989  82.021  0.00  0.00    +0.000 C 
ATOM      3  N   UNL     1     101.755 125.864  82.785  0.00  0.00    +0.000 NA
ENDROOT
BRANCH   2   4
ATOM      4  C   UNL     1     103.700 124.817  81.881  0.00  0.00    +0.000 A 
ATOM      5  C   UNL     1     104.063 124.443  80.579  0.00  0.00    +0.000 A 
ATOM      6  C   UNL     1     104.919 123.359  80.376  0.00  0.00    +0.000 A 
ATOM      7  C   UNL     1     105.406 122.643  81.468  0.00  0.00    +0.000 A 
ATOM      8  C   UNL     1     105.029 123.001  82.764  0.00  0.00    +0.000 A 
ATOM      9  C   UNL     1     104.172 124.086  82.976  0.00  0.00    +0.000 A 
ATOM     10 CL   UNL     1     103.698 124.424  84.602  0.00  0.00    +0.000 Cl
ENDBRANCH   2   4
BRANCH   3  11
ATOM     11  C   UNL     1     100.880 126.947  82.943  0.00  0.00    +0.000 A 
ATOM     12  C   UNL     1      99.577 126.875  82.445  0.00  0.00    +0.000 A 
ATOM     13  C   UNL     1      98.694 127.943  82.618  0.00  0.00    +0.000 A 
ATOM     14  C   UNL     1      99.109 129.085  83.304  0.00  0.00    +0.000 A 
ATOM     15  C   UNL     1     100.401 129.155  83.821  0.00  0.00    +0.000 A 
ATOM     16  C   UNL     1     101.281 128.085  83.647  0.00  0.00    +0.000 A 
ENDBRANCH   3  11
TORSDOF 2
ENDMDL
