MODEL 1
REMARK VINA RESULT:      -4.9      0.000      0.000
REMARK  Name = *****
REMARK  3 active torsions:
REMARK  status: ('A' for Active; 'I' for Inactive)
REMARK    1  A    between atoms: C_4  and  C_7
REMARK    2  A    between atoms: C_7  and  C_8
REMARK    3  A    between atoms: C_8  and  C_9
REMARK                            x       y       z     vdW  Elec       q    Type
REMARK                         _______ _______ _______ _____ _____    ______ ____
ROOT
ATOM      1  C   UNL     1     103.292 126.514  81.709  0.00  0.00    +0.000 C 
ATOM      2  F   UNL     1     102.725 127.282  80.732  0.00  0.00    +0.000 F 
ATOM      3  F   UNL     1     104.123 127.351  82.398  0.00  0.00    +0.000 F 
ENDROOT
BRANCH   1   4
ATOM      4  C   UNL     1     104.056 125.343  81.115  0.00  0.00    +0.000 A 
ATOM      5  C   UNL     1     104.774 125.495  79.918  0.00  0.00    +0.000 A 
ATOM      6  C   UNL     1     105.488 124.421  79.389  0.00  0.00    +0.000 A 
ATOM      7  C   UNL     1     105.498 123.189  80.038  0.00  0.00    +0.000 A 
ATOM      8  C   UNL     1     104.787 123.026  81.226  0.00  0.00    +0.000 A 
ATOM      9  C   UNL     1     104.070 124.097  81.762  0.00  0.00    +0.000 A 
ATOM     10 CL   UNL     1     106.367 124.621  77.923  0.00  0.00    +0.000 Cl
ENDBRANCH   1   4
BRANCH   1  11
ATOM     11  C   UNL     1     102.190 126.009  82.653  0.00  0.00    +0.000 C 
BRANCH  11  15
ATOM     12  C   UNL     1      98.954 128.816  83.185  0.00  0.00    +0.000 A 
ATOM     13  C   UNL     1      98.727 127.605  82.533  0.00  0.00    +0.000 A 
ATOM     14  C   UNL     1      99.773 126.696  82.362  0.00  0.00    +0.000 A 
ATOM     15  C   UNL     1     101.055 126.989  82.845  0.00  0.00    +0.000 A 
ATOM     16  C   UNL     1     101.274 128.214  83.491  0.00  0.00    +0.000 A 
ATOM     17  C   UNL     1     100.228 129.121  83.662  0.00  0.00    +0.000 A 
ENDBRANCH  11  15
ENDBRANCH   1  11
TORSDOF 3
ENDMDL
