REMARK  Name = *****
REMARK  1 active torsions:
REMARK  status: ('A' for Active; 'I' for Inactive)
REMARK    1  A    between atoms: C_10  and  C_11
REMARK                            x       y       z     vdW  Elec       q    Type
REMARK                         _______ _______ _______ _____ _____    ______ ____
ROOT
ATOM      1  C   UNL     1      -1.735   0.794   0.135  0.00  0.00    +0.000 C 
ATOM      2  C   UNL     1      -0.259   0.629   0.058  0.00  0.00    +0.000 A 
ATOM      3  C   UNL     1       0.055  -0.719  -0.030  0.00  0.00    +0.000 A 
ATOM      4  C   UNL     1       1.373  -1.140  -0.114  0.00  0.00    +0.000 A 
ATOM      5  C   UNL     1       2.375  -0.167  -0.105  0.00  0.00    +0.000 A 
ATOM      6  C   UNL     1       2.059   1.196  -0.015  0.00  0.00    +0.000 A 
ATOM      7  C   UNL     1       0.726   1.605   0.068  0.00  0.00    +0.000 A 
ATOM      8 CL   UNL     1       4.025  -0.649  -0.207  0.00  0.00    +0.000 Cl
ATOM      9  C   UNL     1      -1.209  -1.435  -0.013  0.00  0.00    +0.000 C 
ATOM     10  C   UNL     1      -1.352  -2.769  -0.050  0.00  0.00    +0.000 C 
ATOM     11  O   UNL     1      -2.278  -0.546   0.074  0.00  0.00    +0.000 OA
ENDROOT
BRANCH  10  12
ATOM     12  C   UNL     1      -2.627  -3.502  -0.022  0.00  0.00    +0.000 A 
ATOM     13  C   UNL     1      -3.738  -3.102  -0.774  0.00  0.00    +0.000 A 
ATOM     14  C   UNL     1      -4.919  -3.850  -0.754  0.00  0.00    +0.000 A 
ATOM     15  C   UNL     1      -4.995  -5.013   0.010  0.00  0.00    +0.000 A 
ATOM     16  C   UNL     1      -3.891  -5.431   0.750  0.00  0.00    +0.000 A 
ATOM     17  C   UNL     1      -2.712  -4.682   0.729  0.00  0.00    +0.000 A 
ENDBRANCH  10  12
TORSDOF 1
