MODEL 1
REMARK VINA RESULT:      -4.4      0.000      0.000
REMARK  Name = *****
REMARK  4 active torsions:
REMARK  status: ('A' for Active; 'I' for Inactive)
REMARK    1  A    between atoms: C_1  and  C_2
REMARK    2  A    between atoms: C_5  and  S_8
REMARK    3  A    between atoms: S_8  and  S_9
REMARK    4  A    between atoms: S_9  and  C_11
REMARK                            x       y       z     vdW  Elec       q    Type
REMARK                         _______ _______ _______ _____ _____    ______ ____
ROOT
ATOM      1  S   UNL     1     103.729 127.833  81.663  0.00  0.00    +0.000 S 
ENDROOT
BRANCH   1   6
ATOM      2  C   UNL     1     104.905 121.897  80.921  0.00  0.00    +0.000 C 
ATOM      3  C   UNL     1     104.582 123.352  81.099  0.00  0.00    +0.000 A 
ATOM      4  C   UNL     1     104.719 124.245  80.031  0.00  0.00    +0.000 A 
ATOM      5  C   UNL     1     104.451 125.606  80.206  0.00  0.00    +0.000 A 
ATOM      6  C   UNL     1     104.046 126.091  81.454  0.00  0.00    +0.000 A 
ATOM      7  C   UNL     1     103.935 125.205  82.527  0.00  0.00    +0.000 A 
ATOM      8  C   UNL     1     104.203 123.843  82.353  0.00  0.00    +0.000 A 
ENDBRANCH   1   6
BRANCH   1   9
ATOM      9  S   UNL     1     103.011 127.896  83.561  0.00  0.00    +0.000 S 
ATOM     10  O   UNL     1     103.377 129.307  83.922  0.00  0.00    +0.000 OA
BRANCH   9  11
ATOM     11  C   UNL     1     101.231 127.914  83.233  0.00  0.00    +0.000 A 
ATOM     12  C   UNL     1     100.626 126.806  82.627  0.00  0.00    +0.000 A 
ATOM     13  C   UNL     1      99.251 126.801  82.381  0.00  0.00    +0.000 A 
ATOM     14  C   UNL     1      98.474 127.900  82.743  0.00  0.00    +0.000 A 
ATOM     15  C   UNL     1      99.068 129.005  83.352  0.00  0.00    +0.000 A 
ATOM     16  C   UNL     1     100.442 129.011  83.599  0.00  0.00    +0.000 A 
ENDBRANCH   9  11
ENDBRANCH   1   9
TORSDOF 3
ENDMDL
