REMARK  Name = *****
REMARK  5 active torsions:
REMARK  status: ('A' for Active; 'I' for Inactive)
REMARK    1  A    between atoms: C_1  and  C_2
REMARK    2  A    between atoms: C_4  and  O_9
REMARK    3  A    between atoms: C_7  and  C_8
REMARK    4  A    between atoms: O_9  and  C_10
REMARK    5  A    between atoms: C_10  and  C_11
REMARK                            x       y       z     vdW  Elec       q    Type
REMARK                         _______ _______ _______ _____ _____    ______ ____
ROOT
ATOM      1  C   UNL     1       3.696   0.509   1.230  0.00  0.00    +0.000 C 
ATOM      2  C   UNL     1       2.733   0.061   0.125  0.00  0.00    +0.000 C 
ATOM      3  C   UNL     1       2.554   1.141  -0.962  0.00  0.00    +0.000 C 
ATOM      4  C   UNL     1       3.677   1.162  -2.003  0.00  0.00    +0.000 C 
ATOM      5  C   UNL     1       3.858  -0.227  -2.640  0.00  0.00    +0.000 C 
ATOM      6  C   UNL     1       3.646  -1.385  -1.705  0.00  0.00    +0.000 C 
ATOM      7  C   UNL     1       3.154  -1.276  -0.459  0.00  0.00    +0.000 C 
ATOM      8  C   UNL     1       2.968  -2.485   0.417  0.00  0.00    +0.000 C 
ENDROOT
BRANCH   4   9
ATOM      9  O   UNL     1       4.874   1.620  -1.364  0.00  0.00    +0.000 OA
BRANCH   9  10
ATOM     10  C   UNL     1       5.816   2.207  -2.259  0.00  0.00    +0.000 C 
BRANCH  10  11
ATOM     11  C   UNL     1       7.017   2.703  -1.490  0.00  0.00    +0.000 A 
ATOM     12  C   UNL     1       8.299   2.619  -2.053  0.00  0.00    +0.000 A 
ATOM     13  C   UNL     1       9.410   3.113  -1.367  0.00  0.00    +0.000 A 
ATOM     14  C   UNL     1       9.252   3.706  -0.116  0.00  0.00    +0.000 A 
ATOM     15  C   UNL     1       7.983   3.807   0.450  0.00  0.00    +0.000 A 
ATOM     16  C   UNL     1       6.872   3.314  -0.236  0.00  0.00    +0.000 A 
ENDBRANCH  10  11
ENDBRANCH   9  10
ENDBRANCH   4   9
TORSDOF 3
