MODEL 1
REMARK VINA RESULT:      -4.3      0.000      0.000
REMARK  Name = *****
REMARK  4 active torsions:
REMARK  status: ('A' for Active; 'I' for Inactive)
REMARK    1  A    between atoms: C_1  and  C_2
REMARK    2  A    between atoms: C_7  and  C_8
REMARK    3  A    between atoms: C_8  and  C_16
REMARK    4  A    between atoms: N_9  and  C_10
REMARK                            x       y       z     vdW  Elec       q    Type
REMARK                         _______ _______ _______ _____ _____    ______ ____
ROOT
ATOM      1  C   UNL     1      89.254  70.050  85.164  0.00  0.00    +0.000 C 
ATOM      2  N   UNL     1      89.397  68.827  84.726  0.00  0.00    +0.000 NA
ENDROOT
BRANCH   1   9
ATOM      3  C   UNL     1      86.392  70.935  85.085  0.00  0.00    +0.000 C 
ATOM      4  C   UNL     1      87.179  70.845  86.361  0.00  0.00    +0.000 A 
ATOM      5  C   UNL     1      86.569  71.229  87.564  0.00  0.00    +0.000 A 
ATOM      6  C   UNL     1      87.271  71.179  88.772  0.00  0.00    +0.000 A 
ATOM      7  C   UNL     1      88.596  70.753  88.795  0.00  0.00    +0.000 A 
ATOM      8  C   UNL     1      89.228  70.382  87.610  0.00  0.00    +0.000 A 
ATOM      9  C   UNL     1      88.522  70.430  86.400  0.00  0.00    +0.000 A 
ENDBRANCH   1   9
BRANCH   2  10
ATOM     10  C   UNL     1      88.843  67.745  85.425  0.00  0.00    +0.000 A 
ATOM     11  C   UNL     1      87.517  67.354  85.219  0.00  0.00    +0.000 A 
ATOM     12  C   UNL     1      86.986  66.262  85.909  0.00  0.00    +0.000 A 
ATOM     13  C   UNL     1      87.785  65.543  86.796  0.00  0.00    +0.000 A 
ATOM     14  C   UNL     1      89.118  65.908  86.984  0.00  0.00    +0.000 A 
ATOM     15  C   UNL     1      89.645  67.000  86.295  0.00  0.00    +0.000 A 
ENDBRANCH   2  10
BRANCH   1  16
ATOM     16  C   UNL     1      89.849  71.219  84.385  0.00  0.00    +0.000 C 
ATOM     17  F   UNL     1      89.435  72.435  84.841  0.00  0.00    +0.000 F 
ATOM     18  F   UNL     1      91.210  71.244  84.434  0.00  0.00    +0.000 F 
ATOM     19  F   UNL     1      89.512  71.176  83.066  0.00  0.00    +0.000 F 
ENDBRANCH   1  16
TORSDOF 3
ENDMDL
