MODEL 1
REMARK VINA RESULT:      -4.6      0.000      0.000
REMARK  Name = *****
REMARK  3 active torsions:
REMARK  status: ('A' for Active; 'I' for Inactive)
REMARK    1  A    between atoms: C_4  and  C_7
REMARK    2  A    between atoms: C_7  and  C_8
REMARK    3  A    between atoms: C_8  and  C_9
REMARK                            x       y       z     vdW  Elec       q    Type
REMARK                         _______ _______ _______ _____ _____    ______ ____
ROOT
ATOM      1  C   UNL     1      88.609  70.284  86.584  0.00  0.00    +0.000 C 
ATOM      2 CL   UNL     1      90.022  70.974  85.714  0.00  0.00    +0.000 Cl
ENDROOT
BRANCH   1   3
ATOM      3  C   UNL     1      88.776  68.777  86.680  0.00  0.00    +0.000 A 
ATOM      4  C   UNL     1      87.799  67.964  87.283  0.00  0.00    +0.000 A 
ATOM      5  C   UNL     1      87.977  66.582  87.369  0.00  0.00    +0.000 A 
ATOM      6  C   UNL     1      89.131  66.007  86.854  0.00  0.00    +0.000 A 
ATOM      7  C   UNL     1      90.111  66.786  86.253  0.00  0.00    +0.000 A 
ATOM      8  C   UNL     1      89.934  68.168  86.164  0.00  0.00    +0.000 A 
ATOM      9  F   UNL     1      89.302  64.680  86.939  0.00  0.00    +0.000 F 
ENDBRANCH   1   3
BRANCH   1  10
ATOM     10  C   UNL     1      87.284  70.679  85.906  0.00  0.00    +0.000 C 
BRANCH  10  14
ATOM     11  C   UNL     1      84.412  72.440  88.603  0.00  0.00    +0.000 A 
ATOM     12  C   UNL     1      85.556  71.826  89.108  0.00  0.00    +0.000 A 
ATOM     13  C   UNL     1      86.487  71.259  88.238  0.00  0.00    +0.000 A 
ATOM     14  C   UNL     1      86.284  71.304  86.852  0.00  0.00    +0.000 A 
ATOM     15  C   UNL     1      85.129  71.924  86.354  0.00  0.00    +0.000 A 
ATOM     16  C   UNL     1      84.198  72.489  87.227  0.00  0.00    +0.000 A 
ENDBRANCH  10  14
ENDBRANCH   1  10
TORSDOF 3
ENDMDL
