MODEL 1
REMARK VINA RESULT:      -4.6      0.000      0.000
REMARK  Name = *****
REMARK  4 active torsions:
REMARK  status: ('A' for Active; 'I' for Inactive)
REMARK    1  A    between atoms: C_3  and  O_8
REMARK    2  A    between atoms: O_8  and  C_9
REMARK    3  A    between atoms: C_9  and  C_11
REMARK    4  A    between atoms: C_12  and  C_18
REMARK                            x       y       z     vdW  Elec       q    Type
REMARK                         _______ _______ _______ _____ _____    ______ ____
ROOT
ATOM      1  C   UNL     1      99.324 128.283  83.810  0.00  0.00    +0.000 A 
ATOM      2  C   UNL     1      98.503 128.043  84.929  0.00  0.00    +0.000 A 
ATOM      3  C   UNL     1      98.110 129.139  85.719  0.00  0.00    +0.000 A 
ATOM      4  C   UNL     1      98.519 130.428  85.388  0.00  0.00    +0.000 A 
ATOM      5  C   UNL     1      99.321 130.663  84.279  0.00  0.00    +0.000 A 
ATOM      6  C   UNL     1      99.730 129.590  83.488  0.00  0.00    +0.000 A 
ATOM      7  F   UNL     1      98.129 131.457  86.149  0.00  0.00    +0.000 F 
ENDROOT
BRANCH   2   8
ATOM      8  C   UNL     1      98.034 126.655  85.289  0.00  0.00    +0.000 C 
ATOM      9  F   UNL     1      97.258 126.087  84.327  0.00  0.00    +0.000 F 
ATOM     10  F   UNL     1      99.053 125.796  85.548  0.00  0.00    +0.000 F 
ATOM     11  F   UNL     1      97.261 126.648  86.416  0.00  0.00    +0.000 F 
ENDBRANCH   2   8
BRANCH   1  12
ATOM     12  C   UNL     1      99.811 127.157  82.981  0.00  0.00    +0.000 C 
ATOM     13  O   UNL     1      99.198 126.725  82.022  0.00  0.00    +0.000 OA
BRANCH  12  14
ATOM     14  O   UNL     1     101.038 126.760  83.473  0.00  0.00    +0.000 OA
BRANCH  14  17
ATOM     15  C   UNL     1     103.745 128.062  81.362  0.00  0.00    +0.000 A 
ATOM     16  C   UNL     1     102.737 127.986  82.325  0.00  0.00    +0.000 A 
ATOM     17  C   UNL     1     102.081 126.774  82.539  0.00  0.00    +0.000 A 
ATOM     18  C   UNL     1     102.388 125.644  81.783  0.00  0.00    +0.000 A 
ATOM     19  C   UNL     1     103.395 125.735  80.830  0.00  0.00    +0.000 A 
ATOM     20  C   UNL     1     104.077 126.931  80.615  0.00  0.00    +0.000 A 
ATOM     21  F   UNL     1     103.710 124.659  80.098  0.00  0.00    +0.000 F 
ENDBRANCH  14  17
ENDBRANCH  12  14
ENDBRANCH   1  12
TORSDOF 4
ENDMDL
