REMARK  Name = *****
REMARK  4 active torsions:
REMARK  status: ('A' for Active; 'I' for Inactive)
REMARK    1  A    between atoms: C_1  and  C_2
REMARK    2  A    between atoms: C_5  and  S_8
REMARK    3  A    between atoms: S_8  and  C_10
REMARK    4  A    between atoms: C_11  and  C_12
REMARK                            x       y       z     vdW  Elec       q    Type
REMARK                         _______ _______ _______ _____ _____    ______ ____
ROOT
ATOM      1  S   UNL     1      -4.269   0.179   1.553  0.00  0.00    +0.000 S 
ATOM      2  O   UNL     1      -4.539  -0.060   3.011  0.00  0.00    +0.000 OA
ENDROOT
BRANCH   1   7
ATOM      3  C   UNL     1       1.819   0.335   0.951  0.00  0.00    +0.000 C 
ATOM      4  C   UNL     1       0.326   0.326   1.100  0.00  0.00    +0.000 A 
ATOM      5  C   UNL     1      -0.259   0.436   2.366  0.00  0.00    +0.000 A 
ATOM      6  C   UNL     1      -1.648   0.393   2.510  0.00  0.00    +0.000 A 
ATOM      7  C   UNL     1      -2.469   0.235   1.390  0.00  0.00    +0.000 A 
ATOM      8  C   UNL     1      -1.886   0.100   0.126  0.00  0.00    +0.000 A 
ATOM      9  C   UNL     1      -0.497   0.143  -0.018  0.00  0.00    +0.000 A 
ENDBRANCH   1   7
BRANCH   1  10
ATOM     10  C   UNL     1      -4.647   1.888   1.224  0.00  0.00    +0.000 C 
ATOM     11  C   UNL     1      -5.083   2.325   0.033  0.00  0.00    +0.000 C 
ATOM     12 CL   UNL     1      -4.407   2.996   2.525  0.00  0.00    +0.000 Cl
BRANCH  11  13
ATOM     13  C   UNL     1      -5.332   1.506  -1.156  0.00  0.00    +0.000 A 
ATOM     14  C   UNL     1      -6.364   0.561  -1.184  0.00  0.00    +0.000 A 
ATOM     15  C   UNL     1      -6.581  -0.208  -2.329  0.00  0.00    +0.000 A 
ATOM     16  C   UNL     1      -5.777  -0.030  -3.453  0.00  0.00    +0.000 A 
ATOM     17  C   UNL     1      -4.757   0.920  -3.437  0.00  0.00    +0.000 A 
ATOM     18  C   UNL     1      -4.537   1.690  -2.293  0.00  0.00    +0.000 A 
ENDBRANCH  11  13
ENDBRANCH   1  10
TORSDOF 3
