MODEL 1
REMARK VINA RESULT:      -4.3      0.000      0.000
REMARK  Name = *****
REMARK  3 active torsions:
REMARK  status: ('A' for Active; 'I' for Inactive)
REMARK    1  A    between atoms: C_4  and  C_7
REMARK    2  A    between atoms: C_8  and  C_9
REMARK    3  A    between atoms: C_12  and  C_14
REMARK                            x       y       z     vdW  Elec       q    Type
REMARK                         _______ _______ _______ _____ _____    ______ ____
ROOT
ATOM      1  C   UNL     1     101.719 125.954  82.301  0.00  0.00    +0.000 C 
ATOM      2  C   UNL     1     102.875 126.165  81.651  0.00  0.00    +0.000 C 
ENDROOT
BRANCH   1   6
ATOM      3  C   UNL     1      99.086 129.118  83.460  0.00  0.00    +0.000 A 
ATOM      4  C   UNL     1      98.567 127.989  82.830  0.00  0.00    +0.000 A 
ATOM      5  C   UNL     1      99.418 126.950  82.440  0.00  0.00    +0.000 A 
ATOM      6  C   UNL     1     100.797 127.038  82.668  0.00  0.00    +0.000 A 
ATOM      7  C   UNL     1     101.305 128.171  83.316  0.00  0.00    +0.000 A 
ATOM      8  C   UNL     1     100.455 129.210  83.705  0.00  0.00    +0.000 A 
ENDBRANCH   1   6
BRANCH   2   9
ATOM      9  C   UNL     1     103.767 125.103  81.307  0.00  0.00    +0.000 A 
ATOM     10  C   UNL     1     104.368 124.768  80.104  0.00  0.00    +0.000 A 
ATOM     11  C   UNL     1     105.201 123.614  80.194  0.00  0.00    +0.000 A 
ATOM     12  C   UNL     1     105.221 123.089  81.465  0.00  0.00    +0.000 A 
ATOM     13  S   UNL     1     104.246 123.987  82.535  0.00  0.00    +0.000 S 
BRANCH  12  14
ATOM     14  C   UNL     1     105.941 121.931  81.943  0.00  0.00    +0.000 C 
ATOM     15  O   UNL     1     106.152 120.919  81.281  0.00  0.00    +0.000 OA
ENDBRANCH  12  14
ENDBRANCH   2   9
TORSDOF 3
ENDMDL
