REMARK  Name = *****
REMARK  2 active torsions:
REMARK  status: ('A' for Active; 'I' for Inactive)
REMARK    1  A    between atoms: C_1  and  C_2
REMARK    2  A    between atoms: C_3  and  C_12
REMARK                            x       y       z     vdW  Elec       q    Type
REMARK                         _______ _______ _______ _____ _____    ______ ____
ROOT
ATOM      1  C   UNL     1       0.987   0.014  -0.059  0.00  0.00    +0.000 C 
ATOM      2  C   UNL     1       2.517   0.116   0.012  0.00  0.00    +0.000 C 
ATOM      3  C   UNL     1       3.157  -1.292   0.037  0.00  0.00    +0.000 C 
ATOM      4  O   UNL     1       2.830  -1.945   1.273  0.00  0.00    +0.000 OA
ATOM      5  C   UNL     1       3.349  -1.295   2.438  0.00  0.00    +0.000 C 
ATOM      6  C   UNL     1       3.267   0.213   2.417  0.00  0.00    +0.000 A 
ATOM      7  C   UNL     1       3.605   0.942   3.566  0.00  0.00    +0.000 A 
ATOM      8  C   UNL     1       3.575   2.337   3.554  0.00  0.00    +0.000 A 
ATOM      9  C   UNL     1       3.210   3.016   2.394  0.00  0.00    +0.000 A 
ATOM     10  C   UNL     1       2.875   2.302   1.244  0.00  0.00    +0.000 A 
ATOM     11  C   UNL     1       2.905   0.900   1.247  0.00  0.00    +0.000 A 
ENDROOT
BRANCH   3  12
ATOM     12  C   UNL     1       4.674  -1.317  -0.247  0.00  0.00    +0.000 C 
ATOM     13  C   UNL     1       5.063  -0.786  -1.627  0.00  0.00    +0.000 C 
ATOM     14  C   UNL     1       6.433  -1.396  -1.917  0.00  0.00    +0.000 C 
ATOM     15  C   UNL     1       6.608  -2.553  -0.936  0.00  0.00    +0.000 C 
ATOM     16  C   UNL     1       5.251  -2.734  -0.270  0.00  0.00    +0.000 C 
ENDBRANCH   3  12
TORSDOF 1
