REMARK  Name = *****
REMARK  3 active torsions:
REMARK  status: ('A' for Active; 'I' for Inactive)
REMARK    1  A    between atoms: C_4  and  C_7
REMARK    2  A    between atoms: C_7  and  O_8
REMARK    3  A    between atoms: O_8  and  C_9
REMARK                            x       y       z     vdW  Elec       q    Type
REMARK                         _______ _______ _______ _____ _____    ______ ____
ROOT
ATOM      1  O   UNL     1      -3.581  -0.712  -0.070  0.00  0.00    +0.000 OA
ENDROOT
BRANCH   1   2
ATOM      2  C   UNL     1      -4.939  -0.675  -0.221  0.00  0.00    +0.000 A 
ATOM      3  C   UNL     1      -5.697   0.444  -0.565  0.00  0.00    +0.000 A 
ATOM      4  C   UNL     1      -7.081   0.326  -0.682  0.00  0.00    +0.000 A 
ATOM      5  C   UNL     1      -7.713  -0.892  -0.461  0.00  0.00    +0.000 A 
ATOM      6  C   UNL     1      -6.968  -2.013  -0.118  0.00  0.00    +0.000 A 
ATOM      7  C   UNL     1      -5.581  -1.901   0.002  0.00  0.00    +0.000 A 
ATOM      8  F   UNL     1      -9.044  -0.995  -0.577  0.00  0.00    +0.000 F 
ATOM      9  F   UNL     1      -7.803   1.406  -1.012  0.00  0.00    +0.000 F 
ENDBRANCH   1   2
BRANCH   1  10
ATOM     10  C   UNL     1      -2.864   0.504  -0.290  0.00  0.00    +0.000 C 
BRANCH  10  14
ATOM     11  C   UNL     1       1.374  -0.192   0.156  0.00  0.00    +0.000 A 
ATOM     12  C   UNL     1       0.611  -1.032  -0.652  0.00  0.00    +0.000 A 
ATOM     13  C   UNL     1      -0.760  -0.812  -0.790  0.00  0.00    +0.000 A 
ATOM     14  C   UNL     1      -1.386   0.247  -0.114  0.00  0.00    +0.000 A 
ATOM     15  C   UNL     1      -0.605   1.090   0.690  0.00  0.00    +0.000 A 
ATOM     16  C   UNL     1       0.767   0.868   0.826  0.00  0.00    +0.000 A 
ENDBRANCH  10  14
ENDBRANCH   1  10
TORSDOF 3
