MODEL 1
REMARK VINA RESULT:      -4.3      0.000      0.000
REMARK  Name = *****
REMARK  3 active torsions:
REMARK  status: ('A' for Active; 'I' for Inactive)
REMARK    1  A    between atoms: N_5  and  N_8
REMARK    2  A    between atoms: N_8  and  C_9
REMARK    3  A    between atoms: C_9  and  C_10
REMARK                            x       y       z     vdW  Elec       q    Type
REMARK                         _______ _______ _______ _____ _____    ______ ____
ROOT
ATOM      1  C   UNL     1     102.966 127.288  83.039  0.00  0.00    +0.000 C 
ENDROOT
BRANCH   1   2
ATOM      2  C   UNL     1     103.458 126.077  82.345  0.00  0.00    +0.000 A 
ATOM      3  C   UNL     1     103.707 126.067  80.965  0.00  0.00    +0.000 A 
ATOM      4  C   UNL     1     104.172 124.901  80.347  0.00  0.00    +0.000 A 
ATOM      5  C   UNL     1     104.387 123.750  81.102  0.00  0.00    +0.000 A 
ATOM      6  C   UNL     1     104.142 123.749  82.473  0.00  0.00    +0.000 A 
ATOM      7  C   UNL     1     103.678 124.910  83.094  0.00  0.00    +0.000 A 
ATOM      8 CL   UNL     1     104.959 122.321  80.336  0.00  0.00    +0.000 Cl
ATOM      9 CL   UNL     1     103.463 127.448  79.956  0.00  0.00    +0.000 Cl
ENDBRANCH   1   2
BRANCH   1  10
ATOM     10  N   UNL     1     101.751 127.715  82.874  0.00  0.00    +0.000 NA
BRANCH  10  15
ATOM     11  C   UNL     1      97.945 126.962  85.023  0.00  0.00    +0.000 C 
ATOM     12  C   UNL     1      97.463 127.136  83.589  0.00  0.00    +0.000 C 
ATOM     13  C   UNL     1      98.504 127.691  82.624  0.00  0.00    +0.000 C 
ATOM     14  C   UNL     1      99.652 126.714  82.368  0.00  0.00    +0.000 C 
ATOM     15  N   UNL     1     100.803 126.819  83.274  0.00  0.00    +0.000 NA
ATOM     16  C   UNL     1     100.473 126.855  84.710  0.00  0.00    +0.000 C 
ATOM     17  C   UNL     1      99.213 126.124  85.179  0.00  0.00    +0.000 C 
ENDBRANCH  10  15
ENDBRANCH   1  10
TORSDOF 3
ENDMDL
