MODEL 1
REMARK VINA RESULT:      -4.5      0.000      0.000
REMARK  Name = *****
REMARK  4 active torsions:
REMARK  status: ('A' for Active; 'I' for Inactive)
REMARK    1  A    between atoms: C_4  and  C_7
REMARK    2  A    between atoms: C_7  and  O_9
REMARK    3  A    between atoms: O_9  and  C_10
REMARK    4  A    between atoms: C_10  and  C_11
REMARK                            x       y       z     vdW  Elec       q    Type
REMARK                         _______ _______ _______ _____ _____    ______ ____
ROOT
ATOM      1  O   UNL     1     103.418 125.174  80.142  0.00  0.00    +0.000 OA
ENDROOT
BRANCH   1   2
ATOM      2  C   UNL     1     104.591 124.500  80.072  0.00  0.00    +0.000 C 
ATOM      3  O   UNL     1     105.535 124.772  79.346  0.00  0.00    +0.000 OA
BRANCH   2   7
ATOM      4  C   UNL     1     104.585 121.266  82.888  0.00  0.00    +0.000 A 
ATOM      5  C   UNL     1     104.737 120.986  81.531  0.00  0.00    +0.000 A 
ATOM      6  C   UNL     1     104.742 122.025  80.597  0.00  0.00    +0.000 A 
ATOM      7  C   UNL     1     104.592 123.353  81.021  0.00  0.00    +0.000 A 
ATOM      8  C   UNL     1     104.442 123.625  82.387  0.00  0.00    +0.000 A 
ATOM      9  C   UNL     1     104.438 122.584  83.318  0.00  0.00    +0.000 A 
ENDBRANCH   2   7
ENDBRANCH   1   2
BRANCH   1  10
ATOM     10  C   UNL     1     103.525 126.584  80.372  0.00  0.00    +0.000 C 
BRANCH  10  11
ATOM     11  C   UNL     1     102.771 126.943  81.627  0.00  0.00    +0.000 A 
ATOM     12  C   UNL     1     101.727 126.129  82.090  0.00  0.00    +0.000 A 
ATOM     13  C   UNL     1     101.015 126.478  83.241  0.00  0.00    +0.000 A 
ATOM     14  C   UNL     1     101.338 127.646  83.928  0.00  0.00    +0.000 A 
ATOM     15  C   UNL     1     102.363 128.472  83.473  0.00  0.00    +0.000 A 
ATOM     16  C   UNL     1     103.075 128.123  82.323  0.00  0.00    +0.000 A 
ATOM     17 CL   UNL     1     100.459 128.075  85.343  0.00  0.00    +0.000 Cl
ENDBRANCH  10  11
ENDBRANCH   1  10
TORSDOF 4
ENDMDL
