MODEL 1
REMARK VINA RESULT:      -3.7      0.000      0.000
REMARK  Name = *****
REMARK  2 active torsions:
REMARK  status: ('A' for Active; 'I' for Inactive)
REMARK    1  A    between atoms: C_5  and  C_6
REMARK    2  A    between atoms: C_7  and  C_8
REMARK                            x       y       z     vdW  Elec       q    Type
REMARK                         _______ _______ _______ _____ _____    ______ ____
ROOT
ATOM      1  C   UNL     1     102.927 125.665  81.531  0.00  0.00    +0.000 C 
ATOM      2  C   UNL     1     102.073 126.341  82.036  0.00  0.00    +0.000 C 
ENDROOT
BRANCH   2   3
ATOM      3  C   UNL     1     101.062 127.147  82.638  0.00  0.00    +0.000 A 
ATOM      4  C   UNL     1     101.259 128.270  83.409  0.00  0.00    +0.000 A 
ATOM      5  C   UNL     1     100.050 128.857  83.869  0.00  0.00    +0.000 A 
ATOM      6  C   UNL     1      98.950 128.155  83.428  0.00  0.00    +0.000 A 
ATOM      7  S   UNL     1      99.391 126.804  82.471  0.00  0.00    +0.000 S 
ATOM      8 BR   UNL     1     102.932 129.029  83.865  0.00  0.00    +0.000 Br
ENDBRANCH   2   3
BRANCH   1  13
ATOM      9  C   UNL     1     104.731 125.246  79.808  0.00  0.00    +0.000 A 
ATOM     10  C   UNL     1     105.636 124.270  79.451  0.00  0.00    +0.000 A 
ATOM     11  S   UNL     1     105.536 122.898  80.471  0.00  0.00    +0.000 S 
ATOM     12  C   UNL     1     104.279 123.608  81.393  0.00  0.00    +0.000 A 
ATOM     13  C   UNL     1     103.946 124.861  80.932  0.00  0.00    +0.000 A 
ENDBRANCH   1  13
TORSDOF 2
ENDMDL
