REMARK  Name = *****
REMARK  3 active torsions:
REMARK  status: ('A' for Active; 'I' for Inactive)
REMARK    1  A    between atoms: C_4  and  C_7
REMARK    2  A    between atoms: C_8  and  C_9
REMARK    3  A    between atoms: C_9  and  C_10
REMARK                            x       y       z     vdW  Elec       q    Type
REMARK                         _______ _______ _______ _____ _____    ______ ____
ROOT
ATOM      1  C   UNL     1      -2.827   0.379  -0.208  0.00  0.00    +0.000 C 
ATOM      2  C   UNL     1      -3.712  -0.617  -0.385  0.00  0.00    +0.000 C 
ENDROOT
BRANCH   1   6
ATOM      3  C   UNL     1       1.409  -0.082   0.178  0.00  0.00    +0.000 A 
ATOM      4  C   UNL     1       0.704  -0.917  -0.687  0.00  0.00    +0.000 A 
ATOM      5  C   UNL     1      -0.681  -0.783  -0.817  0.00  0.00    +0.000 A 
ATOM      6  C   UNL     1      -1.377   0.181  -0.076  0.00  0.00    +0.000 A 
ATOM      7  C   UNL     1      -0.654   1.025   0.778  0.00  0.00    +0.000 A 
ATOM      8  C   UNL     1       0.730   0.890   0.909  0.00  0.00    +0.000 A 
ENDBRANCH   1   6
BRANCH   2   9
ATOM      9  C   UNL     1      -5.195  -0.406  -0.512  0.00  0.00    +0.000 C 
BRANCH   9  10
ATOM     10  C   UNL     1      -5.950  -1.127   0.566  0.00  0.00    +0.000 A 
ATOM     11  C   UNL     1      -6.171  -0.634   1.840  0.00  0.00    +0.000 A 
ATOM     12  S   UNL     1      -7.070  -1.705   2.823  0.00  0.00    +0.000 S 
ATOM     13  C   UNL     1      -7.182  -2.852   1.562  0.00  0.00    +0.000 A 
ATOM     14  C   UNL     1      -6.547  -2.424   0.417  0.00  0.00    +0.000 A 
ENDBRANCH   9  10
ENDBRANCH   2   9
TORSDOF 3
