REMARK  Name = *****
REMARK  8 active torsions:
REMARK  status: ('A' for Active; 'I' for Inactive)
REMARK    1  A    between atoms: C_1  and  C_2
REMARK    2  A    between atoms: C_4  and  C_10
REMARK    3  A    between atoms: C_6  and  C_9
REMARK    4  A    between atoms: C_7  and  C_8
REMARK    5  A    between atoms: C_11  and  C_12
REMARK    6  A    between atoms: C_14  and  O_20
REMARK    7  A    between atoms: C_15  and  O_18
REMARK    8  A    between atoms: O_18  and  C_19
REMARK                            x       y       z     vdW  Elec       q    Type
REMARK                         _______ _______ _______ _____ _____    ______ ____
ROOT
ATOM      1  C   UNL     1       5.543  -2.367   0.188  0.00  0.00    +0.000 C 
ATOM      2  C   UNL     1       5.123  -3.576  -0.218  0.00  0.00    +0.000 C 
ENDROOT
BRANCH   1   6
ATOM      3  C   UNL     1       1.169  -0.028   0.872  0.00  0.00    +0.000 C 
ATOM      4  C   UNL     1       2.607   0.032   0.430  0.00  0.00    +0.000 A 
ATOM      5  C   UNL     1       3.376  -1.144   0.493  0.00  0.00    +0.000 A 
ATOM      6  C   UNL     1       4.717  -1.156   0.101  0.00  0.00    +0.000 A 
ATOM      7  C   UNL     1       5.302   0.037  -0.330  0.00  0.00    +0.000 A 
ATOM      8  C   UNL     1       4.560   1.229  -0.407  0.00  0.00    +0.000 A 
ATOM      9  C   UNL     1       3.190   1.224  -0.058  0.00  0.00    +0.000 A 
ATOM     10  C   UNL     1       2.380   2.496  -0.133  0.00  0.00    +0.000 C 
ATOM     11  C   UNL     1       5.255   2.475  -0.889  0.00  0.00    +0.000 C 
ENDBRANCH   1   6
BRANCH   2  12
ATOM     12  C   UNL     1       5.958  -4.781  -0.152  0.00  0.00    +0.000 A 
ATOM     13  C   UNL     1       5.970  -5.665  -1.238  0.00  0.00    +0.000 A 
ATOM     14  C   UNL     1       6.739  -6.837  -1.201  0.00  0.00    +0.000 A 
ATOM     15  C   UNL     1       7.499  -7.150  -0.069  0.00  0.00    +0.000 A 
ATOM     16  C   UNL     1       7.467  -6.271   1.020  0.00  0.00    +0.000 A 
ATOM     17  C   UNL     1       6.705  -5.100   0.984  0.00  0.00    +0.000 A 
BRANCH  15  18
ATOM     18  O   UNL     1       8.300  -8.237   0.149  0.00  0.00    +0.000 OA
ATOM     19  C   UNL     1       8.458  -9.178  -0.901  0.00  0.00    +0.000 C 
ENDBRANCH  15  18
BRANCH  14  20
ATOM     20  O   UNL     1       6.716  -7.657  -2.296  0.00  0.00    +0.000 OA
ATOM     21  H   UNL     1       6.200  -7.426  -3.043  0.00  0.00    +0.000 HD
ENDBRANCH  14  20
ENDBRANCH   2  12
TORSDOF 4
