REMARK  Name = *****
REMARK  3 active torsions:
REMARK  status: ('A' for Active; 'I' for Inactive)
REMARK    1  A    between atoms: C_4  and  C_7
REMARK    2  A    between atoms: C_7  and  S_8
REMARK    3  A    between atoms: S_8  and  C_9
REMARK                            x       y       z     vdW  Elec       q    Type
REMARK                         _______ _______ _______ _____ _____    ______ ____
ROOT
ATOM      1  S   UNL     1      -3.710  -1.221  -0.578  0.00  0.00    +0.000 S 
ENDROOT
BRANCH   1   2
ATOM      2  C   UNL     1      -5.436  -0.771  -0.722  0.00  0.00    +0.000 A 
ATOM      3  C   UNL     1      -6.333  -1.814  -0.995  0.00  0.00    +0.000 A 
ATOM      4  C   UNL     1      -7.698  -1.560  -1.125  0.00  0.00    +0.000 A 
ATOM      5  C   UNL     1      -8.193  -0.267  -0.988  0.00  0.00    +0.000 A 
ATOM      6  C   UNL     1      -7.313   0.778  -0.718  0.00  0.00    +0.000 A 
ATOM      7  C   UNL     1      -5.942   0.527  -0.586  0.00  0.00    +0.000 A 
ATOM      8 CL   UNL     1      -8.781  -2.856  -1.460  0.00  0.00    +0.000 Cl
ENDBRANCH   1   2
BRANCH   1   9
ATOM      9  C   UNL     1      -2.878   0.357  -0.206  0.00  0.00    +0.000 C 
BRANCH   9  13
ATOM     10  C   UNL     1       1.373  -0.205   0.271  0.00  0.00    +0.000 A 
ATOM     11  C   UNL     1       0.845   0.084  -0.986  0.00  0.00    +0.000 A 
ATOM     12  C   UNL     1      -0.530   0.267  -1.141  0.00  0.00    +0.000 A 
ATOM     13  C   UNL     1      -1.391   0.168  -0.038  0.00  0.00    +0.000 A 
ATOM     14  C   UNL     1      -0.848  -0.134   1.220  0.00  0.00    +0.000 A 
ATOM     15  C   UNL     1       0.527  -0.317   1.373  0.00  0.00    +0.000 A 
ENDBRANCH   9  13
ENDBRANCH   1   9
TORSDOF 3
