REMARK  Name = *****
REMARK  2 active torsions:
REMARK  status: ('A' for Active; 'I' for Inactive)
REMARK    1  A    between atoms: C_1  and  C_2
REMARK    2  A    between atoms: C_5  and  C_7
REMARK                            x       y       z     vdW  Elec       q    Type
REMARK                         _______ _______ _______ _____ _____    ______ ____
ROOT
ATOM      1  C   UNL     1      -2.974   0.717  -0.000  0.00  0.00    +0.000 C 
ATOM      2  C   UNL     1      -3.891   0.490   0.965  0.00  0.00    +0.000 C 
ATOM      3  C   UNL     1      -5.094   1.247   0.661  0.00  0.00    +0.000 A 
ATOM      4  C   UNL     1      -6.287   1.328   1.355  0.00  0.00    +0.000 A 
ATOM      5  C   UNL     1      -7.299   2.141   0.834  0.00  0.00    +0.000 A 
ATOM      6  C   UNL     1      -7.102   2.854  -0.361  0.00  0.00    +0.000 A 
ATOM      7  C   UNL     1      -5.893   2.765  -1.053  0.00  0.00    +0.000 A 
ATOM      8  C   UNL     1      -4.900   1.956  -0.527  0.00  0.00    +0.000 A 
ATOM      9  C   UNL     1      -3.526   1.680  -1.053  0.00  0.00    +0.000 C 
ENDROOT
BRANCH   1  14
ATOM     10  C   UNL     1       1.967  -0.748  -1.204  0.00  0.00    +0.000 C 
ATOM     11  C   UNL     1       0.646  -0.593  -0.533  0.00  0.00    +0.000 A 
ATOM     12  C   UNL     1       0.201  -1.178   0.630  0.00  0.00    +0.000 A 
ATOM     13  C   UNL     1      -1.130  -0.783   0.955  0.00  0.00    +0.000 A 
ATOM     14  C   UNL     1      -1.684   0.097   0.037  0.00  0.00    +0.000 A 
ATOM     15  S   UNL     1      -0.543   0.423  -1.217  0.00  0.00    +0.000 S 
ENDBRANCH   1  14
TORSDOF 1
