MODEL 1
REMARK VINA RESULT:      -4.8      0.000      0.000
REMARK  Name = *****
REMARK  4 active torsions:
REMARK  status: ('A' for Active; 'I' for Inactive)
REMARK    1  A    between atoms: C_4  and  C_17
REMARK    2  A    between atoms: C_5  and  C_7
REMARK    3  A    between atoms: C_7  and  O_9
REMARK    4  A    between atoms: O_9  and  C_10
REMARK                            x       y       z     vdW  Elec       q    Type
REMARK                         _______ _______ _______ _____ _____    ______ ____
ROOT
ATOM      1  C   UNL     1     100.983 130.750  84.710  0.00  0.00    +0.000 A 
ATOM      2  C   UNL     1      99.815 130.805  83.956  0.00  0.00    +0.000 A 
ATOM      3  C   UNL     1      99.319 129.649  83.348  0.00  0.00    +0.000 A 
ATOM      4  C   UNL     1      99.984 128.416  83.483  0.00  0.00    +0.000 A 
ATOM      5  C   UNL     1     101.184 128.380  84.219  0.00  0.00    +0.000 A 
ATOM      6  C   UNL     1     101.666 129.542  84.845  0.00  0.00    +0.000 A 
ENDROOT
BRANCH   4   7
ATOM      7  C   UNL     1      99.394 127.184  82.848  0.00  0.00    +0.000 C 
ATOM      8  F   UNL     1      98.889 126.307  83.763  0.00  0.00    +0.000 F 
ATOM      9  F   UNL     1      98.361 127.469  82.011  0.00  0.00    +0.000 F 
ATOM     10  F   UNL     1     100.294 126.466  82.123  0.00  0.00    +0.000 F 
ENDBRANCH   4   7
BRANCH   5  11
ATOM     11  C   UNL     1     101.990 127.152  84.407  0.00  0.00    +0.000 C 
ATOM     12  O   UNL     1     101.584 126.177  85.019  0.00  0.00    +0.000 OA
BRANCH  11  13
ATOM     13  O   UNL     1     103.250 127.379  83.896  0.00  0.00    +0.000 OA
BRANCH  13  14
ATOM     14  C   UNL     1     103.451 126.820  82.632  0.00  0.00    +0.000 A 
ATOM     15  C   UNL     1     103.635 125.446  82.489  0.00  0.00    +0.000 A 
ATOM     16  C   UNL     1     103.778 124.927  81.208  0.00  0.00    +0.000 A 
ATOM     17  C   UNL     1     103.722 125.750  80.086  0.00  0.00    +0.000 A 
ATOM     18  C   UNL     1     103.515 127.122  80.242  0.00  0.00    +0.000 A 
ATOM     19  C   UNL     1     103.371 127.660  81.521  0.00  0.00    +0.000 A 
ATOM     20  F   UNL     1     103.963 123.609  81.048  0.00  0.00    +0.000 F 
ENDBRANCH  13  14
ENDBRANCH  11  13
ENDBRANCH   5  11
TORSDOF 4
ENDMDL
