MODEL 1
REMARK VINA RESULT:      -4.3      0.000      0.000
REMARK  Name = *****
REMARK  5 active torsions:
REMARK  status: ('A' for Active; 'I' for Inactive)
REMARK    1  A    between atoms: N_2  and  C_3
REMARK    2  A    between atoms: C_6  and  C_9
REMARK    3  A    between atoms: C_9  and  C_10
REMARK    4  A    between atoms: C_10  and  C_11
REMARK    5  A    between atoms: C_16  and  N_17
REMARK                            x       y       z     vdW  Elec       q    Type
REMARK                         _______ _______ _______ _____ _____    ______ ____
ROOT
ATOM      1  C   UNL     1     103.119 126.912  81.559  0.00  0.00    +0.000 C 
ENDROOT
BRANCH   1   5
ATOM      2  C   UNL     1     104.712 122.928  81.677  0.00  0.00    +0.000 A 
ATOM      3  C   UNL     1     104.684 123.615  80.466  0.00  0.00    +0.000 A 
ATOM      4  C   UNL     1     104.170 124.911  80.433  0.00  0.00    +0.000 A 
ATOM      5  C   UNL     1     103.691 125.517  81.606  0.00  0.00    +0.000 A 
ATOM      6  C   UNL     1     103.725 124.802  82.814  0.00  0.00    +0.000 A 
ATOM      7  C   UNL     1     104.239 123.506  82.853  0.00  0.00    +0.000 A 
BRANCH   2   9
ATOM      8  C   UNL     1     105.652 120.548  81.747  0.00  0.00    +0.000 C 
ATOM      9  N   UNL     1     105.222 121.638  81.714  0.00  0.00    +0.000 NA
ENDBRANCH   2   9
ENDBRANCH   1   5
BRANCH   1  10
ATOM     10  C   UNL     1     102.650 127.377  82.942  0.00  0.00    +0.000 C 
BRANCH  10  11
ATOM     11  C   UNL     1     101.160 127.618  82.979  0.00  0.00    +0.000 A 
ATOM     12  C   UNL     1     100.290 126.681  82.404  0.00  0.00    +0.000 A 
ATOM     13  C   UNL     1      98.906 126.875  82.441  0.00  0.00    +0.000 A 
ATOM     14  C   UNL     1      98.369 128.005  83.056  0.00  0.00    +0.000 A 
ATOM     15  C   UNL     1      99.216 128.946  83.638  0.00  0.00    +0.000 A 
ATOM     16  C   UNL     1     100.598 128.745  83.597  0.00  0.00    +0.000 A 
BRANCH  16  17
ATOM     17  N   UNL     1     101.409 129.703  84.198  0.00  0.00    +0.000 NA
ATOM     18  C   UNL     1     102.085 130.511  84.713  0.00  0.00    +0.000 C 
ENDBRANCH  16  17
ENDBRANCH  10  11
ENDBRANCH   1  10
TORSDOF 5
ENDMDL
