MODEL 1
REMARK VINA RESULT:      -4.8      0.000      0.000
REMARK  Name = *****
REMARK  5 active torsions:
REMARK  status: ('A' for Active; 'I' for Inactive)
REMARK    1  A    between atoms: C_1  and  C_2
REMARK    2  A    between atoms: C_5  and  N_8
REMARK    3  A    between atoms: N_8  and  C_9
REMARK    4  A    between atoms: N_8  and  C_10
REMARK    5  A    between atoms: C_11  and  C_12
REMARK                            x       y       z     vdW  Elec       q    Type
REMARK                         _______ _______ _______ _____ _____    ______ ____
ROOT
ATOM      1  N   UNL     1      89.176  70.173  85.532  0.00  0.00    +0.000 N 
ATOM      2  C   UNL     1      90.086  71.131  84.897  0.00  0.00    +0.000 C 
ENDROOT
BRANCH   1   7
ATOM      3  C   UNL     1      84.250  72.363  87.574  0.00  0.00    +0.000 C 
ATOM      4  C   UNL     1      85.543  71.824  87.041  0.00  0.00    +0.000 A 
ATOM      5  C   UNL     1      85.802  71.821  85.668  0.00  0.00    +0.000 A 
ATOM      6  C   UNL     1      86.996  71.286  85.170  0.00  0.00    +0.000 A 
ATOM      7  C   UNL     1      87.962  70.726  86.023  0.00  0.00    +0.000 A 
ATOM      8  C   UNL     1      87.675  70.721  87.399  0.00  0.00    +0.000 A 
ATOM      9  C   UNL     1      86.484  71.257  87.902  0.00  0.00    +0.000 A 
ENDBRANCH   1   7
BRANCH   1  10
ATOM     10  C   UNL     1      89.380  68.797  85.476  0.00  0.00    +0.000 C 
ATOM     11  C   UNL     1      89.854  67.966  86.418  0.00  0.00    +0.000 C 
BRANCH  11  12
ATOM     12  C   UNL     1      90.036  66.520  86.220  0.00  0.00    +0.000 A 
ATOM     13  C   UNL     1      89.119  65.578  86.703  0.00  0.00    +0.000 A 
ATOM     14  C   UNL     1      89.310  64.214  86.467  0.00  0.00    +0.000 A 
ATOM     15  C   UNL     1      90.412  63.780  85.736  0.00  0.00    +0.000 A 
ATOM     16  C   UNL     1      91.323  64.708  85.236  0.00  0.00    +0.000 A 
ATOM     17  C   UNL     1      91.132  66.072  85.472  0.00  0.00    +0.000 A 
ENDBRANCH  11  12
ENDBRANCH   1  10
TORSDOF 3
ENDMDL
