REMARK  Name = *****
REMARK  5 active torsions:
REMARK  status: ('A' for Active; 'I' for Inactive)
REMARK    1  A    between atoms: C_4  and  C_7
REMARK    2  A    between atoms: C_7  and  C_8
REMARK    3  A    between atoms: C_8  and  C_9
REMARK    4  A    between atoms: C_9  and  C_10
REMARK    5  A    between atoms: C_9  and  C_12
REMARK                            x       y       z     vdW  Elec       q    Type
REMARK                         _______ _______ _______ _____ _____    ______ ____
ROOT
ATOM      1  C   UNL     1      -5.043  -0.594  -0.640  0.00  0.00    +0.000 C 
ENDROOT
BRANCH   1   2
ATOM      2  C   UNL     1      -5.771  -1.934  -0.672  0.00  0.00    +0.000 A 
ATOM      3  C   UNL     1      -6.736  -2.231   0.307  0.00  0.00    +0.000 A 
ATOM      4  C   UNL     1      -7.407  -3.456   0.293  0.00  0.00    +0.000 A 
ATOM      5  C   UNL     1      -7.118  -4.387  -0.696  0.00  0.00    +0.000 A 
ATOM      6  C   UNL     1      -6.170  -4.117  -1.674  0.00  0.00    +0.000 A 
ATOM      7  C   UNL     1      -5.496  -2.894  -1.664  0.00  0.00    +0.000 A 
ATOM      8  F   UNL     1      -7.763  -5.561  -0.707  0.00  0.00    +0.000 F 
ENDBRANCH   1   2
BRANCH   1   9
ATOM      9  C   UNL     1      -5.312   0.196  -1.862  0.00  0.00    +0.000 C 
ATOM     10  N   UNL     1      -5.500   0.830  -2.816  0.00  0.00    +0.000 NA
ENDBRANCH   1   9
BRANCH   1  11
ATOM     11  C   UNL     1      -3.530  -0.795  -0.425  0.00  0.00    +0.000 C 
BRANCH  11  12
ATOM     12  C   UNL     1      -2.807   0.516  -0.090  0.00  0.00    +0.000 C 
BRANCH  12  16
ATOM     13  C   UNL     1       1.389  -0.191   0.606  0.00  0.00    +0.000 A 
ATOM     14  C   UNL     1       0.929   0.065  -0.684  0.00  0.00    +0.000 A 
ATOM     15  C   UNL     1      -0.429   0.300  -0.909  0.00  0.00    +0.000 A 
ATOM     16  C   UNL     1      -1.338   0.284   0.158  0.00  0.00    +0.000 A 
ATOM     17  C   UNL     1      -0.866   0.020   1.450  0.00  0.00    +0.000 A 
ATOM     18  C   UNL     1       0.492  -0.214   1.673  0.00  0.00    +0.000 A 
ENDBRANCH  12  16
ENDBRANCH  11  12
ENDBRANCH   1  11
TORSDOF 5
