REMARK  Name = *****
REMARK  4 active torsions:
REMARK  status: ('A' for Active; 'I' for Inactive)
REMARK    1  A    between atoms: C_1  and  C_2
REMARK    2  A    between atoms: C_8  and  O_9
REMARK    3  A    between atoms: O_9  and  C_10
REMARK    4  A    between atoms: C_10  and  C_11
REMARK                            x       y       z     vdW  Elec       q    Type
REMARK                         _______ _______ _______ _____ _____    ______ ____
ROOT
ATOM      1  C   UNL     1       0.763   0.330   0.551  0.00  0.00    +0.000 C 
ATOM      2  C   UNL     1       2.190   0.086   0.053  0.00  0.00    +0.000 C 
ATOM      3  C   UNL     1       3.045   1.309   0.306  0.00  0.00    +0.000 C 
ATOM      4  C   UNL     1       4.095   1.333   1.142  0.00  0.00    +0.000 C 
ATOM      5  C   UNL     1       4.516   0.138   1.951  0.00  0.00    +0.000 C 
ATOM      6  C   UNL     1       3.438  -0.950   2.029  0.00  0.00    +0.000 C 
ATOM      7  C   UNL     1       2.780  -1.164   0.686  0.00  0.00    +0.000 C 
ATOM      8  C   UNL     1       2.750  -2.352   0.063  0.00  0.00    +0.000 C 
ENDROOT
BRANCH   8   9
ATOM      9  O   UNL     1       3.309  -3.484   0.592  0.00  0.00    +0.000 OA
BRANCH   9  10
ATOM     10  C   UNL     1       2.694  -4.681   0.103  0.00  0.00    +0.000 C 
BRANCH  10  11
ATOM     11  C   UNL     1       3.253  -5.885   0.823  0.00  0.00    +0.000 A 
ATOM     12  C   UNL     1       3.511  -5.849   2.201  0.00  0.00    +0.000 A 
ATOM     13  C   UNL     1       3.991  -6.979   2.866  0.00  0.00    +0.000 A 
ATOM     14  C   UNL     1       4.207  -8.162   2.163  0.00  0.00    +0.000 A 
ATOM     15  C   UNL     1       3.941  -8.217   0.796  0.00  0.00    +0.000 A 
ATOM     16  C   UNL     1       3.462  -7.087   0.130  0.00  0.00    +0.000 A 
ENDBRANCH  10  11
ENDBRANCH   9  10
ENDBRANCH   8   9
TORSDOF 3
