MODEL 1
REMARK VINA RESULT:      -4.3      0.000      0.000
REMARK  Name = *****
REMARK  3 active torsions:
REMARK  status: ('A' for Active; 'I' for Inactive)
REMARK    1  A    between atoms: C_4  and  C_5
REMARK    2  A    between atoms: C_5  and  C_6
REMARK    3  A    between atoms: C_6  and  C_7
REMARK                            x       y       z     vdW  Elec       q    Type
REMARK                         _______ _______ _______ _____ _____    ______ ____
ROOT
ATOM      1  C   UNL     1     102.946 126.403  81.561  0.00  0.00    +0.000 C 
ENDROOT
BRANCH   1   5
ATOM      2  C   UNL     1     104.838 121.901  81.073  0.00  0.00    +0.000 C 
ATOM      3  C   UNL     1     104.861 123.202  80.277  0.00  0.00    +0.000 C 
ATOM      4  C   UNL     1     104.248 124.233  81.185  0.00  0.00    +0.000 C 
ATOM      5  C   UNL     1     103.604 125.324  80.742  0.00  0.00    +0.000 C 
ATOM      6  S   UNL     1     104.395 123.794  82.865  0.00  0.00    +0.000 S 
ATOM      7  C   UNL     1     105.261 122.237  82.497  0.00  0.00    +0.000 C 
ENDBRANCH   1   5
BRANCH   1   8
ATOM      8  C   UNL     1     101.604 125.930  82.126  0.00  0.00    +0.000 C 
BRANCH   8   9
ATOM      9  C   UNL     1     100.777 127.082  82.641  0.00  0.00    +0.000 A 
ATOM     10  C   UNL     1      99.387 127.099  82.464  0.00  0.00    +0.000 A 
ATOM     11  C   UNL     1      98.629 128.175  82.927  0.00  0.00    +0.000 A 
ATOM     12  C   UNL     1      99.253 129.246  83.565  0.00  0.00    +0.000 A 
ATOM     13  C   UNL     1     100.635 129.242  83.741  0.00  0.00    +0.000 A 
ATOM     14  C   UNL     1     101.395 128.166  83.279  0.00  0.00    +0.000 A 
ENDBRANCH   8   9
ENDBRANCH   1   8
TORSDOF 3
ENDMDL
