MODEL 1
REMARK VINA RESULT:      -4.7      0.000      0.000
REMARK  Name = *****
REMARK  5 active torsions:
REMARK  status: ('A' for Active; 'I' for Inactive)
REMARK    1  A    between atoms: C_1  and  O_2
REMARK    2  A    between atoms: O_2  and  C_3
REMARK    3  A    between atoms: C_3  and  C_5
REMARK    4  A    between atoms: C_5  and  C_13
REMARK    5  A    between atoms: C_6  and  C_7
REMARK                            x       y       z     vdW  Elec       q    Type
REMARK                         _______ _______ _______ _____ _____    ______ ____
ROOT
ATOM      1  C   UNL     1     103.141 125.752  81.935  0.00  0.00    +0.000 C 
ATOM      2  C   UNL     1     102.040 125.733  82.712  0.00  0.00    +0.000 C 
ENDROOT
BRANCH   1   3
ATOM      3  C   UNL     1     103.945 124.526  81.766  0.00  0.00    +0.000 A 
ATOM      4  C   UNL     1     104.442 124.151  80.509  0.00  0.00    +0.000 A 
ATOM      5  C   UNL     1     105.211 122.992  80.366  0.00  0.00    +0.000 A 
ATOM      6  C   UNL     1     105.487 122.203  81.480  0.00  0.00    +0.000 A 
ATOM      7  C   UNL     1     105.003 122.562  82.736  0.00  0.00    +0.000 A 
ATOM      8  C   UNL     1     104.235 123.722  82.880  0.00  0.00    +0.000 A 
ATOM      9 CL   UNL     1     106.432 120.776  81.304  0.00  0.00    +0.000 Cl
ENDBRANCH   1   3
BRANCH   2  10
ATOM     10  C   UNL     1     101.136 126.864  82.931  0.00  0.00    +0.000 A 
ATOM     11  C   UNL     1      99.839 126.839  82.409  0.00  0.00    +0.000 A 
ATOM     12  C   UNL     1      98.975 127.913  82.625  0.00  0.00    +0.000 A 
ATOM     13  C   UNL     1      99.404 129.016  83.363  0.00  0.00    +0.000 A 
ATOM     14  C   UNL     1     100.697 129.047  83.883  0.00  0.00    +0.000 A 
ATOM     15  C   UNL     1     101.563 127.973  83.669  0.00  0.00    +0.000 A 
ENDBRANCH   2  10
BRANCH   1  16
ATOM     16  C   UNL     1     103.570 127.011  81.266  0.00  0.00    +0.000 C 
ATOM     17  O   UNL     1     103.112 127.437  80.217  0.00  0.00    +0.000 OA
BRANCH  16  19
ATOM     18  C   UNL     1     104.650 129.011  81.789  0.00  0.00    +0.000 C 
ATOM     19  O   UNL     1     104.514 127.612  82.036  0.00  0.00    +0.000 OA
ENDBRANCH  16  19
ENDBRANCH   1  16
TORSDOF 4
ENDMDL
