MODEL 1
REMARK VINA RESULT:      -4.4      0.000      0.000
REMARK  Name = *****
REMARK  5 active torsions:
REMARK  status: ('A' for Active; 'I' for Inactive)
REMARK    1  A    between atoms: C_1  and  N_2
REMARK    2  A    between atoms: N_2  and  C_3
REMARK    3  A    between atoms: N_2  and  C_11
REMARK    4  A    between atoms: C_3  and  S_4
REMARK    5  A    between atoms: S_4  and  C_5
REMARK                            x       y       z     vdW  Elec       q    Type
REMARK                         _______ _______ _______ _____ _____    ______ ____
ROOT
ATOM      1  C   UNL     1      90.852  65.955  85.546  0.00  0.00    +0.000 C 
ATOM      2  N   UNL     1      90.036  66.750  86.475  0.00  0.00    +0.000 N 
ENDROOT
BRANCH   2   3
ATOM      3  C   UNL     1      89.909  68.076  86.012  0.00  0.00    +0.000 A 
ATOM      4  C   UNL     1      89.664  69.172  86.854  0.00  0.00    +0.000 A 
ATOM      5  C   UNL     1      89.538  70.466  86.333  0.00  0.00    +0.000 A 
ATOM      6  C   UNL     1      89.656  70.678  84.963  0.00  0.00    +0.000 A 
ATOM      7  C   UNL     1      89.896  69.609  84.108  0.00  0.00    +0.000 A 
ATOM      8  C   UNL     1      90.018  68.318  84.633  0.00  0.00    +0.000 A 
ATOM      9 CL   UNL     1      89.501  72.268  84.326  0.00  0.00    +0.000 Cl
ENDBRANCH   2   3
BRANCH   2  10
ATOM     10  C   UNL     1      88.800  66.101  86.932  0.00  0.00    +0.000 C 
BRANCH  10  11
ATOM     11  S   UNL     1      88.801  64.329  86.488  0.00  0.00    +0.000 S 
BRANCH  11  12
ATOM     12  C   UNL     1      87.925  63.679  87.898  0.00  0.00    +0.000 A 
ATOM     13  C   UNL     1      88.091  64.285  89.147  0.00  0.00    +0.000 A 
ATOM     14  C   UNL     1      87.414  63.794  90.266  0.00  0.00    +0.000 A 
ATOM     15  C   UNL     1      86.560  62.699  90.138  0.00  0.00    +0.000 A 
ATOM     16  C   UNL     1      86.378  62.100  88.893  0.00  0.00    +0.000 A 
ATOM     17  C   UNL     1      87.054  62.591  87.774  0.00  0.00    +0.000 A 
ENDBRANCH  11  12
ENDBRANCH  10  11
ENDBRANCH   2  10
TORSDOF 4
ENDMDL
