REMARK  Name = *****
REMARK  5 active torsions:
REMARK  status: ('A' for Active; 'I' for Inactive)
REMARK    1  A    between atoms: C_1  and  O_2
REMARK    2  A    between atoms: O_2  and  C_3
REMARK    3  A    between atoms: C_6  and  C_9
REMARK    4  A    between atoms: C_10  and  C_11
REMARK    5  A    between atoms: C_16  and  N_17
REMARK                            x       y       z     vdW  Elec       q    Type
REMARK                         _______ _______ _______ _____ _____    ______ ____
ROOT
ATOM      1  C   UNL     1       5.257   1.697   4.505  0.00  0.00    +0.000 C 
ATOM      2  C   UNL     1       4.844   1.549   5.775  0.00  0.00    +0.000 C 
ENDROOT
BRANCH   1   6
ATOM      3  C   UNL     1       3.108   0.431   1.012  0.00  0.00    +0.000 A 
ATOM      4  C   UNL     1       2.406   0.887   2.126  0.00  0.00    +0.000 A 
ATOM      5  C   UNL     1       3.096   1.297   3.275  0.00  0.00    +0.000 A 
ATOM      6  C   UNL     1       4.494   1.247   3.331  0.00  0.00    +0.000 A 
ATOM      7  C   UNL     1       5.192   0.804   2.202  0.00  0.00    +0.000 A 
ATOM      8  C   UNL     1       4.502   0.396   1.056  0.00  0.00    +0.000 A 
BRANCH   3  10
ATOM      9  C   UNL     1       1.141  -0.023  -0.243  0.00  0.00    +0.000 C 
ATOM     10  O   UNL     1       2.561   0.004  -0.167  0.00  0.00    +0.000 OA
ENDBRANCH   3  10
ENDBRANCH   1   6
BRANCH   2  11
ATOM     11  C   UNL     1       5.630   1.988   6.940  0.00  0.00    +0.000 A 
ATOM     12  C   UNL     1       6.260   3.243   6.944  0.00  0.00    +0.000 A 
ATOM     13  C   UNL     1       6.984   3.680   8.059  0.00  0.00    +0.000 A 
ATOM     14  C   UNL     1       7.084   2.876   9.193  0.00  0.00    +0.000 A 
ATOM     15  C   UNL     1       6.454   1.634   9.218  0.00  0.00    +0.000 A 
ATOM     16  C   UNL     1       5.732   1.205   8.100  0.00  0.00    +0.000 A 
BRANCH  16  17
ATOM     17  N   UNL     1       5.119  -0.042   8.173  0.00  0.00    +0.000 NA
ATOM     18  C   UNL     1       4.607  -1.093   8.261  0.00  0.00    +0.000 C 
ENDBRANCH  16  17
ENDBRANCH   2  11
TORSDOF 4
