REMARK  Name = *****
REMARK  5 active torsions:
REMARK  status: ('A' for Active; 'I' for Inactive)
REMARK    1  A    between atoms: C_1  and  C_2
REMARK    2  A    between atoms: C_2  and  O_4
REMARK    3  A    between atoms: O_4  and  C_5
REMARK    4  A    between atoms: C_5  and  C_13
REMARK    5  A    between atoms: C_6  and  C_7
REMARK                            x       y       z     vdW  Elec       q    Type
REMARK                         _______ _______ _______ _____ _____    ______ ____
ROOT
ATOM      1  C   UNL     1       4.717  -0.320  -1.245  0.00  0.00    +0.000 C 
ATOM      2  C   UNL     1       5.351  -0.222  -0.062  0.00  0.00    +0.000 C 
ENDROOT
BRANCH   2   3
ATOM      3  C   UNL     1       4.651  -0.212   1.223  0.00  0.00    +0.000 A 
ATOM      4  C   UNL     1       4.331  -1.415   1.860  0.00  0.00    +0.000 A 
ATOM      5  C   UNL     1       3.651  -1.405   3.079  0.00  0.00    +0.000 A 
ATOM      6  C   UNL     1       3.288  -0.193   3.665  0.00  0.00    +0.000 A 
ATOM      7  C   UNL     1       3.603   1.010   3.033  0.00  0.00    +0.000 A 
ATOM      8  C   UNL     1       4.283   1.001   1.813  0.00  0.00    +0.000 A 
ENDBRANCH   2   3
BRANCH   1   9
ATOM      9  C   UNL     1       5.436  -0.267  -2.530  0.00  0.00    +0.000 A 
ATOM     10  C   UNL     1       6.539  -1.096  -2.777  0.00  0.00    +0.000 A 
ATOM     11  C   UNL     1       7.206  -1.046  -4.004  0.00  0.00    +0.000 A 
ATOM     12  C   UNL     1       6.774  -0.169  -4.997  0.00  0.00    +0.000 A 
ATOM     13  C   UNL     1       5.674   0.654  -4.768  0.00  0.00    +0.000 A 
ATOM     14  C   UNL     1       5.006   0.603  -3.542  0.00  0.00    +0.000 A 
ENDBRANCH   1   9
BRANCH   1  15
ATOM     15  O   UNL     1       3.318  -0.359  -1.345  0.00  0.00    +0.000 OA
BRANCH  15  17
ATOM     16  C   UNL     1       1.322  -1.574  -1.398  0.00  0.00    +0.000 C 
ATOM     17  C   UNL     1       2.819  -1.637  -1.329  0.00  0.00    +0.000 C 
ATOM     18  O   UNL     1       3.453  -2.684  -1.270  0.00  0.00    +0.000 OA
ENDBRANCH  15  17
ENDBRANCH   1  15
TORSDOF 4
