MODEL 1
REMARK VINA RESULT:      -4.4      0.000      0.000
REMARK  Name = *****
REMARK  2 active torsions:
REMARK  status: ('A' for Active; 'I' for Inactive)
REMARK    1  A    between atoms: C_3  and  C_6
REMARK    2  A    between atoms: C_9  and  C_11
REMARK                            x       y       z     vdW  Elec       q    Type
REMARK                         _______ _______ _______ _____ _____    ______ ____
ROOT
ATOM      1  C   UNL     1     103.023 125.943  81.535  0.00  0.00    +0.000 A 
ATOM      2  C   UNL     1     103.548 125.569  80.312  0.00  0.00    +0.000 A 
ATOM      3  C   UNL     1     104.344 124.392  80.398  0.00  0.00    +0.000 A 
ATOM      4  C   UNL     1     104.407 123.891  81.685  0.00  0.00    +0.000 A 
ATOM      5  S   UNL     1     103.500 124.857  82.771  0.00  0.00    +0.000 S 
ENDROOT
BRANCH   1   8
ATOM      6  C   UNL     1     101.833 128.156  83.942  0.00  0.00    +0.000 C 
ATOM      7  C   UNL     1     102.699 128.046  82.922  0.00  0.00    +0.000 C 
ATOM      8  C   UNL     1     102.142 127.123  81.859  0.00  0.00    +0.000 C 
ATOM      9  C   UNL     1     100.808 126.757  82.475  0.00  0.00    +0.000 C 
ATOM     10  C   UNL     1     100.665 127.359  83.666  0.00  0.00    +0.000 C 
ENDBRANCH   1   8
BRANCH   4  11
ATOM     11  C   UNL     1     105.146 122.675  82.185  0.00  0.00    +0.000 C 
ATOM     12  C   UNL     1     105.181 121.521  81.207  0.00  0.00    +0.000 C 
ATOM     13  C   UNL     1     104.650 120.421  81.765  0.00  0.00    +0.000 C 
ATOM     14  C   UNL     1     104.238 120.722  83.112  0.00  0.00    +0.000 C 
ATOM     15  C   UNL     1     104.513 122.005  83.387  0.00  0.00    +0.000 C 
ENDBRANCH   4  11
TORSDOF 2
ENDMDL
