REMARK  Name = *****
REMARK  2 active torsions:
REMARK  status: ('A' for Active; 'I' for Inactive)
REMARK    1  A    between atoms: C_4  and  C_7
REMARK    2  A    between atoms: C_8  and  C_9
REMARK                            x       y       z     vdW  Elec       q    Type
REMARK                         _______ _______ _______ _____ _____    ______ ____
ROOT
ATOM      1  C   UNL     1       5.588  -4.541  -0.367  0.00  0.00    +0.000 C 
ATOM      2  C   UNL     1       5.001  -3.559  -1.071  0.00  0.00    +0.000 C 
ENDROOT
BRANCH   2   3
ATOM      3  C   UNL     1       4.865  -2.134  -0.575  0.00  0.00    +0.000 C 
ATOM      4  C   UNL     1       5.630  -1.211  -1.539  0.00  0.00    +0.000 C 
ATOM      5  C   UNL     1       5.867   0.206  -1.020  0.00  0.00    +0.000 C 
ATOM      6  C   UNL     1       4.602   0.974  -0.646  0.00  0.00    +0.000 C 
ATOM      7  C   UNL     1       3.985   0.496   0.661  0.00  0.00    +0.000 C 
ATOM      8  C   UNL     1       3.063  -0.693   0.516  0.00  0.00    +0.000 C 
ATOM      9  O   UNL     1       2.054  -0.778   1.221  0.00  0.00    +0.000 OA
ATOM     10  C   UNL     1       3.377  -1.774  -0.495  0.00  0.00    +0.000 C 
ENDBRANCH   2   3
BRANCH   1  14
ATOM     11  C   UNL     1       6.648  -8.751  -0.493  0.00  0.00    +0.000 C 
ATOM     12  C   UNL     1       5.176  -8.381  -0.345  0.00  0.00    +0.000 C 
ATOM     13  C   UNL     1       5.000  -6.928   0.091  0.00  0.00    +0.000 C 
ATOM     14  C   UNL     1       5.724  -5.962  -0.859  0.00  0.00    +0.000 C 
ATOM     15  C   UNL     1       7.207  -6.340  -0.996  0.00  0.00    +0.000 C 
ATOM     16  C   UNL     1       7.377  -7.794  -1.431  0.00  0.00    +0.000 C 
ENDBRANCH   1  14
TORSDOF 2
