MODEL 1
REMARK VINA RESULT:      -4.6      0.000      0.000
REMARK  Name = *****
REMARK  3 active torsions:
REMARK  status: ('A' for Active; 'I' for Inactive)
REMARK    1  A    between atoms: C_3  and  N_8
REMARK    2  A    between atoms: N_8  and  C_9
REMARK    3  A    between atoms: C_9  and  C_11
REMARK                            x       y       z     vdW  Elec       q    Type
REMARK                         _______ _______ _______ _____ _____    ______ ____
ROOT
ATOM      1  N   UNL     1      89.158  63.759  87.965  0.00  0.00    +0.000 N 
ATOM      2  H   UNL     1      90.073  63.497  88.215  0.00  0.00    +0.000 HD
ENDROOT
BRANCH   1   5
ATOM      3  C   UNL     1      87.401  64.063  91.203  0.00  0.00    +0.000 A 
ATOM      4  C   UNL     1      88.322  64.216  90.163  0.00  0.00    +0.000 A 
ATOM      5  C   UNL     1      88.190  63.498  88.964  0.00  0.00    +0.000 A 
ATOM      6  C   UNL     1      87.095  62.645  88.816  0.00  0.00    +0.000 A 
ATOM      7  C   UNL     1      86.174  62.495  89.858  0.00  0.00    +0.000 A 
ATOM      8  C   UNL     1      86.324  63.196  91.051  0.00  0.00    +0.000 A 
ATOM      9 CL   UNL     1      84.822  61.447  89.655  0.00  0.00    +0.000 Cl
ENDBRANCH   1   5
BRANCH   1  10
ATOM     10  C   UNL     1      89.059  64.317  86.693  0.00  0.00    +0.000 C 
ATOM     11  S   UNL     1      89.084  63.523  85.213  0.00  0.00    +0.000 S 
BRANCH  10  12
ATOM     12  C   UNL     1      88.981  65.814  86.743  0.00  0.00    +0.000 A 
ATOM     13  C   UNL     1      87.849  66.470  87.250  0.00  0.00    +0.000 A 
ATOM     14  C   UNL     1      87.812  67.866  87.285  0.00  0.00    +0.000 A 
ATOM     15  C   UNL     1      88.896  68.596  86.812  0.00  0.00    +0.000 A 
ATOM     16  C   UNL     1      90.024  67.959  86.304  0.00  0.00    +0.000 A 
ATOM     17  C   UNL     1      90.070  66.565  86.269  0.00  0.00    +0.000 A 
ATOM     18  F   UNL     1      88.857  69.934  86.848  0.00  0.00    +0.000 F 
ENDBRANCH  10  12
ENDBRANCH   1  10
TORSDOF 3
ENDMDL
