MODEL 1
REMARK VINA RESULT:      -4.0      0.000      0.000
REMARK  Name = *****
REMARK  2 active torsions:
REMARK  status: ('A' for Active; 'I' for Inactive)
REMARK    1  A    between atoms: C_4  and  N_7
REMARK    2  A    between atoms: C_8  and  C_9
REMARK                            x       y       z     vdW  Elec       q    Type
REMARK                         _______ _______ _______ _____ _____    ______ ____
ROOT
ATOM      1  N   UNL     1     101.460 125.907  82.236  0.00  0.00    +0.000 NA
ATOM      2  C   UNL     1     102.737 126.100  82.117  0.00  0.00    +0.000 C 
ENDROOT
BRANCH   1   6
ATOM      3  C   UNL     1      99.230 129.229  83.515  0.00  0.00    +0.000 A 
ATOM      4  C   UNL     1      98.590 128.161  82.887  0.00  0.00    +0.000 A 
ATOM      5  C   UNL     1      99.331 127.056  82.463  0.00  0.00    +0.000 A 
ATOM      6  C   UNL     1     100.716 127.018  82.653  0.00  0.00    +0.000 A 
ATOM      7  C   UNL     1     101.347 128.085  83.298  0.00  0.00    +0.000 A 
ATOM      8  C   UNL     1     100.608 129.190  83.723  0.00  0.00    +0.000 A 
ENDBRANCH   1   6
BRANCH   2   9
ATOM      9  C   UNL     1     103.605 125.029  81.694  0.00  0.00    +0.000 A 
ATOM     10  C   UNL     1     104.051 124.725  80.424  0.00  0.00    +0.000 A 
ATOM     11  C   UNL     1     104.903 123.582  80.410  0.00  0.00    +0.000 A 
ATOM     12  C   UNL     1     105.078 123.056  81.671  0.00  0.00    +0.000 A 
ATOM     13  S   UNL     1     104.217 123.938  82.859  0.00  0.00    +0.000 S 
ENDBRANCH   2   9
TORSDOF 2
ENDMDL
