REMARK  Name = *****
REMARK  4 active torsions:
REMARK  status: ('A' for Active; 'I' for Inactive)
REMARK    1  A    between atoms: C_1  and  C_2
REMARK    2  A    between atoms: C_2  and  C_3
REMARK    3  A    between atoms: C_2  and  O_9
REMARK    4  A    between atoms: O_9  and  C_10
REMARK                            x       y       z     vdW  Elec       q    Type
REMARK                         _______ _______ _______ _____ _____    ______ ____
ROOT
ATOM      1  C   UNL     1       1.117  -0.334  -0.090  0.00  0.00    +0.000 C 
ATOM      2  C   UNL     1       2.601   0.036  -0.066  0.00  0.00    +0.000 C 
ENDROOT
BRANCH   2   3
ATOM      3  C   UNL     1       2.767   1.432   0.522  0.00  0.00    +0.000 A 
ATOM      4  C   UNL     1       2.887   1.640   1.905  0.00  0.00    +0.000 A 
ATOM      5  C   UNL     1       3.019   2.930   2.424  0.00  0.00    +0.000 A 
ATOM      6  C   UNL     1       3.024   4.029   1.568  0.00  0.00    +0.000 A 
ATOM      7  C   UNL     1       2.896   3.841   0.194  0.00  0.00    +0.000 A 
ATOM      8  C   UNL     1       2.766   2.552  -0.327  0.00  0.00    +0.000 A 
ENDBRANCH   2   3
BRANCH   2   9
ATOM      9  O   UNL     1       3.322  -0.899   0.745  0.00  0.00    +0.000 OA
BRANCH   9  10
ATOM     10  C   UNL     1       3.798  -2.051   0.189  0.00  0.00    +0.000 A 
ATOM     11  C   UNL     1       3.603  -2.488  -1.121  0.00  0.00    +0.000 A 
ATOM     12  C   UNL     1       4.157  -3.700  -1.549  0.00  0.00    +0.000 A 
ATOM     13  C   UNL     1       4.904  -4.482  -0.670  0.00  0.00    +0.000 A 
ATOM     14  C   UNL     1       5.097  -4.055   0.640  0.00  0.00    +0.000 A 
ATOM     15  C   UNL     1       4.546  -2.845   1.065  0.00  0.00    +0.000 A 
ENDBRANCH   9  10
ENDBRANCH   2   9
TORSDOF 3
