MODEL 1
REMARK VINA RESULT:      -4.4      0.000      0.000
REMARK  Name = *****
REMARK  5 active torsions:
REMARK  status: ('A' for Active; 'I' for Inactive)
REMARK    1  A    between atoms: C_1  and  O_2
REMARK    2  A    between atoms: O_2  and  C_3
REMARK    3  A    between atoms: C_4  and  C_10
REMARK    4  A    between atoms: C_10  and  C_11
REMARK    5  A    between atoms: C_11  and  C_12
REMARK                            x       y       z     vdW  Elec       q    Type
REMARK                         _______ _______ _______ _____ _____    ______ ____
ROOT
ATOM      1  C   UNL     1      87.744  67.527  87.518  0.00  0.00    +0.000 A 
ATOM      2  C   UNL     1      88.736  68.402  87.017  0.00  0.00    +0.000 A 
ATOM      3  C   UNL     1      89.841  67.853  86.343  0.00  0.00    +0.000 A 
ATOM      4  C   UNL     1      89.983  66.473  86.213  0.00  0.00    +0.000 A 
ATOM      5  C   UNL     1      89.020  65.616  86.732  0.00  0.00    +0.000 A 
ATOM      6  C   UNL     1      87.901  66.141  87.379  0.00  0.00    +0.000 A 
ATOM      7 CL   UNL     1      91.353  65.826  85.398  0.00  0.00    +0.000 Cl
ENDROOT
BRANCH   1   9
ATOM      8  C   UNL     1      85.372  67.799  87.623  0.00  0.00    +0.000 C 
ATOM      9  O   UNL     1      86.665  68.123  88.117  0.00  0.00    +0.000 OA
ENDBRANCH   1   9
BRANCH   2  10
ATOM     10  C   UNL     1      88.563  69.906  87.146  0.00  0.00    +0.000 C 
BRANCH  10  11
ATOM     11  C   UNL     1      87.928  70.657  85.960  0.00  0.00    +0.000 C 
BRANCH  11  12
ATOM     12  C   UNL     1      86.590  71.304  86.235  0.00  0.00    +0.000 A 
ATOM     13  C   UNL     1      86.166  71.501  87.558  0.00  0.00    +0.000 A 
ATOM     14  C   UNL     1      84.942  72.114  87.830  0.00  0.00    +0.000 A 
ATOM     15  C   UNL     1      84.130  72.544  86.784  0.00  0.00    +0.000 A 
ATOM     16  C   UNL     1      84.544  72.366  85.466  0.00  0.00    +0.000 A 
ATOM     17  C   UNL     1      85.768  71.755  85.192  0.00  0.00    +0.000 A 
ENDBRANCH  11  12
ENDBRANCH  10  11
ENDBRANCH   2  10
TORSDOF 4
ENDMDL
