MODEL 1
REMARK VINA RESULT:      -5.1      0.000      0.000
REMARK  Name = *****
REMARK  1 active torsions:
REMARK  status: ('A' for Active; 'I' for Inactive)
REMARK    1  A    between atoms: C_11  and  C_12
REMARK                            x       y       z     vdW  Elec       q    Type
REMARK                         _______ _______ _______ _____ _____    ______ ____
ROOT
ATOM      1  C   UNL     1     100.020 126.843  82.474  0.00  0.00    +0.000 C 
ATOM      2  C   UNL     1      99.030 127.900  82.973  0.00  0.00    +0.000 C 
ATOM      3  C   UNL     1      99.745 129.096  83.557  0.00  0.00    +0.000 A 
ATOM      4  C   UNL     1      99.216 130.385  83.404  0.00  0.00    +0.000 A 
ATOM      5  C   UNL     1      99.856 131.479  83.984  0.00  0.00    +0.000 A 
ATOM      6  C   UNL     1     101.013 131.288  84.732  0.00  0.00    +0.000 A 
ATOM      7  C   UNL     1     101.533 130.004  84.900  0.00  0.00    +0.000 A 
ATOM      8  C   UNL     1     100.922 128.887  84.310  0.00  0.00    +0.000 A 
ATOM      9  C   UNL     1     101.460 127.488  84.518  0.00  0.00    +0.000 C 
ATOM     10  C   UNL     1     100.972 126.418  83.562  0.00  0.00    +0.000 C 
ATOM     11  C   UNL     1     102.444 126.790  83.603  0.00  0.00    +0.000 C 
ENDROOT
BRANCH  11  12
ATOM     12  C   UNL     1     103.149 127.446  82.436  0.00  0.00    +0.000 A 
ATOM     13  C   UNL     1     103.996 128.553  82.604  0.00  0.00    +0.000 A 
ATOM     14  C   UNL     1     104.678 129.127  81.526  0.00  0.00    +0.000 A 
ATOM     15  C   UNL     1     104.544 128.590  80.251  0.00  0.00    +0.000 A 
ATOM     16  C   UNL     1     103.737 127.475  80.057  0.00  0.00    +0.000 A 
ATOM     17  C   UNL     1     103.059 126.908  81.140  0.00  0.00    +0.000 A 
ENDBRANCH  11  12
TORSDOF 1
ENDMDL
