REMARK  Name = *****
REMARK  4 active torsions:
REMARK  status: ('A' for Active; 'I' for Inactive)
REMARK    1  A    between atoms: C_4  and  C_7
REMARK    2  A    between atoms: C_7  and  C_8
REMARK    3  A    between atoms: C_8  and  S_10
REMARK    4  A    between atoms: S_10  and  C_11
REMARK                            x       y       z     vdW  Elec       q    Type
REMARK                         _______ _______ _______ _____ _____    ______ ____
ROOT
ATOM      1  C   UNL     1      -4.230  -0.744   0.873  0.00  0.00    +0.000 C 
ATOM      2  O   UNL     1      -3.838  -1.617   1.638  0.00  0.00    +0.000 OA
ENDROOT
BRANCH   1   3
ATOM      3  C   UNL     1      -3.385   0.403   0.356  0.00  0.00    +0.000 C 
BRANCH   3   7
ATOM      4  C   UNL     1       0.672  -0.760  -0.535  0.00  0.00    +0.000 A 
ATOM      5  C   UNL     1      -0.313  -0.856  -1.517  0.00  0.00    +0.000 A 
ATOM      6  C   UNL     1      -1.626  -0.479  -1.231  0.00  0.00    +0.000 A 
ATOM      7  C   UNL     1      -1.963   0.004   0.042  0.00  0.00    +0.000 A 
ATOM      8  C   UNL     1      -0.968   0.085   1.025  0.00  0.00    +0.000 A 
ATOM      9  C   UNL     1       0.344  -0.293   0.736  0.00  0.00    +0.000 A 
ENDBRANCH   3   7
ENDBRANCH   1   3
BRANCH   1  10
ATOM     10  S   UNL     1      -5.924  -0.691   0.373  0.00  0.00    +0.000 S 
BRANCH  10  11
ATOM     11  C   UNL     1      -5.794  -1.437  -1.240  0.00  0.00    +0.000 A 
ATOM     12  C   UNL     1      -5.189  -2.686  -1.420  0.00  0.00    +0.000 A 
ATOM     13  C   UNL     1      -5.104  -3.250  -2.695  0.00  0.00    +0.000 A 
ATOM     14  C   UNL     1      -5.631  -2.575  -3.794  0.00  0.00    +0.000 A 
ATOM     15  C   UNL     1      -6.245  -1.336  -3.621  0.00  0.00    +0.000 A 
ATOM     16  C   UNL     1      -6.330  -0.770  -2.347  0.00  0.00    +0.000 A 
ENDBRANCH  10  11
ENDBRANCH   1  10
TORSDOF 4
