MODEL 1
REMARK VINA RESULT:      -4.7      0.000      0.000
REMARK  Name = *****
REMARK  3 active torsions:
REMARK  status: ('A' for Active; 'I' for Inactive)
REMARK    1  A    between atoms: C_4  and  C_7
REMARK    2  A    between atoms: C_8  and  C_9
REMARK    3  A    between atoms: C_9  and  C_10
REMARK                            x       y       z     vdW  Elec       q    Type
REMARK                         _______ _______ _______ _____ _____    ______ ____
ROOT
ATOM      1  C   UNL     1      86.828  71.247  86.222  0.00  0.00    +0.000 C 
ATOM      2  C   UNL     1      87.636  70.821  87.208  0.00  0.00    +0.000 C 
ENDROOT
BRANCH   1   6
ATOM      3  C   UNL     1      82.995  73.001  86.943  0.00  0.00    +0.000 A 
ATOM      4  C   UNL     1      83.455  72.870  85.634  0.00  0.00    +0.000 A 
ATOM      5  C   UNL     1      84.709  72.305  85.385  0.00  0.00    +0.000 A 
ATOM      6  C   UNL     1      85.521  71.878  86.444  0.00  0.00    +0.000 A 
ATOM      7  C   UNL     1      85.040  72.001  87.755  0.00  0.00    +0.000 A 
ATOM      8  C   UNL     1      83.786  72.565  88.004  0.00  0.00    +0.000 A 
ENDBRANCH   1   6
BRANCH   2   9
ATOM      9  C   UNL     1      88.972  70.179  86.973  0.00  0.00    +0.000 C 
ATOM     10 BR   UNL     1      89.689  70.875  85.289  0.00  0.00    +0.000 Br
BRANCH   9  11
ATOM     11  C   UNL     1      88.931  68.667  86.930  0.00  0.00    +0.000 A 
ATOM     12  C   UNL     1      87.873  67.929  87.487  0.00  0.00    +0.000 A 
ATOM     13  C   UNL     1      87.873  66.533  87.444  0.00  0.00    +0.000 A 
ATOM     14  C   UNL     1      88.932  65.853  86.848  0.00  0.00    +0.000 A 
ATOM     15  C   UNL     1      89.991  66.567  86.294  0.00  0.00    +0.000 A 
ATOM     16  C   UNL     1      89.993  67.963  86.335  0.00  0.00    +0.000 A 
ENDBRANCH   9  11
ENDBRANCH   2   9
TORSDOF 3
ENDMDL
