MODEL 1
REMARK VINA RESULT:      -4.2      0.000      0.000
REMARK  Name = *****
REMARK  3 active torsions:
REMARK  status: ('A' for Active; 'I' for Inactive)
REMARK    1  A    between atoms: C_3  and  O_8
REMARK    2  A    between atoms: O_8  and  C_9
REMARK    3  A    between atoms: C_9  and  C_10
REMARK                            x       y       z     vdW  Elec       q    Type
REMARK                         _______ _______ _______ _____ _____    ______ ____
ROOT
ATOM      1  O   UNL     1     102.356 125.591  81.527  0.00  0.00    +0.000 OA
ENDROOT
BRANCH   1   4
ATOM      2  C   UNL     1     105.766 125.581  80.129  0.00  0.00    +0.000 C 
ATOM      3  C   UNL     1     104.318 125.076  80.071  0.00  0.00    +0.000 C 
ATOM      4  C   UNL     1     103.568 126.064  80.989  0.00  0.00    +0.000 C 
ATOM      5  C   UNL     1     103.497 127.449  80.314  0.00  0.00    +0.000 C 
ATOM      6  C   UNL     1     104.951 127.937  80.369  0.00  0.00    +0.000 C 
ATOM      7  C   UNL     1     105.677 126.784  81.084  0.00  0.00    +0.000 C 
ATOM      8  C   UNL     1     104.618 126.316  82.077  0.00  0.00    +0.000 C 
ENDBRANCH   1   4
BRANCH   1   9
ATOM      9  C   UNL     1     102.119 125.979  82.880  0.00  0.00    +0.000 C 
BRANCH   9  10
ATOM     10  C   UNL     1     101.046 127.040  82.956  0.00  0.00    +0.000 A 
ATOM     11  C   UNL     1      99.758 126.760  82.471  0.00  0.00    +0.000 A 
ATOM     12  C   UNL     1      98.737 127.706  82.573  0.00  0.00    +0.000 A 
ATOM     13  C   UNL     1      98.986 128.939  83.173  0.00  0.00    +0.000 A 
ATOM     14  C   UNL     1     100.255 129.226  83.670  0.00  0.00    +0.000 A 
ATOM     15  C   UNL     1     101.277 128.280  83.567  0.00  0.00    +0.000 A 
ENDBRANCH   9  10
ENDBRANCH   1   9
TORSDOF 3
ENDMDL
