REMARK  Name = *****
REMARK  2 active torsions:
REMARK  status: ('A' for Active; 'I' for Inactive)
REMARK    1  A    between atoms: C_4  and  C_7
REMARK    2  A    between atoms: N_8  and  C_9
REMARK                            x       y       z     vdW  Elec       q    Type
REMARK                         _______ _______ _______ _____ _____    ______ ____
ROOT
ATOM      1  C   UNL     1      -2.860   0.356  -0.269  0.00  0.00    +0.000 C 
ATOM      2  N   UNL     1      -3.665  -0.623  -0.539  0.00  0.00    +0.000 NA
ENDROOT
BRANCH   2   3
ATOM      3  C   UNL     1      -5.034  -0.327  -0.670  0.00  0.00    +0.000 A 
ATOM      4  C   UNL     1      -5.539   0.674  -1.519  0.00  0.00    +0.000 A 
ATOM      5  C   UNL     1      -6.906   0.905  -1.638  0.00  0.00    +0.000 A 
ATOM      6  C   UNL     1      -7.785   0.118  -0.909  0.00  0.00    +0.000 A 
ATOM      7  C   UNL     1      -7.320  -0.891  -0.071  0.00  0.00    +0.000 A 
ATOM      8  C   UNL     1      -5.946  -1.114   0.042  0.00  0.00    +0.000 A 
ATOM      9  F   UNL     1      -9.103   0.329  -1.016  0.00  0.00    +0.000 F 
ATOM     10  F   UNL     1      -4.700   1.440  -2.233  0.00  0.00    +0.000 F 
ENDBRANCH   2   3
BRANCH   1  14
ATOM     11  C   UNL     1       1.347  -0.185   0.163  0.00  0.00    +0.000 A 
ATOM     12  C   UNL     1       0.537  -1.285  -0.121  0.00  0.00    +0.000 A 
ATOM     13  C   UNL     1      -0.841  -1.119  -0.265  0.00  0.00    +0.000 A 
ATOM     14  C   UNL     1      -1.405   0.152  -0.123  0.00  0.00    +0.000 A 
ATOM     15  C   UNL     1      -0.595   1.256   0.160  0.00  0.00    +0.000 A 
ATOM     16  C   UNL     1       0.783   1.084   0.303  0.00  0.00    +0.000 A 
ENDBRANCH   1  14
TORSDOF 2
