REMARK  Name = *****
REMARK  2 active torsions:
REMARK  status: ('A' for Active; 'I' for Inactive)
REMARK    1  A    between atoms: C_6  and  S_7
REMARK    2  A    between atoms: S_7  and  C_9
REMARK                            x       y       z     vdW  Elec       q    Type
REMARK                         _______ _______ _______ _____ _____    ______ ____
ROOT
ATOM      1  C   UNL     1      -2.220   0.191  -0.190  0.00  0.00    +0.000 C 
ATOM      2  C   UNL     1      -1.427   1.312   0.472  0.00  0.00    +0.000 C 
ATOM      3  S   UNL     1       0.189   1.551  -0.314  0.00  0.00    +0.000 S 
ATOM      4  C   UNL     1       0.937  -0.016  -0.027  0.00  0.00    +0.000 C 
ATOM      5  C   UNL     1       2.449  -0.077  -0.104  0.00  0.00    +0.000 C 
ATOM      6  C   UNL     1       1.763  -0.191   1.229  0.00  0.00    +0.000 C 
ATOM      7  S   UNL     1       0.051  -1.297  -0.825  0.00  0.00    +0.000 S 
ATOM      8  C   UNL     1      -1.577  -1.183  -0.037  0.00  0.00    +0.000 C 
ENDROOT
BRANCH   6   9
ATOM      9  S   UNL     1       1.885  -1.880   1.954  0.00  0.00    +0.000 S 
ATOM     10  O   UNL     1       3.359  -2.156   2.037  0.00  0.00    +0.000 OA
BRANCH   9  11
ATOM     11  C   UNL     1       1.397  -1.369   3.620  0.00  0.00    +0.000 A 
ATOM     12  C   UNL     1       0.040  -1.299   3.953  0.00  0.00    +0.000 A 
ATOM     13  C   UNL     1      -0.351  -0.895   5.232  0.00  0.00    +0.000 A 
ATOM     14  C   UNL     1       0.613  -0.564   6.183  0.00  0.00    +0.000 A 
ATOM     15  C   UNL     1       1.967  -0.641   5.861  0.00  0.00    +0.000 A 
ATOM     16  C   UNL     1       2.358  -1.044   4.583  0.00  0.00    +0.000 A 
ENDBRANCH   9  11
ENDBRANCH   6   9
TORSDOF 2
