MODEL 1
REMARK VINA RESULT:      -4.8      0.000      0.000
REMARK  Name = *****
REMARK  3 active torsions:
REMARK  status: ('A' for Active; 'I' for Inactive)
REMARK    1  A    between atoms: C_4  and  C_7
REMARK    2  A    between atoms: C_7  and  C_9
REMARK    3  A    between atoms: C_9  and  C_12
REMARK                            x       y       z     vdW  Elec       q    Type
REMARK                         _______ _______ _______ _____ _____    ______ ____
ROOT
ATOM      1  C   UNL     1      99.318 127.459  83.349  0.00  0.00    +0.000 C 
ATOM      2  N   UNL     1      98.596 127.243  82.129  0.00  0.00    +0.000 NA
ATOM      3  N   UNL     1      98.121 126.693  83.132  0.00  0.00    +0.000 NA
ENDROOT
BRANCH   1   4
ATOM      4  C   UNL     1      99.122 128.773  84.078  0.00  0.00    +0.000 A 
ATOM      5  C   UNL     1      98.541 128.840  85.359  0.00  0.00    +0.000 A 
ATOM      6  C   UNL     1      98.353 130.060  86.014  0.00  0.00    +0.000 A 
ATOM      7  C   UNL     1      98.745 131.246  85.402  0.00  0.00    +0.000 A 
ATOM      8  C   UNL     1      99.325 131.214  84.138  0.00  0.00    +0.000 A 
ATOM      9  C   UNL     1      99.511 129.992  83.488  0.00  0.00    +0.000 A 
ENDBRANCH   1   4
BRANCH   1  10
ATOM     10  C   UNL     1     100.570 126.683  83.601  0.00  0.00    +0.000 C 
ATOM     11  O   UNL     1     100.653 125.944  84.581  0.00  0.00    +0.000 OA
BRANCH  10  15
ATOM     12  C   UNL     1     103.923 127.014  80.937  0.00  0.00    +0.000 A 
ATOM     13  C   UNL     1     103.160 125.850  80.982  0.00  0.00    +0.000 A 
ATOM     14  C   UNL     1     102.074 125.763  81.853  0.00  0.00    +0.000 A 
ATOM     15  C   UNL     1     101.738 126.841  82.687  0.00  0.00    +0.000 A 
ATOM     16  C   UNL     1     102.513 128.007  82.636  0.00  0.00    +0.000 A 
ATOM     17  C   UNL     1     103.601 128.091  81.761  0.00  0.00    +0.000 A 
ENDBRANCH  10  15
ENDBRANCH   1  10
TORSDOF 3
ENDMDL
