MODEL 1
REMARK VINA RESULT:      -4.5      0.000      0.000
REMARK  Name = *****
REMARK  4 active torsions:
REMARK  status: ('A' for Active; 'I' for Inactive)
REMARK    1  A    between atoms: C_1  and  C_2
REMARK    2  A    between atoms: C_4  and  C_8
REMARK    3  A    between atoms: C_8  and  O_10
REMARK    4  A    between atoms: O_10  and  C_11
REMARK                            x       y       z     vdW  Elec       q    Type
REMARK                         _______ _______ _______ _____ _____    ______ ____
ROOT
ATOM      1  C   UNL     1     102.775 126.897  83.023  0.00  0.00    +0.000 C 
ATOM      2  O   UNL     1     103.762 127.600  83.165  0.00  0.00    +0.000 OA
ENDROOT
BRANCH   1   6
ATOM      3  C   UNL     1      99.372 130.471  84.117  0.00  0.00    +0.000 C 
ATOM      4  C   UNL     1      99.729 129.143  83.515  0.00  0.00    +0.000 A 
ATOM      5  C   UNL     1     101.054 128.683  83.544  0.00  0.00    +0.000 A 
ATOM      6  C   UNL     1     101.384 127.426  83.015  0.00  0.00    +0.000 A 
ATOM      7  C   UNL     1     100.376 126.624  82.466  0.00  0.00    +0.000 A 
ATOM      8  C   UNL     1      99.055 127.071  82.447  0.00  0.00    +0.000 A 
ATOM      9  C   UNL     1      98.732 128.322  82.973  0.00  0.00    +0.000 A 
ENDBRANCH   1   6
BRANCH   1  10
ATOM     10  O   UNL     1     102.772 125.550  82.858  0.00  0.00    +0.000 OA
BRANCH  10  11
ATOM     11  C   UNL     1     103.937 124.987  82.227  0.00  0.00    +0.000 C 
ATOM     12  C   UNL     1     103.745 124.975  80.708  0.00  0.00    +0.000 C 
ATOM     13  C   UNL     1     104.876 124.238  80.000  0.00  0.00    +0.000 C 
ATOM     14  C   UNL     1     105.054 122.824  80.548  0.00  0.00    +0.000 C 
ATOM     15  C   UNL     1     105.240 122.825  82.062  0.00  0.00    +0.000 C 
ATOM     16  C   UNL     1     104.105 123.563  82.764  0.00  0.00    +0.000 C 
ENDBRANCH  10  11
ENDBRANCH   1  10
TORSDOF 3
ENDMDL
