MODEL 1
REMARK VINA RESULT:      -3.6      0.000      0.000
REMARK  Name = *****
REMARK  5 active torsions:
REMARK  status: ('A' for Active; 'I' for Inactive)
REMARK    1  A    between atoms: C_5  and  C_7
REMARK    2  A    between atoms: C_7  and  C_9
REMARK    3  A    between atoms: C_9  and  S_10
REMARK    4  A    between atoms: S_10  and  C_11
REMARK    5  A    between atoms: C_11  and  C_12
REMARK                            x       y       z     vdW  Elec       q    Type
REMARK                         _______ _______ _______ _____ _____    ______ ____
ROOT
ATOM      1  C   UNL     1      87.079  65.078  86.279  0.00  0.00    +0.000 C 
ENDROOT
BRANCH   1   2
ATOM      2  C   UNL     1      88.031  65.376  87.420  0.00  0.00    +0.000 C 
ATOM      3  O   UNL     1      89.165  65.810  87.206  0.00  0.00    +0.000 OA
BRANCH   2   8
ATOM      4  C   UNL     1      86.104  65.659  90.650  0.00  0.00    +0.000 A 
ATOM      5  C   UNL     1      86.754  64.733  91.464  0.00  0.00    +0.000 A 
ATOM      6  C   UNL     1      87.832  64.003  90.962  0.00  0.00    +0.000 A 
ATOM      7  C   UNL     1      88.259  64.206  89.650  0.00  0.00    +0.000 A 
ATOM      8  C   UNL     1      87.621  65.134  88.828  0.00  0.00    +0.000 A 
ATOM      9  C   UNL     1      86.530  65.855  89.333  0.00  0.00    +0.000 A 
ATOM     10  F   UNL     1      89.275  63.456  89.201  0.00  0.00    +0.000 F 
ENDBRANCH   2   8
ENDBRANCH   1   2
BRANCH   1  11
ATOM     11  S   UNL     1      86.736  63.295  86.189  0.00  0.00    +0.000 S 
BRANCH  11  12
ATOM     12  C   UNL     1      85.028  63.321  86.806  0.00  0.00    +0.000 C 
BRANCH  12  13
ATOM     13  C   UNL     1      84.930  62.719  88.186  0.00  0.00    +0.000 A 
ATOM     14  C   UNL     1      83.908  63.108  89.066  0.00  0.00    +0.000 A 
ATOM     15  C   UNL     1      83.828  62.558  90.347  0.00  0.00    +0.000 A 
ATOM     16  C   UNL     1      84.772  61.620  90.759  0.00  0.00    +0.000 A 
ATOM     17  C   UNL     1      85.799  61.231  89.902  0.00  0.00    +0.000 A 
ATOM     18  C   UNL     1      85.880  61.781  88.620  0.00  0.00    +0.000 A 
ATOM     19 CL   UNL     1      84.674  60.942  92.337  0.00  0.00    +0.000 Cl
ENDBRANCH  12  13
ENDBRANCH  11  12
ENDBRANCH   1  11
TORSDOF 5
ENDMDL
