REMARK  Name = *****
REMARK  4 active torsions:
REMARK  status: ('A' for Active; 'I' for Inactive)
REMARK    1  A    between atoms: C_1  and  N_2
REMARK    2  A    between atoms: C_6  and  S_8
REMARK    3  A    between atoms: S_8  and  C_9
REMARK    4  A    between atoms: C_9  and  C_10
REMARK                            x       y       z     vdW  Elec       q    Type
REMARK                         _______ _______ _______ _____ _____    ______ ____
ROOT
ATOM      1  S   UNL     1       6.585   1.113  -0.059  0.00  0.00    +0.000 S 
ENDROOT
BRANCH   1   7
ATOM      2  C   UNL     1       3.600  -3.009  -0.140  0.00  0.00    +0.000 C 
ATOM      3  N   UNL     1       3.806  -1.568  -0.124  0.00  0.00    +0.000 N 
ATOM      4  C   UNL     1       2.829  -0.585  -0.122  0.00  0.00    +0.000 A 
ATOM      5  S   UNL     1       1.174  -0.771  -0.139  0.00  0.00    +0.000 S 
ATOM      6  S   UNL     1       3.613   0.983  -0.097  0.00  0.00    +0.000 S 
ATOM      7  C   UNL     1       5.140   0.163  -0.089  0.00  0.00    +0.000 A 
ATOM      8  N   UNL     1       5.114  -1.129  -0.104  0.00  0.00    +0.000 NA
ENDBRANCH   1   7
BRANCH   1   9
ATOM      9  C   UNL     1       7.828  -0.205  -0.045  0.00  0.00    +0.000 C 
BRANCH   9  10
ATOM     10  C   UNL     1       9.227   0.360   0.003  0.00  0.00    +0.000 A 
ATOM     11  C   UNL     1       9.848   0.621   1.235  0.00  0.00    +0.000 A 
ATOM     12  C   UNL     1      11.137   1.157   1.280  0.00  0.00    +0.000 A 
ATOM     13  C   UNL     1      11.810   1.441   0.095  0.00  0.00    +0.000 A 
ATOM     14  C   UNL     1      11.205   1.197  -1.136  0.00  0.00    +0.000 A 
ATOM     15  C   UNL     1       9.916   0.661  -1.182  0.00  0.00    +0.000 A 
ATOM     16 CL   UNL     1      13.398   2.102   0.151  0.00  0.00    +0.000 Cl
ENDBRANCH   9  10
ENDBRANCH   1   9
TORSDOF 3
