REMARK  Name = *****
REMARK  5 active torsions:
REMARK  status: ('A' for Active; 'I' for Inactive)
REMARK    1  A    between atoms: C_1  and  C_2
REMARK    2  A    between atoms: C_2  and  C_3
REMARK    3  A    between atoms: C_7  and  O_8
REMARK    4  A    between atoms: O_8  and  C_9
REMARK    5  A    between atoms: C_9  and  C_10
REMARK                            x       y       z     vdW  Elec       q    Type
REMARK                         _______ _______ _______ _____ _____    ______ ____
ROOT
ATOM      1  O   UNL     1       3.501   1.738   1.174  0.00  0.00    +0.000 OA
ENDROOT
BRANCH   1   6
ATOM      2  C   UNL     1       2.867  -0.564   0.646  0.00  0.00    +0.000 A 
ATOM      3  C   UNL     1       3.251  -1.834   1.041  0.00  0.00    +0.000 A 
ATOM      4  S   UNL     1       4.500  -1.709   2.202  0.00  0.00    +0.000 S 
ATOM      5  N   UNL     1       4.561  -0.053   2.209  0.00  0.00    +0.000 NA
ATOM      6  C   UNL     1       3.654   0.403   1.351  0.00  0.00    +0.000 A 
BRANCH   2   8
ATOM      7  C   UNL     1       0.461   0.046   0.298  0.00  0.00    +0.000 C 
ATOM      8  C   UNL     1       1.802  -0.248  -0.356  0.00  0.00    +0.000 C 
ENDBRANCH   2   8
ENDBRANCH   1   6
BRANCH   1   9
ATOM      9  C   UNL     1       4.373   2.549   1.957  0.00  0.00    +0.000 C 
BRANCH   9  10
ATOM     10  C   UNL     1       4.078   3.994   1.629  0.00  0.00    +0.000 A 
ATOM     11  C   UNL     1       4.524   4.549   0.421  0.00  0.00    +0.000 A 
ATOM     12  C   UNL     1       4.244   5.880   0.107  0.00  0.00    +0.000 A 
ATOM     13  C   UNL     1       3.511   6.666   0.993  0.00  0.00    +0.000 A 
ATOM     14  C   UNL     1       3.054   6.122   2.192  0.00  0.00    +0.000 A 
ATOM     15  C   UNL     1       3.332   4.791   2.508  0.00  0.00    +0.000 A 
ENDBRANCH   9  10
ENDBRANCH   1   9
TORSDOF 4
