MODEL 1
REMARK VINA RESULT:      -4.8      0.000      0.000
REMARK  Name = *****
REMARK  1 active torsions:
REMARK  status: ('A' for Active; 'I' for Inactive)
REMARK    1  A    between atoms: C_2  and  C_11
REMARK                            x       y       z     vdW  Elec       q    Type
REMARK                         _______ _______ _______ _____ _____    ______ ____
ROOT
ATOM      1  C   UNL     1      88.113  68.275  87.285  0.00  0.00    +0.000 C 
ATOM      2  C   UNL     1      89.184  69.343  87.119  0.00  0.00    +0.000 C 
ATOM      3  C   UNL     1      87.828  69.689  87.650  0.00  0.00    +0.000 C 
ATOM      4  C   UNL     1      87.499  70.229  89.012  0.00  0.00    +0.000 C 
ATOM      5  C   UNL     1      86.456  71.044  88.291  0.00  0.00    +0.000 A 
ATOM      6  C   UNL     1      85.454  71.973  88.420  0.00  0.00    +0.000 A 
ATOM      7  C   UNL     1      84.791  72.360  87.249  0.00  0.00    +0.000 A 
ATOM      8  C   UNL     1      85.147  71.810  85.999  0.00  0.00    +0.000 A 
ATOM      9  C   UNL     1      86.171  70.865  85.896  0.00  0.00    +0.000 A 
ATOM     10  C   UNL     1      86.796  70.514  87.063  0.00  0.00    +0.000 A 
ENDROOT
BRANCH   2  11
ATOM     11  C   UNL     1      89.634  69.757  85.737  0.00  0.00    +0.000 A 
ATOM     12  C   UNL     1      89.710  68.826  84.688  0.00  0.00    +0.000 A 
ATOM     13  C   UNL     1      90.108  69.202  83.403  0.00  0.00    +0.000 A 
ATOM     14  C   UNL     1      90.429  70.529  83.135  0.00  0.00    +0.000 A 
ATOM     15  C   UNL     1      90.348  71.477  84.152  0.00  0.00    +0.000 A 
ATOM     16  C   UNL     1      89.950  71.093  85.435  0.00  0.00    +0.000 A 
ENDBRANCH   2  11
TORSDOF 1
ENDMDL
