REMARK  Name = *****
REMARK  6 active torsions:
REMARK  status: ('A' for Active; 'I' for Inactive)
REMARK    1  A    between atoms: C_1  and  C_2
REMARK    2  A    between atoms: C_3  and  O_9
REMARK    3  A    between atoms: C_4  and  C_8
REMARK    4  A    between atoms: O_9  and  C_10
REMARK    5  A    between atoms: C_10  and  C_12
REMARK    6  A    between atoms: C_12  and  C_13
REMARK                            x       y       z     vdW  Elec       q    Type
REMARK                         _______ _______ _______ _____ _____    ______ ____
ROOT
ATOM      1  O   UNL     1       1.333   2.165   1.116  0.00  0.00    +0.000 OA
ENDROOT
BRANCH   1   4
ATOM      2  C   UNL     1       2.765  -0.325   0.966  0.00  0.00    +0.000 C 
ATOM      3  C   UNL     1       1.362  -0.164   0.459  0.00  0.00    +0.000 A 
ATOM      4  C   UNL     1       0.698   1.072   0.513  0.00  0.00    +0.000 A 
ATOM      5  C   UNL     1      -0.621   1.228   0.056  0.00  0.00    +0.000 A 
ATOM      6  C   UNL     1      -1.257   0.126  -0.526  0.00  0.00    +0.000 A 
ATOM      7  C   UNL     1      -0.599  -1.102  -0.620  0.00  0.00    +0.000 A 
ATOM      8  C   UNL     1       0.700  -1.247  -0.131  0.00  0.00    +0.000 A 
ATOM      9  C   UNL     1      -1.329   2.549   0.144  0.00  0.00    +0.000 C 
ENDBRANCH   1   4
BRANCH   1  10
ATOM     10  C   UNL     1       2.069   2.938   0.223  0.00  0.00    +0.000 C 
ATOM     11  O   UNL     1       2.263   2.710  -0.965  0.00  0.00    +0.000 OA
BRANCH  10  12
ATOM     12  C   UNL     1       2.608   4.148   0.949  0.00  0.00    +0.000 C 
BRANCH  12  13
ATOM     13  C   UNL     1       1.559   5.210   1.153  0.00  0.00    +0.000 A 
ATOM     14  C   UNL     1       0.915   5.351   2.390  0.00  0.00    +0.000 A 
ATOM     15  C   UNL     1      -0.078   6.316   2.562  0.00  0.00    +0.000 A 
ATOM     16  C   UNL     1      -0.440   7.144   1.502  0.00  0.00    +0.000 A 
ATOM     17  C   UNL     1       0.189   7.007   0.266  0.00  0.00    +0.000 A 
ATOM     18  C   UNL     1       1.183   6.043   0.090  0.00  0.00    +0.000 A 
ENDBRANCH  12  13
ENDBRANCH  10  12
ENDBRANCH   1  10
TORSDOF 4
