MODEL 1
REMARK VINA RESULT:      -4.6      0.000      0.000
REMARK  Name = *****
REMARK  4 active torsions:
REMARK  status: ('A' for Active; 'I' for Inactive)
REMARK    1  A    between atoms: C_1  and  C_2
REMARK    2  A    between atoms: C_5  and  S_8
REMARK    3  A    between atoms: S_8  and  C_10
REMARK    4  A    between atoms: C_11  and  C_12
REMARK                            x       y       z     vdW  Elec       q    Type
REMARK                         _______ _______ _______ _____ _____    ______ ____
ROOT
ATOM      1  S   UNL     1      87.023  71.252  83.440  0.00  0.00    +0.000 S 
ATOM      2  O   UNL     1      86.443  71.867  82.199  0.00  0.00    +0.000 OA
ENDROOT
BRANCH   1   7
ATOM      3  C   UNL     1      83.368  72.930  88.053  0.00  0.00    +0.000 C 
ATOM      4  C   UNL     1      84.275  72.546  86.921  0.00  0.00    +0.000 A 
ATOM      5  C   UNL     1      83.922  72.841  85.600  0.00  0.00    +0.000 A 
ATOM      6  C   UNL     1      84.748  72.453  84.543  0.00  0.00    +0.000 A 
ATOM      7  C   UNL     1      85.937  71.762  84.793  0.00  0.00    +0.000 A 
ATOM      8  C   UNL     1      86.281  71.443  86.111  0.00  0.00    +0.000 A 
ATOM      9  C   UNL     1      85.454  71.831  87.169  0.00  0.00    +0.000 A 
ENDBRANCH   1   7
BRANCH   1  10
ATOM     10  C   UNL     1      88.476  72.193  83.860  0.00  0.00    +0.000 C 
ATOM     11  C   UNL     1      89.508  71.679  84.545  0.00  0.00    +0.000 C 
ATOM     12 CL   UNL     1      88.500  73.843  83.355  0.00  0.00    +0.000 Cl
BRANCH  11  13
ATOM     13  C   UNL     1      89.628  70.303  85.036  0.00  0.00    +0.000 A 
ATOM     14  C   UNL     1      89.890  69.241  84.163  0.00  0.00    +0.000 A 
ATOM     15  C   UNL     1      89.998  67.939  84.655  0.00  0.00    +0.000 A 
ATOM     16  C   UNL     1      89.857  67.693  86.019  0.00  0.00    +0.000 A 
ATOM     17  C   UNL     1      89.611  68.748  86.895  0.00  0.00    +0.000 A 
ATOM     18  C   UNL     1      89.501  70.052  86.406  0.00  0.00    +0.000 A 
ENDBRANCH  11  13
ENDBRANCH   1  10
TORSDOF 3
ENDMDL
