MODEL 1
REMARK VINA RESULT:      -5.0      0.000      0.000
REMARK  Name = *****
REMARK  5 active torsions:
REMARK  status: ('A' for Active; 'I' for Inactive)
REMARK    1  A    between atoms: C_1  and  C_2
REMARK    2  A    between atoms: C_2  and  C_13
REMARK    3  A    between atoms: C_4  and  C_5
REMARK    4  A    between atoms: C_7  and  O_11
REMARK    5  A    between atoms: O_11  and  C_12
REMARK                            x       y       z     vdW  Elec       q    Type
REMARK                         _______ _______ _______ _____ _____    ______ ____
ROOT
ATOM      1  C   UNL     1     103.202 125.187  84.355  0.00  0.00    +0.000 C 
ATOM      2  C   UNL     1     103.566 125.367  82.897  0.00  0.00    +0.000 C 
ATOM      3  C   UNL     1     104.154 126.706  82.505  0.00  0.00    +0.000 C 
ATOM      4  C   UNL     1     102.778 126.343  82.010  0.00  0.00    +0.000 C 
ENDROOT
BRANCH   4   5
ATOM      5  C   UNL     1     101.545 127.055  82.523  0.00  0.00    +0.000 A 
ATOM      6  C   UNL     1     100.259 126.528  82.285  0.00  0.00    +0.000 A 
ATOM      7  C   UNL     1      99.106 127.176  82.735  0.00  0.00    +0.000 A 
ATOM      8  C   UNL     1      99.229 128.380  83.427  0.00  0.00    +0.000 A 
ATOM      9  C   UNL     1     100.485 128.932  83.664  0.00  0.00    +0.000 A 
ATOM     10  C   UNL     1     101.629 128.276  83.210  0.00  0.00    +0.000 A 
BRANCH   7  11
ATOM     11  O   UNL     1      97.820 126.744  82.562  0.00  0.00    +0.000 OA
ATOM     12  C   UNL     1      96.944 126.868  83.675  0.00  0.00    +0.000 C 
ENDBRANCH   7  11
ENDBRANCH   4   5
BRANCH   2  13
ATOM     13  C   UNL     1     104.110 124.106  82.234  0.00  0.00    +0.000 A 
ATOM     14  C   UNL     1     104.303 122.921  82.967  0.00  0.00    +0.000 A 
ATOM     15  C   UNL     1     104.814 121.768  82.367  0.00  0.00    +0.000 A 
ATOM     16  C   UNL     1     105.148 121.775  81.016  0.00  0.00    +0.000 A 
ATOM     17  C   UNL     1     104.975 122.935  80.269  0.00  0.00    +0.000 A 
ATOM     18  C   UNL     1     104.464 124.086  80.874  0.00  0.00    +0.000 A 
ENDBRANCH   2  13
TORSDOF 3
ENDMDL
