MODEL 1
REMARK VINA RESULT:      -4.6      0.000      0.000
REMARK  Name = *****
REMARK  7 active torsions:
REMARK  status: ('A' for Active; 'I' for Inactive)
REMARK    1  A    between atoms: C_1  and  C_2
REMARK    2  A    between atoms: C_4  and  C_19
REMARK    3  A    between atoms: C_5  and  C_9
REMARK    4  A    between atoms: C_6  and  C_8
REMARK    5  A    between atoms: C_9  and  C_10
REMARK    6  A    between atoms: C_9  and  C_11
REMARK    7  A    between atoms: C_11  and  C_13
REMARK                            x       y       z     vdW  Elec       q    Type
REMARK                         _______ _______ _______ _____ _____    ______ ____
ROOT
ATOM      1  C   UNL     1      86.816  69.366  86.369  0.00  0.00    +0.000 C 
ATOM      2  C   UNL     1      86.636  68.054  85.593  0.00  0.00    +0.000 C 
ENDROOT
BRANCH   1   7
ATOM      3  C   UNL     1      90.380  73.037  83.469  0.00  0.00    +0.000 C 
ATOM      4  C   UNL     1      89.481  72.104  84.225  0.00  0.00    +0.000 A 
ATOM      5  C   UNL     1      88.110  72.335  84.289  0.00  0.00    +0.000 A 
ATOM      6  C   UNL     1      87.250  71.450  84.965  0.00  0.00    +0.000 A 
ATOM      7  C   UNL     1      87.776  70.296  85.616  0.00  0.00    +0.000 A 
ATOM      8  C   UNL     1      89.165  70.032  85.494  0.00  0.00    +0.000 A 
ATOM      9  C   UNL     1      89.992  70.947  84.814  0.00  0.00    +0.000 A 
ATOM     10  C   UNL     1      89.846  68.821  86.081  0.00  0.00    +0.000 C 
ATOM     11  C   UNL     1      85.779  71.792  84.975  0.00  0.00    +0.000 C 
ENDBRANCH   1   7
BRANCH   1  12
ATOM     12  C   UNL     1      87.154  69.098  87.839  0.00  0.00    +0.000 C 
ATOM     13  O   UNL     1      87.247  67.950  88.281  0.00  0.00    +0.000 OA
BRANCH  12  14
ATOM     14  C   UNL     1      87.329  70.238  88.800  0.00  0.00    +0.000 A 
ATOM     15  C   UNL     1      86.184  70.954  89.186  0.00  0.00    +0.000 A 
ATOM     16  C   UNL     1      86.279  72.035  90.065  0.00  0.00    +0.000 A 
ATOM     17  C   UNL     1      87.519  72.411  90.572  0.00  0.00    +0.000 A 
ATOM     18  C   UNL     1      88.663  71.709  90.197  0.00  0.00    +0.000 A 
ATOM     19  C   UNL     1      88.571  70.628  89.314  0.00  0.00    +0.000 A 
ENDBRANCH  12  14
ENDBRANCH   1  12
TORSDOF 3
ENDMDL
