REMARK  Name = *****
REMARK  3 active torsions:
REMARK  status: ('A' for Active; 'I' for Inactive)
REMARK    1  A    between atoms: C_4  and  C_7
REMARK    2  A    between atoms: C_7  and  C_8
REMARK    3  A    between atoms: C_8  and  C_9
REMARK                            x       y       z     vdW  Elec       q    Type
REMARK                         _______ _______ _______ _____ _____    ______ ____
ROOT
ATOM      1  C   UNL     1      -2.882   0.541  -0.179  0.00  0.00    +0.000 C 
ATOM      2  N   UNL     1      -3.756  -0.486  -0.152  0.00  0.00    +0.000 NA
ATOM      3  O   UNL     1      -3.275  -1.617  -0.286  0.00  0.00    +0.000 OA
ENDROOT
BRANCH   1   7
ATOM      4  C   UNL     1       1.344  -0.143   0.201  0.00  0.00    +0.000 A 
ATOM      5  C   UNL     1       0.567   0.062   1.340  0.00  0.00    +0.000 A 
ATOM      6  C   UNL     1      -0.807   0.280   1.219  0.00  0.00    +0.000 A 
ATOM      7  C   UNL     1      -1.411   0.298  -0.048  0.00  0.00    +0.000 A 
ATOM      8  C   UNL     1      -0.620   0.087  -1.189  0.00  0.00    +0.000 A 
ATOM      9  C   UNL     1       0.753  -0.132  -1.062  0.00  0.00    +0.000 A 
ENDBRANCH   1   7
BRANCH   1  10
ATOM     10  C   UNL     1      -3.332   1.827  -0.299  0.00  0.00    +0.000 C 
ATOM     11  N   UNL     1      -2.457   2.854  -0.328  0.00  0.00    +0.000 NA
ATOM     12  O   UNL     1      -2.941   3.989  -0.245  0.00  0.00    +0.000 OA
BRANCH  10  13
ATOM     13  C   UNL     1      -4.803   2.071  -0.420  0.00  0.00    +0.000 A 
ATOM     14  C   UNL     1      -5.591   2.247   0.729  0.00  0.00    +0.000 A 
ATOM     15  C   UNL     1      -6.965   2.465   0.613  0.00  0.00    +0.000 A 
ATOM     16  C   UNL     1      -7.561   2.510  -0.647  0.00  0.00    +0.000 A 
ATOM     17  C   UNL     1      -6.786   2.340  -1.794  0.00  0.00    +0.000 A 
ATOM     18  C   UNL     1      -5.412   2.122  -1.684  0.00  0.00    +0.000 A 
ENDBRANCH  10  13
ENDBRANCH   1  10
TORSDOF 3
