MODEL 1
REMARK VINA RESULT:      -4.5      0.000      0.000
REMARK  Name = *****
REMARK  3 active torsions:
REMARK  status: ('A' for Active; 'I' for Inactive)
REMARK    1  A    between atoms: C_2  and  C_3
REMARK    2  A    between atoms: C_3  and  C_11
REMARK    3  A    between atoms: N_4  and  C_5
REMARK                            x       y       z     vdW  Elec       q    Type
REMARK                         _______ _______ _______ _____ _____    ______ ____
ROOT
ATOM      1  C   UNL     1     103.205 125.462  81.831  0.00  0.00    +0.000 C 
ATOM      2  N   UNL     1     102.306 125.527  82.769  0.00  0.00    +0.000 NA
ENDROOT
BRANCH   2   3
ATOM      3  C   UNL     1     101.503 126.662  82.952  0.00  0.00    +0.000 A 
ATOM      4  C   UNL     1     100.187 126.677  82.483  0.00  0.00    +0.000 A 
ATOM      5  C   UNL     1      99.375 127.793  82.691  0.00  0.00    +0.000 A 
ATOM      6  C   UNL     1      99.873 128.898  83.383  0.00  0.00    +0.000 A 
ATOM      7  C   UNL     1     101.178 128.882  83.872  0.00  0.00    +0.000 A 
ATOM      8  C   UNL     1     101.988 127.763  83.663  0.00  0.00    +0.000 A 
ENDBRANCH   2   3
BRANCH   1   9
ATOM      9  C   UNL     1     104.058 124.262  81.634  0.00  0.00    +0.000 A 
ATOM     10  C   UNL     1     104.616 123.943  80.388  0.00  0.00    +0.000 A 
ATOM     11  C   UNL     1     105.413 122.804  80.245  0.00  0.00    +0.000 A 
ATOM     12  C   UNL     1     105.658 121.979  81.340  0.00  0.00    +0.000 A 
ATOM     13  C   UNL     1     105.108 122.287  82.583  0.00  0.00    +0.000 A 
ATOM     14  C   UNL     1     104.310 123.424  82.730  0.00  0.00    +0.000 A 
ENDBRANCH   1   9
BRANCH   1  16
ATOM     15  C   UNL     1     103.501 127.554  80.229  0.00  0.00    +0.000 C 
ATOM     16  C   UNL     1     103.364 126.607  80.957  0.00  0.00    +0.000 C 
ENDBRANCH   1  16
TORSDOF 3
ENDMDL
