MODEL 1
REMARK VINA RESULT:      -4.8      0.000      0.000
REMARK  Name = *****
REMARK  4 active torsions:
REMARK  status: ('A' for Active; 'I' for Inactive)
REMARK    1  A    between atoms: C_1  and  C_2
REMARK    2  A    between atoms: C_2  and  C_3
REMARK    3  A    between atoms: C_2  and  C_9
REMARK    4  A    between atoms: C_9  and  C_11
REMARK                            x       y       z     vdW  Elec       q    Type
REMARK                         _______ _______ _______ _____ _____    ______ ____
ROOT
ATOM      1  C   UNL     1      87.391  69.677  84.294  0.00  0.00    +0.000 C 
ATOM      2  C   UNL     1      87.750  70.700  85.387  0.00  0.00    +0.000 C 
ATOM      3 CL   UNL     1      88.535  72.090  84.496  0.00  0.00    +0.000 Cl
ENDROOT
BRANCH   2   4
ATOM      4  C   UNL     1      86.568  71.300  86.153  0.00  0.00    +0.000 A 
ATOM      5  C   UNL     1      85.493  71.880  85.449  0.00  0.00    +0.000 A 
ATOM      6  C   UNL     1      84.406  72.445  86.119  0.00  0.00    +0.000 A 
ATOM      7  C   UNL     1      84.362  72.433  87.509  0.00  0.00    +0.000 A 
ATOM      8  C   UNL     1      85.401  71.849  88.227  0.00  0.00    +0.000 A 
ATOM      9  C   UNL     1      86.491  71.284  87.558  0.00  0.00    +0.000 A 
ENDBRANCH   2   4
BRANCH   2  10
ATOM     10  C   UNL     1      88.824  70.095  86.333  0.00  0.00    +0.000 C 
ATOM     11  O   UNL     1      89.679  70.764  86.919  0.00  0.00    +0.000 OA
BRANCH  10  12
ATOM     12  C   UNL     1      88.853  68.623  86.583  0.00  0.00    +0.000 A 
ATOM     13  C   UNL     1      87.841  67.949  87.273  0.00  0.00    +0.000 A 
ATOM     14  C   UNL     1      87.932  66.568  87.472  0.00  0.00    +0.000 A 
ATOM     15  C   UNL     1      89.034  65.861  86.995  0.00  0.00    +0.000 A 
ATOM     16  C   UNL     1      90.055  66.530  86.324  0.00  0.00    +0.000 A 
ATOM     17  C   UNL     1      89.968  67.909  86.123  0.00  0.00    +0.000 A 
ENDBRANCH  10  12
ENDBRANCH   2  10
TORSDOF 3
ENDMDL
