MODEL 1
REMARK VINA RESULT:      -4.5      0.000      0.000
REMARK  Name = *****
REMARK  5 active torsions:
REMARK  status: ('A' for Active; 'I' for Inactive)
REMARK    1  A    between atoms: C_1  and  C_2
REMARK    2  A    between atoms: C_2  and  C_3
REMARK    3  A    between atoms: C_2  and  O_10
REMARK    4  A    between atoms: C_3  and  C_4
REMARK    5  A    between atoms: O_10  and  C_11
REMARK                            x       y       z     vdW  Elec       q    Type
REMARK                         _______ _______ _______ _____ _____    ______ ____
ROOT
ATOM      1  C   UNL     1      89.665  68.920  84.455  0.00  0.00    +0.000 C 
ATOM      2  C   UNL     1      89.396  68.746  85.950  0.00  0.00    +0.000 C 
ENDROOT
BRANCH   2   3
ATOM      3  C   UNL     1      89.565  70.101  86.667  0.00  0.00    +0.000 C 
BRANCH   3   4
ATOM      4  C   UNL     1      88.270  70.612  87.261  0.00  0.00    +0.000 A 
ATOM      5  C   UNL     1      87.195  70.965  86.435  0.00  0.00    +0.000 A 
ATOM      6  C   UNL     1      86.006  71.447  86.984  0.00  0.00    +0.000 A 
ATOM      7  C   UNL     1      85.879  71.580  88.365  0.00  0.00    +0.000 A 
ATOM      8  C   UNL     1      86.941  71.233  89.198  0.00  0.00    +0.000 A 
ATOM      9  C   UNL     1      88.132  70.753  88.650  0.00  0.00    +0.000 A 
ENDBRANCH   3   4
ENDBRANCH   2   3
BRANCH   2  10
ATOM     10  O   UNL     1      90.376  67.844  86.486  0.00  0.00    +0.000 OA
BRANCH  10  11
ATOM     11  C   UNL     1      90.320  66.518  86.162  0.00  0.00    +0.000 A 
ATOM     12  C   UNL     1      91.264  65.799  85.432  0.00  0.00    +0.000 A 
ATOM     13  C   UNL     1      91.073  64.435  85.183  0.00  0.00    +0.000 A 
ATOM     14  C   UNL     1      89.939  63.785  85.667  0.00  0.00    +0.000 A 
ATOM     15  C   UNL     1      88.995  64.495  86.401  0.00  0.00    +0.000 A 
ATOM     16  C   UNL     1      89.188  65.855  86.647  0.00  0.00    +0.000 A 
ENDBRANCH  10  11
ENDBRANCH   2  10
TORSDOF 4
ENDMDL
