REMARK  Name = *****
REMARK  5 active torsions:
REMARK  status: ('A' for Active; 'I' for Inactive)
REMARK    1  A    between atoms: C_1  and  C_2
REMARK    2  A    between atoms: C_5  and  C_8
REMARK    3  A    between atoms: C_9  and  C_10
REMARK    4  A    between atoms: C_15  and  O_16
REMARK    5  A    between atoms: O_16  and  C_17
REMARK                            x       y       z     vdW  Elec       q    Type
REMARK                         _______ _______ _______ _____ _____    ______ ____
ROOT
ATOM      1  C   UNL     1       6.745   0.084  -0.662  0.00  0.00    +0.000 C 
ATOM      2  C   UNL     1       7.919   0.073  -0.913  0.00  0.00    +0.000 C 
ENDROOT
BRANCH   1   7
ATOM      3  C   UNL     1       1.089   0.057   0.294  0.00  0.00    +0.000 C 
ATOM      4  C   UNL     1       2.574   0.074   0.079  0.00  0.00    +0.000 A 
ATOM      5  C   UNL     1       3.255   1.281  -0.123  0.00  0.00    +0.000 A 
ATOM      6  C   UNL     1       4.633   1.285  -0.356  0.00  0.00    +0.000 A 
ATOM      7  C   UNL     1       5.339   0.083  -0.397  0.00  0.00    +0.000 A 
ATOM      8  C   UNL     1       4.667  -1.125  -0.200  0.00  0.00    +0.000 A 
ATOM      9  C   UNL     1       3.290  -1.129   0.032  0.00  0.00    +0.000 A 
ENDBRANCH   1   7
BRANCH   2  10
ATOM     10  C   UNL     1       9.312   0.064  -1.247  0.00  0.00    +0.000 A 
ATOM     11  C   UNL     1       9.930   1.282  -1.560  0.00  0.00    +0.000 A 
ATOM     12  C   UNL     1      11.292   1.329  -1.865  0.00  0.00    +0.000 A 
ATOM     13  C   UNL     1      12.050   0.159  -1.849  0.00  0.00    +0.000 A 
ATOM     14  C   UNL     1      11.444  -1.058  -1.538  0.00  0.00    +0.000 A 
ATOM     15  C   UNL     1      10.075  -1.112  -1.259  0.00  0.00    +0.000 A 
BRANCH  15  16
ATOM     16  O   UNL     1       9.580  -2.350  -0.937  0.00  0.00    +0.000 OA
ATOM     17  C   UNL     1       8.624  -2.818  -1.887  0.00  0.00    +0.000 C 
ENDBRANCH  15  16
ENDBRANCH   2  10
TORSDOF 3
