MODEL 1
REMARK VINA RESULT:      -4.2      0.000      0.000
REMARK  Name = *****
REMARK  5 active torsions:
REMARK  status: ('A' for Active; 'I' for Inactive)
REMARK    1  A    between atoms: C_1  and  S_2
REMARK    2  A    between atoms: S_2  and  C_3
REMARK    3  A    between atoms: C_6  and  S_9
REMARK    4  A    between atoms: S_9  and  C_10
REMARK    5  A    between atoms: C_10  and  C_11
REMARK                            x       y       z     vdW  Elec       q    Type
REMARK                         _______ _______ _______ _____ _____    ______ ____
ROOT
ATOM      1  C   UNL     1      88.876  65.875  86.784  0.00  0.00    +0.000 A 
ATOM      2  C   UNL     1      87.841  66.624  87.351  0.00  0.00    +0.000 A 
ATOM      3  C   UNL     1      87.898  68.022  87.352  0.00  0.00    +0.000 A 
ATOM      4  C   UNL     1      88.998  68.684  86.800  0.00  0.00    +0.000 A 
ATOM      5  C   UNL     1      90.031  67.935  86.232  0.00  0.00    +0.000 A 
ATOM      6  C   UNL     1      89.975  66.537  86.233  0.00  0.00    +0.000 A 
ENDROOT
BRANCH   1   8
ATOM      7  C   UNL     1      90.145  63.764  85.569  0.00  0.00    +0.000 C 
ATOM      8  S   UNL     1      88.839  64.093  86.781  0.00  0.00    +0.000 S 
ENDBRANCH   1   8
BRANCH   4   9
ATOM      9  S   UNL     1      89.096  70.462  86.775  0.00  0.00    +0.000 S 
BRANCH   9  10
ATOM     10  C   UNL     1      87.662  70.830  85.709  0.00  0.00    +0.000 C 
BRANCH  10  11
ATOM     11  C   UNL     1      86.505  71.372  86.509  0.00  0.00    +0.000 A 
ATOM     12  C   UNL     1      86.517  71.316  87.910  0.00  0.00    +0.000 A 
ATOM     13  C   UNL     1      85.441  71.810  88.648  0.00  0.00    +0.000 A 
ATOM     14  C   UNL     1      84.339  72.360  87.995  0.00  0.00    +0.000 A 
ATOM     15  C   UNL     1      84.311  72.413  86.602  0.00  0.00    +0.000 A 
ATOM     16  C   UNL     1      85.386  71.919  85.862  0.00  0.00    +0.000 A 
ENDBRANCH  10  11
ENDBRANCH   9  10
ENDBRANCH   4   9
TORSDOF 4
ENDMDL
