MODEL 1
REMARK VINA RESULT:      -4.7      0.000      0.000
REMARK  Name = *****
REMARK  3 active torsions:
REMARK  status: ('A' for Active; 'I' for Inactive)
REMARK    1  A    between atoms: C_1  and  C_2
REMARK    2  A    between atoms: C_1  and  C_9
REMARK    3  A    between atoms: C_2  and  C_3
REMARK                            x       y       z     vdW  Elec       q    Type
REMARK                         _______ _______ _______ _____ _____    ______ ____
ROOT
ATOM      1  C   UNL     1      88.687  70.192  86.925  0.00  0.00    +0.000 C 
ATOM      2  F   UNL     1      89.904  70.802  87.077  0.00  0.00    +0.000 F 
ENDROOT
BRANCH   1   3
ATOM      3  C   UNL     1      88.818  68.683  86.896  0.00  0.00    +0.000 A 
ATOM      4  C   UNL     1      87.816  67.868  87.445  0.00  0.00    +0.000 A 
ATOM      5  C   UNL     1      87.948  66.479  87.430  0.00  0.00    +0.000 A 
ATOM      6  C   UNL     1      89.079  65.890  86.869  0.00  0.00    +0.000 A 
ATOM      7  C   UNL     1      90.080  66.690  86.320  0.00  0.00    +0.000 A 
ATOM      8  C   UNL     1      89.951  68.079  86.334  0.00  0.00    +0.000 A 
ENDBRANCH   1   3
BRANCH   1   9
ATOM      9  C   UNL     1      87.777  70.645  88.076  0.00  0.00    +0.000 C 
BRANCH   9  10
ATOM     10  C   UNL     1      86.508  71.303  87.582  0.00  0.00    +0.000 A 
ATOM     11  C   UNL     1      85.528  71.732  88.488  0.00  0.00    +0.000 A 
ATOM     12  C   UNL     1      84.353  72.330  88.028  0.00  0.00    +0.000 A 
ATOM     13  C   UNL     1      84.144  72.500  86.661  0.00  0.00    +0.000 A 
ATOM     14  C   UNL     1      85.111  72.074  85.752  0.00  0.00    +0.000 A 
ATOM     15  C   UNL     1      86.286  71.477  86.209  0.00  0.00    +0.000 A 
ENDBRANCH   9  10
ENDBRANCH   1   9
TORSDOF 3
ENDMDL
