MODEL 1
REMARK VINA RESULT:      -4.3      0.000      0.000
REMARK  Name = *****
REMARK  2 active torsions:
REMARK  status: ('A' for Active; 'I' for Inactive)
REMARK    1  A    between atoms: C_4  and  C_7
REMARK    2  A    between atoms: C_8  and  C_9
REMARK                            x       y       z     vdW  Elec       q    Type
REMARK                         _______ _______ _______ _____ _____    ______ ____
ROOT
ATOM      1  C   UNL     1     103.232 125.970  81.069  0.00  0.00    +0.000 C 
ATOM      2  C   UNL     1     102.359 125.788  82.074  0.00  0.00    +0.000 C 
ATOM      3 CL   UNL     1     103.384 127.417  80.134  0.00  0.00    +0.000 Cl
ENDROOT
BRANCH   1   7
ATOM      4  C   UNL     1     106.016 122.873  80.088  0.00  0.00    +0.000 A 
ATOM      5  C   UNL     1     105.123 122.700  81.144  0.00  0.00    +0.000 A 
ATOM      6  C   UNL     1     104.212 123.710  81.462  0.00  0.00    +0.000 A 
ATOM      7  C   UNL     1     104.188 124.903  80.726  0.00  0.00    +0.000 A 
ATOM      8  C   UNL     1     105.090 125.065  79.664  0.00  0.00    +0.000 A 
ATOM      9  C   UNL     1     106.000 124.053  79.348  0.00  0.00    +0.000 A 
ENDBRANCH   1   7
BRANCH   2  10
ATOM     10  C   UNL     1     101.393 126.738  82.516  0.00  0.00    +0.000 A 
ATOM     11  C   UNL     1     100.011 126.747  82.415  0.00  0.00    +0.000 A 
ATOM     12  C   UNL     1      99.410 127.894  83.011  0.00  0.00    +0.000 A 
ATOM     13  C   UNL     1     100.347 128.729  83.572  0.00  0.00    +0.000 A 
ATOM     14  S   UNL     1     101.933 128.125  83.391  0.00  0.00    +0.000 S 
ENDBRANCH   2  10
TORSDOF 2
ENDMDL
