MODEL 1
REMARK VINA RESULT:      -4.5      0.000      0.000
REMARK  Name = *****
REMARK  5 active torsions:
REMARK  status: ('A' for Active; 'I' for Inactive)
REMARK    1  A    between atoms: C_4  and  C_7
REMARK    2  A    between atoms: C_7  and  N_8
REMARK    3  A    between atoms: N_8  and  C_9
REMARK    4  A    between atoms: N_8  and  N_17
REMARK    5  A    between atoms: C_12  and  C_15
REMARK                            x       y       z     vdW  Elec       q    Type
REMARK                         _______ _______ _______ _____ _____    ______ ____
ROOT
ATOM      1  N   UNL     1     103.300 126.684  81.549  0.00  0.00    +0.000 N 
ENDROOT
BRANCH   1   2
ATOM      2  C   UNL     1     103.787 125.342  81.622  0.00  0.00    +0.000 A 
ATOM      3  C   UNL     1     103.822 124.595  82.815  0.00  0.00    +0.000 A 
ATOM      4  C   UNL     1     104.298 123.276  82.850  0.00  0.00    +0.000 A 
ATOM      5  C   UNL     1     104.754 122.658  81.686  0.00  0.00    +0.000 A 
ATOM      6  C   UNL     1     104.725 123.365  80.487  0.00  0.00    +0.000 A 
ATOM      7  C   UNL     1     104.244 124.682  80.459  0.00  0.00    +0.000 A 
BRANCH   5   8
ATOM      8  C   UNL     1     105.243 121.312  81.722  0.00  0.00    +0.000 C 
ATOM      9  N   UNL     1     105.639 120.221  81.747  0.00  0.00    +0.000 NA
ENDBRANCH   5   8
ENDBRANCH   1   2
BRANCH   1  10
ATOM     10  N   UNL     1     103.410 127.382  80.382  0.00  0.00    +0.000 NA
ATOM     11  O   UNL     1     104.178 128.348  80.441  0.00  0.00    +0.000 OA
ENDBRANCH   1  10
BRANCH   1  12
ATOM     12  C   UNL     1     102.813 127.284  82.816  0.00  0.00    +0.000 C 
BRANCH  12  16
ATOM     13  C   UNL     1      98.556 128.062  83.021  0.00  0.00    +0.000 A 
ATOM     14  C   UNL     1      99.005 126.876  82.445  0.00  0.00    +0.000 A 
ATOM     15  C   UNL     1     100.374 126.604  82.373  0.00  0.00    +0.000 A 
ATOM     16  C   UNL     1     101.312 127.509  82.891  0.00  0.00    +0.000 A 
ATOM     17  C   UNL     1     100.841 128.707  83.458  0.00  0.00    +0.000 A 
ATOM     18  C   UNL     1      99.473 128.979  83.525  0.00  0.00    +0.000 A 
ENDBRANCH  12  16
ENDBRANCH   1  12
TORSDOF 5
ENDMDL
