MODEL 1
REMARK VINA RESULT:      -4.8      0.000      0.000
REMARK  Name = *****
REMARK  4 active torsions:
REMARK  status: ('A' for Active; 'I' for Inactive)
REMARK    1  A    between atoms: C_1  and  C_2
REMARK    2  A    between atoms: C_2  and  C_11
REMARK    3  A    between atoms: C_4  and  C_5
REMARK    4  A    between atoms: C_14  and  C_17
REMARK                            x       y       z     vdW  Elec       q    Type
REMARK                         _______ _______ _______ _____ _____    ______ ____
ROOT
ATOM      1  C   UNL     1      95.333 117.502  79.227  0.00  0.00    +0.000 C 
ATOM      2  C   UNL     1      96.723 116.992  79.538  0.00  0.00    +0.000 C 
ATOM      3  C   UNL     1      97.621 116.702  78.353  0.00  0.00    +0.000 C 
ATOM      4  C   UNL     1      97.119 115.549  79.184  0.00  0.00    +0.000 C 
ENDROOT
BRANCH   4   5
ATOM      5  C   UNL     1      96.114 114.565  78.632  0.00  0.00    +0.000 A 
ATOM      6  C   UNL     1      95.931 114.392  77.250  0.00  0.00    +0.000 A 
ATOM      7  C   UNL     1      95.014 113.465  76.745  0.00  0.00    +0.000 A 
ATOM      8  C   UNL     1      94.264 112.682  77.618  0.00  0.00    +0.000 A 
ATOM      9  C   UNL     1      94.436 112.822  78.991  0.00  0.00    +0.000 A 
ATOM     10  C   UNL     1      95.355 113.751  79.489  0.00  0.00    +0.000 A 
ENDBRANCH   4   5
BRANCH   2  11
ATOM     11  C   UNL     1      97.340 117.597  80.794  0.00  0.00    +0.000 A 
ATOM     12  C   UNL     1      97.079 117.059  82.066  0.00  0.00    +0.000 A 
ATOM     13  C   UNL     1      97.631 117.617  83.223  0.00  0.00    +0.000 A 
ATOM     14  C   UNL     1      98.458 118.738  83.133  0.00  0.00    +0.000 A 
ATOM     15  C   UNL     1      98.725 119.297  81.881  0.00  0.00    +0.000 A 
ATOM     16  C   UNL     1      98.168 118.731  80.730  0.00  0.00    +0.000 A 
BRANCH  14  17
ATOM     17  C   UNL     1      99.026 119.315  84.316  0.00  0.00    +0.000 C 
ATOM     18  N   UNL     1      99.484 119.782  85.274  0.00  0.00    +0.000 NA
ENDBRANCH  14  17
ENDBRANCH   2  11
TORSDOF 3
ENDMDL
