MODEL 1
REMARK VINA RESULT:      -4.2      0.000      0.000
REMARK  Name = *****
REMARK  6 active torsions:
REMARK  status: ('A' for Active; 'I' for Inactive)
REMARK    1  A    between atoms: C_1  and  C_2
REMARK    2  A    between atoms: C_5  and  S_8
REMARK    3  A    between atoms: S_8  and  C_9
REMARK    4  A    between atoms: C_9  and  C_10
REMARK    5  A    between atoms: C_12  and  O_17
REMARK    6  A    between atoms: O_17  and  C_18
REMARK                            x       y       z     vdW  Elec       q    Type
REMARK                         _______ _______ _______ _____ _____    ______ ____
ROOT
ATOM      1  C   UNL     1      88.514  65.750  87.680  0.00  0.00    +0.000 C 
ENDROOT
BRANCH   1   2
ATOM      2  C   UNL     1      87.878  66.727  86.669  0.00  0.00    +0.000 C 
ATOM      3  C   UNL     1      88.532  66.607  85.274  0.00  0.00    +0.000 C 
ATOM      4  C   UNL     1      89.929  67.234  85.178  0.00  0.00    +0.000 C 
ATOM      5  C   UNL     1      89.905  68.687  85.661  0.00  0.00    +0.000 C 
ATOM      6  C   UNL     1      89.308  68.811  87.062  0.00  0.00    +0.000 C 
ATOM      7  C   UNL     1      87.907  68.197  87.131  0.00  0.00    +0.000 C 
ATOM      8 CL   UNL     1      89.222  70.541  87.520  0.00  0.00    +0.000 Cl
BRANCH   4   9
ATOM      9  O   UNL     1      90.876  66.525  85.982  0.00  0.00    +0.000 OA
ATOM     10  C   UNL     1      91.465  65.416  85.315  0.00  0.00    +0.000 C 
ENDBRANCH   4   9
ENDBRANCH   1   2
BRANCH   1  11
ATOM     11  S   UNL     1      88.364  64.012  87.123  0.00  0.00    +0.000 S 
BRANCH  11  16
ATOM     12  C   UNL     1      85.006  61.573  91.595  0.00  0.00    +0.000 C 
ATOM     13  C   UNL     1      85.861  62.166  90.515  0.00  0.00    +0.000 A 
ATOM     14  C   UNL     1      86.512  63.388  90.718  0.00  0.00    +0.000 A 
ATOM     15  C   UNL     1      87.280  63.961  89.699  0.00  0.00    +0.000 A 
ATOM     16  C   UNL     1      87.409  63.320  88.463  0.00  0.00    +0.000 A 
ATOM     17  C   UNL     1      86.734  62.115  88.251  0.00  0.00    +0.000 A 
ATOM     18  C   UNL     1      85.965  61.541  89.269  0.00  0.00    +0.000 A 
ENDBRANCH  11  16
ENDBRANCH   1  11
TORSDOF 4
ENDMDL
