MODEL 1
REMARK VINA RESULT:      -3.9      0.000      0.000
REMARK  Name = *****
REMARK  3 active torsions:
REMARK  status: ('A' for Active; 'I' for Inactive)
REMARK    1  A    between atoms: N_3  and  C_8
REMARK    2  A    between atoms: C_8  and  C_9
REMARK    3  A    between atoms: C_9  and  C_10
REMARK                            x       y       z     vdW  Elec       q    Type
REMARK                         _______ _______ _______ _____ _____    ______ ____
ROOT
ATOM      1  C   UNL     1      88.474  69.695  87.519  0.00  0.00    +0.000 C 
ENDROOT
BRANCH   1   4
ATOM      2  C   UNL     1      90.391  66.754  86.073  0.00  0.00    +0.000 C 
ATOM      3  C   UNL     1      89.734  68.116  86.101  0.00  0.00    +0.000 C 
ATOM      4  N   UNL     1      88.698  68.287  87.122  0.00  0.00    +0.000 N 
ATOM      5  C   UNL     1      87.764  67.288  87.441  0.00  0.00    +0.000 C 
ATOM      6  S   UNL     1      86.295  67.546  88.230  0.00  0.00    +0.000 S 
ATOM      7  S   UNL     1      88.181  65.609  87.106  0.00  0.00    +0.000 S 
ATOM      8  C   UNL     1      89.350  65.712  85.757  0.00  0.00    +0.000 C 
ENDBRANCH   1   4
BRANCH   1   9
ATOM      9  C   UNL     1      88.027  70.587  86.353  0.00  0.00    +0.000 C 
BRANCH   9  10
ATOM     10  C   UNL     1      86.706  71.257  86.641  0.00  0.00    +0.000 A 
ATOM     11  C   UNL     1      86.272  71.441  87.959  0.00  0.00    +0.000 A 
ATOM     12  C   UNL     1      85.039  72.043  88.218  0.00  0.00    +0.000 A 
ATOM     13  C   UNL     1      84.229  72.459  87.164  0.00  0.00    +0.000 A 
ATOM     14  C   UNL     1      84.650  72.274  85.848  0.00  0.00    +0.000 A 
ATOM     15  C   UNL     1      85.883  71.675  85.586  0.00  0.00    +0.000 A 
ENDBRANCH   9  10
ENDBRANCH   1   9
TORSDOF 3
ENDMDL
