MODEL 1
REMARK VINA RESULT:      -4.7      0.000      0.000
REMARK  Name = *****
REMARK  3 active torsions:
REMARK  status: ('A' for Active; 'I' for Inactive)
REMARK    1  A    between atoms: C_1  and  C_2
REMARK    2  A    between atoms: C_1  and  C_8
REMARK    3  A    between atoms: C_8  and  C_9
REMARK                            x       y       z     vdW  Elec       q    Type
REMARK                         _______ _______ _______ _____ _____    ______ ____
ROOT
ATOM      1  C   UNL     1      88.721  70.300  87.030  0.00  0.00    +0.000 C 
ATOM      2  F   UNL     1      89.945  70.897  86.876  0.00  0.00    +0.000 F 
ENDROOT
BRANCH   1   3
ATOM      3  C   UNL     1      88.820  68.792  86.947  0.00  0.00    +0.000 A 
ATOM      4  C   UNL     1      87.814  67.982  87.491  0.00  0.00    +0.000 A 
ATOM      5  C   UNL     1      87.912  66.591  87.429  0.00  0.00    +0.000 A 
ATOM      6  C   UNL     1      89.019  65.996  86.825  0.00  0.00    +0.000 A 
ATOM      7  C   UNL     1      90.026  66.791  86.281  0.00  0.00    +0.000 A 
ATOM      8  C   UNL     1      89.929  68.182  86.341  0.00  0.00    +0.000 A 
ENDBRANCH   1   3
BRANCH   1   9
ATOM      9  C   UNL     1      87.782  70.853  85.948  0.00  0.00    +0.000 C 
BRANCH   9  10
ATOM     10  C   UNL     1      86.505  71.420  86.528  0.00  0.00    +0.000 A 
ATOM     11  C   UNL     1      86.304  71.443  87.914  0.00  0.00    +0.000 A 
ATOM     12  C   UNL     1      85.121  71.954  88.450  0.00  0.00    +0.000 A 
ATOM     13  C   UNL     1      84.128  72.447  87.606  0.00  0.00    +0.000 A 
ATOM     14  C   UNL     1      84.317  72.428  86.225  0.00  0.00    +0.000 A 
ATOM     15  C   UNL     1      85.499  71.916  85.687  0.00  0.00    +0.000 A 
ENDBRANCH   9  10
ENDBRANCH   1   9
TORSDOF 3
ENDMDL
