MODEL 1
REMARK VINA RESULT:      -4.8      0.000      0.000
REMARK  Name = *****
REMARK  1 active torsions:
REMARK  status: ('A' for Active; 'I' for Inactive)
REMARK    1  A    between atoms: C_2  and  C_7
REMARK                            x       y       z     vdW  Elec       q    Type
REMARK                         _______ _______ _______ _____ _____    ______ ____
ROOT
ATOM      1  C   UNL     1     102.114 125.993  82.546  0.00  0.00    +0.000 A 
ATOM      2  N   UNL     1     102.662 125.132  83.387  0.00  0.00    +0.000 NA
ATOM      3  C   UNL     1     103.583 124.465  82.619  0.00  0.00    +0.000 A 
ATOM      4  C   UNL     1     104.477 123.436  82.938  0.00  0.00    +0.000 A 
ATOM      5  C   UNL     1     105.312 122.946  81.921  0.00  0.00    +0.000 A 
ATOM      6  C   UNL     1     105.256 123.470  80.623  0.00  0.00    +0.000 A 
ATOM      7  C   UNL     1     104.365 124.499  80.289  0.00  0.00    +0.000 A 
ATOM      8  C   UNL     1     103.558 124.954  81.324  0.00  0.00    +0.000 A 
ATOM      9  O   UNL     1     102.615 125.938  81.267  0.00  0.00    +0.000 OA
ENDROOT
BRANCH   1  11
ATOM     10  C   UNL     1     101.386 128.187  83.431  0.00  0.00    +0.000 A 
ATOM     11  C   UNL     1     101.063 126.978  82.795  0.00  0.00    +0.000 A 
ATOM     12  C   UNL     1      99.730 126.757  82.418  0.00  0.00    +0.000 A 
ATOM     13  C   UNL     1      98.747 127.719  82.670  0.00  0.00    +0.000 A 
ATOM     14  C   UNL     1      99.085 128.913  83.302  0.00  0.00    +0.000 A 
ATOM     15  C   UNL     1     100.404 129.149  83.683  0.00  0.00    +0.000 A 
ENDBRANCH   1  11
TORSDOF 1
ENDMDL
