REMARK  Name = *****
REMARK  3 active torsions:
REMARK  status: ('A' for Active; 'I' for Inactive)
REMARK    1  A    between atoms: C_4  and  C_7
REMARK    2  A    between atoms: C_8  and  C_9
REMARK    3  A    between atoms: C_8  and  C_11
REMARK                            x       y       z     vdW  Elec       q    Type
REMARK                         _______ _______ _______ _____ _____    ______ ____
ROOT
ATOM      1  C   UNL     1      -2.842   0.204  -0.382  0.00  0.00    +0.000 C 
ATOM      2  C   UNL     1      -3.745  -0.776  -0.176  0.00  0.00    +0.000 C 
ENDROOT
BRANCH   2   3
ATOM      3  C   UNL     1      -5.178  -0.470  -0.380  0.00  0.00    +0.000 A 
ATOM      4  C   UNL     1      -5.647  -0.024  -1.628  0.00  0.00    +0.000 A 
ATOM      5  C   UNL     1      -7.002   0.259  -1.816  0.00  0.00    +0.000 A 
ATOM      6  C   UNL     1      -7.890   0.095  -0.760  0.00  0.00    +0.000 A 
ATOM      7  C   UNL     1      -7.450  -0.349   0.481  0.00  0.00    +0.000 A 
ATOM      8  C   UNL     1      -6.095  -0.634   0.672  0.00  0.00    +0.000 A 
ATOM      9  F   UNL     1      -9.188   0.367  -0.941  0.00  0.00    +0.000 F 
ENDBRANCH   2   3
BRANCH   1  13
ATOM     10  C   UNL     1       1.391  -0.046   0.123  0.00  0.00    +0.000 A 
ATOM     11  C   UNL     1       0.755  -0.891  -0.785  0.00  0.00    +0.000 A 
ATOM     12  C   UNL     1      -0.629  -0.821  -0.956  0.00  0.00    +0.000 A 
ATOM     13  C   UNL     1      -1.387   0.089  -0.210  0.00  0.00    +0.000 A 
ATOM     14  C   UNL     1      -0.739   0.943   0.691  0.00  0.00    +0.000 A 
ATOM     15  C   UNL     1       0.645   0.872   0.860  0.00  0.00    +0.000 A 
ENDBRANCH   1  13
BRANCH   2  16
ATOM     16  C   UNL     1      -3.380  -2.083   0.278  0.00  0.00    +0.000 C 
ATOM     17  N   UNL     1      -3.105  -3.150   0.644  0.00  0.00    +0.000 NA
ENDBRANCH   2  16
TORSDOF 3
