REMARK  Name = *****
REMARK  2 active torsions:
REMARK  status: ('A' for Active; 'I' for Inactive)
REMARK    1  A    between atoms: C_6  and  C_8
REMARK    2  A    between atoms: C_9  and  C_10
REMARK                            x       y       z     vdW  Elec       q    Type
REMARK                         _______ _______ _______ _____ _____    ______ ____
ROOT
ATOM      1  C   UNL     1      -2.153   1.536   1.217  0.00  0.00    +0.000 C 
ATOM      2  C   UNL     1      -2.071   2.874   1.283  0.00  0.00    +0.000 C 
ENDROOT
BRANCH   1   8
ATOM      3  C   UNL     1      -0.064   0.043  -1.364  0.00  0.00    +0.000 C 
ATOM      4  C   UNL     1      -0.063  -1.109  -0.350  0.00  0.00    +0.000 C 
ATOM      5  C   UNL     1       1.205  -0.728   0.395  0.00  0.00    +0.000 C 
ATOM      6  C   UNL     1       1.247   0.620   0.438  0.00  0.00    +0.000 C 
ATOM      7  C   UNL     1       0.002   1.127  -0.275  0.00  0.00    +0.000 C 
ATOM      8  C   UNL     1      -1.226   0.689   0.521  0.00  0.00    +0.000 C 
ATOM      9  C   UNL     1      -1.260  -0.660   0.471  0.00  0.00    +0.000 C 
ENDBRANCH   1   8
BRANCH   2  10
ATOM     10  C   UNL     1      -3.038   3.717   2.002  0.00  0.00    +0.000 A 
ATOM     11  C   UNL     1      -3.563   3.354   3.249  0.00  0.00    +0.000 A 
ATOM     12  C   UNL     1      -4.455   4.197   3.917  0.00  0.00    +0.000 A 
ATOM     13  C   UNL     1      -4.822   5.416   3.350  0.00  0.00    +0.000 A 
ATOM     14  C   UNL     1      -4.293   5.795   2.119  0.00  0.00    +0.000 A 
ATOM     15  C   UNL     1      -3.401   4.953   1.451  0.00  0.00    +0.000 A 
ENDBRANCH   2  10
TORSDOF 2
