MODEL 1
REMARK VINA RESULT:      -4.8      0.000      0.000
REMARK  Name = *****
REMARK  1 active torsions:
REMARK  status: ('A' for Active; 'I' for Inactive)
REMARK    1  A    between atoms: C_8  and  C_10
REMARK                            x       y       z     vdW  Elec       q    Type
REMARK                         _______ _______ _______ _____ _____    ______ ____
ROOT
ATOM      1  C   UNL     1     105.271 123.100  81.557  0.00  0.00    +0.000 A 
ATOM      2  C   UNL     1     105.258 123.761  80.322  0.00  0.00    +0.000 A 
ATOM      3  C   UNL     1     104.395 124.837  80.077  0.00  0.00    +0.000 A 
ATOM      4  C   UNL     1     103.566 125.192  81.134  0.00  0.00    +0.000 A 
ATOM      5  C   UNL     1     103.546 124.567  82.369  0.00  0.00    +0.000 A 
ATOM      6  C   UNL     1     104.416 123.492  82.598  0.00  0.00    +0.000 A 
ATOM      7  N   UNL     1     102.615 125.164  83.179  0.00  0.00    +0.000 NA
ATOM      8  C   UNL     1     102.105 126.119  82.421  0.00  0.00    +0.000 A 
ATOM      9  O   UNL     1     102.641 126.193  81.158  0.00  0.00    +0.000 OA
ENDROOT
BRANCH   8  10
ATOM     10  C   UNL     1     101.063 127.090  82.748  0.00  0.00    +0.000 A 
ATOM     11  C   UNL     1     101.353 128.303  83.389  0.00  0.00    +0.000 A 
ATOM     12  C   UNL     1     100.329 129.205  83.684  0.00  0.00    +0.000 A 
ATOM     13  C   UNL     1      99.008 128.918  83.347  0.00  0.00    +0.000 A 
ATOM     14  C   UNL     1      98.706 127.717  82.710  0.00  0.00    +0.000 A 
ATOM     15  C   UNL     1      99.727 126.810  82.413  0.00  0.00    +0.000 A 
ATOM     16 CL   UNL     1     100.702 130.691  84.471  0.00  0.00    +0.000 Cl
ENDBRANCH   8  10
TORSDOF 1
ENDMDL
