MODEL 1
REMARK VINA RESULT:      -4.0      0.000      0.000
REMARK  Name = *****
REMARK  3 active torsions:
REMARK  status: ('A' for Active; 'I' for Inactive)
REMARK    1  A    between atoms: C_6  and  S_9
REMARK    2  A    between atoms: S_9  and  C_10
REMARK    3  A    between atoms: C_10  and  C_11
REMARK                            x       y       z     vdW  Elec       q    Type
REMARK                         _______ _______ _______ _____ _____    ______ ____
ROOT
ATOM      1  C   UNL     1     105.162 121.973  81.800  0.00  0.00    +0.000 C 
ATOM      2  C   UNL     1     105.055 122.590  80.403  0.00  0.00    +0.000 C 
ATOM      3  C   UNL     1     105.337 124.062  80.667  0.00  0.00    +0.000 C 
ATOM      4  C   UNL     1     104.721 125.081  79.720  0.00  0.00    +0.000 C 
ATOM      5  S   UNL     1     104.336 126.491  80.821  0.00  0.00    +0.000 S 
ATOM      6  C   UNL     1     104.162 125.415  82.191  0.00  0.00    +0.000 C 
ATOM      7  N   UNL     1     104.659 124.252  81.980  0.00  0.00    +0.000 NA
ATOM      8  C   UNL     1     104.503 122.991  82.735  0.00  0.00    +0.000 C 
ENDROOT
BRANCH   6   9
ATOM      9  S   UNL     1     103.271 125.882  83.591  0.00  0.00    +0.000 S 
BRANCH   9  10
ATOM     10  C   UNL     1     102.760 127.572  83.154  0.00  0.00    +0.000 C 
BRANCH  10  11
ATOM     11  C   UNL     1     101.260 127.675  83.064  0.00  0.00    +0.000 A 
ATOM     12  C   UNL     1     100.507 126.655  82.462  0.00  0.00    +0.000 A 
ATOM     13  C   UNL     1      99.118 126.763  82.370  0.00  0.00    +0.000 A 
ATOM     14  C   UNL     1      98.469 127.887  82.874  0.00  0.00    +0.000 A 
ATOM     15  C   UNL     1      99.206 128.908  83.468  0.00  0.00    +0.000 A 
ATOM     16  C   UNL     1     100.594 128.805  83.561  0.00  0.00    +0.000 A 
ENDBRANCH  10  11
ENDBRANCH   9  10
ENDBRANCH   6   9
TORSDOF 3
ENDMDL
