MODEL 1
REMARK VINA RESULT:      -4.4      0.000      0.000
REMARK  Name = *****
REMARK  5 active torsions:
REMARK  status: ('A' for Active; 'I' for Inactive)
REMARK    1  A    between atoms: C_1  and  P_2
REMARK    2  A    between atoms: P_2  and  N_4
REMARK    3  A    between atoms: P_2  and  O_12
REMARK    4  A    between atoms: N_4  and  C_5
REMARK    5  A    between atoms: O_12  and  C_13
REMARK                            x       y       z     vdW  Elec       q    Type
REMARK                         _______ _______ _______ _____ _____    ______ ____
ROOT
ATOM      1  C   UNL     1      90.182  63.805  85.306  0.00  0.00    +0.000 C 
ATOM      2  P   UNL     1      88.999  64.901  86.170  0.00  0.00    +0.000 P 
ATOM      3  O   UNL     1      87.913  64.399  85.205  0.00  0.00    +0.000 OA
ENDROOT
BRANCH   2   4
ATOM      4  N   UNL     1      89.234  63.919  87.511  0.00  0.00    +0.000 N 
ATOM      5  H   UNL     1      90.124  63.515  87.626  0.00  0.00    +0.000 HD
BRANCH   4   6
ATOM      6  C   UNL     1      88.260  63.627  88.482  0.00  0.00    +0.000 A 
ATOM      7  C   UNL     1      88.309  64.147  89.780  0.00  0.00    +0.000 A 
ATOM      8  C   UNL     1      87.365  63.764  90.740  0.00  0.00    +0.000 A 
ATOM      9  C   UNL     1      86.379  62.838  90.415  0.00  0.00    +0.000 A 
ATOM     10  C   UNL     1      86.332  62.286  89.139  0.00  0.00    +0.000 A 
ATOM     11  C   UNL     1      87.275  62.674  88.182  0.00  0.00    +0.000 A 
ATOM     12 CL   UNL     1      85.225  62.363  91.598  0.00  0.00    +0.000 Cl
ENDBRANCH   4   6
ENDBRANCH   2   4
BRANCH   2  13
ATOM     13  O   UNL     1      87.879  65.938  86.987  0.00  0.00    +0.000 OA
BRANCH  13  14
ATOM     14  C   UNL     1      88.234  67.246  87.177  0.00  0.00    +0.000 A 
ATOM     15  C   UNL     1      89.346  67.821  86.568  0.00  0.00    +0.000 A 
ATOM     16  C   UNL     1      89.644  69.165  86.802  0.00  0.00    +0.000 A 
ATOM     17  C   UNL     1      88.825  69.928  87.635  0.00  0.00    +0.000 A 
ATOM     18  C   UNL     1      87.701  69.353  88.226  0.00  0.00    +0.000 A 
ATOM     19  C   UNL     1      87.402  68.011  87.992  0.00  0.00    +0.000 A 
ENDBRANCH  13  14
ENDBRANCH   2  13
TORSDOF 4
ENDMDL
