MODEL 1
REMARK VINA RESULT:      -5.5      0.000      0.000
REMARK  Name = *****
REMARK  2 active torsions:
REMARK  status: ('A' for Active; 'I' for Inactive)
REMARK    1  A    between atoms: C_1  and  C_2
REMARK    2  A    between atoms: C_5  and  C_8
REMARK                            x       y       z     vdW  Elec       q    Type
REMARK                         _______ _______ _______ _____ _____    ______ ____
ROOT
ATOM      1  C   UNL     1     102.894 125.751  81.741  0.00  0.00    +0.000 C 
ATOM      2  O   UNL     1     103.193 125.890  80.554  0.00  0.00    +0.000 OA
ATOM      3  N   UNL     1     103.454 124.653  82.418  0.00  0.00    +0.000 N 
ATOM      4  C   UNL     1     104.249 123.627  81.926  0.00  0.00    +0.000 A 
ATOM      5  C   UNL     1     104.519 122.854  83.050  0.00  0.00    +0.000 A 
ATOM      6  C   UNL     1     105.310 121.702  82.936  0.00  0.00    +0.000 A 
ATOM      7  C   UNL     1     105.807 121.367  81.674  0.00  0.00    +0.000 A 
ATOM      8  C   UNL     1     105.530 122.150  80.552  0.00  0.00    +0.000 A 
ATOM      9  C   UNL     1     104.740 123.303  80.653  0.00  0.00    +0.000 A 
ATOM     10 CL   UNL     1     106.781 119.958  81.501  0.00  0.00    +0.000 Cl
ATOM     11  N   UNL     1     103.918 123.405  84.144  0.00  0.00    +0.000 NA
ATOM     12  N   UNL     1     103.283 124.501  83.757  0.00  0.00    +0.000 NA
ENDROOT
BRANCH   1  17
ATOM     13  C   UNL     1      99.224 129.576  84.105  0.00  0.00    +0.000 C 
ATOM     14  C   UNL     1     100.192 128.594  83.511  0.00  0.00    +0.000 A 
ATOM     15  C   UNL     1     101.569 128.839  83.534  0.00  0.00    +0.000 A 
ATOM     16  C   UNL     1     102.465 127.929  82.964  0.00  0.00    +0.000 A 
ATOM     17  C   UNL     1     101.988 126.768  82.346  0.00  0.00    +0.000 A 
ATOM     18  C   UNL     1     100.609 126.516  82.331  0.00  0.00    +0.000 A 
ATOM     19  C   UNL     1      99.718 127.427  82.903  0.00  0.00    +0.000 A 
ENDBRANCH   1  17
TORSDOF 1
ENDMDL
