MODEL 1
REMARK VINA RESULT:      -4.5      0.000      0.000
REMARK  Name = *****
REMARK  3 active torsions:
REMARK  status: ('A' for Active; 'I' for Inactive)
REMARK    1  A    between atoms: C_4  and  C_7
REMARK    2  A    between atoms: C_7  and  S_9
REMARK    3  A    between atoms: S_9  and  C_10
REMARK                            x       y       z     vdW  Elec       q    Type
REMARK                         _______ _______ _______ _____ _____    ______ ____
ROOT
ATOM      1  C   UNL     1     100.514 127.187  83.073  0.00  0.00    +0.000 C 
ATOM      2  O   UNL     1      99.702 126.774  82.254  0.00  0.00    +0.000 OA
ENDROOT
BRANCH   1   6
ATOM      3  C   UNL     1     100.535 131.270  84.443  0.00  0.00    +0.000 A 
ATOM      4  C   UNL     1      99.400 130.781  83.799  0.00  0.00    +0.000 A 
ATOM      5  C   UNL     1      99.362 129.457  83.345  0.00  0.00    +0.000 A 
ATOM      6  C   UNL     1     100.465 128.610  83.534  0.00  0.00    +0.000 A 
ATOM      7  C   UNL     1     101.601 129.118  84.185  0.00  0.00    +0.000 A 
ATOM      8  C   UNL     1     101.635 130.439  84.637  0.00  0.00    +0.000 A 
ENDBRANCH   1   6
BRANCH   1   9
ATOM      9  S   UNL     1     101.775 126.140  83.724  0.00  0.00    +0.000 S 
BRANCH   9  10
ATOM     10  C   UNL     1     102.826 125.918  82.304  0.00  0.00    +0.000 A 
ATOM     11  C   UNL     1     103.487 124.698  82.115  0.00  0.00    +0.000 A 
ATOM     12  C   UNL     1     104.294 124.503  80.991  0.00  0.00    +0.000 A 
ATOM     13  C   UNL     1     104.432 125.526  80.060  0.00  0.00    +0.000 A 
ATOM     14  C   UNL     1     103.776 126.740  80.229  0.00  0.00    +0.000 A 
ATOM     15  C   UNL     1     102.968 126.936  81.352  0.00  0.00    +0.000 A 
ATOM     16  F   UNL     1     105.203 125.338  78.982  0.00  0.00    +0.000 F 
ENDBRANCH   9  10
ENDBRANCH   1   9
TORSDOF 3
ENDMDL
