MODEL 1
REMARK VINA RESULT:      -4.6      0.000      0.000
REMARK  Name = *****
REMARK  6 active torsions:
REMARK  status: ('A' for Active; 'I' for Inactive)
REMARK    1  A    between atoms: C_1  and  C_2
REMARK    2  A    between atoms: C_2  and  N_3
REMARK    3  A    between atoms: C_2  and  N_10
REMARK    4  A    between atoms: N_3  and  C_4
REMARK    5  A    between atoms: N_10  and  C_11
REMARK    6  A    between atoms: N_10  and  C_12
REMARK                            x       y       z     vdW  Elec       q    Type
REMARK                         _______ _______ _______ _____ _____    ______ ____
ROOT
ATOM      1  C   UNL     1      88.035  64.077  85.271  0.00  0.00    +0.000 C 
ATOM      2  C   UNL     1      89.041  64.445  86.367  0.00  0.00    +0.000 C 
ENDROOT
BRANCH   2   3
ATOM      3  N   UNL     1      89.262  63.645  87.378  0.00  0.00    +0.000 N 
ATOM      4  H   UNL     1      90.084  63.103  87.385  0.00  0.00    +0.000 HD
BRANCH   3   5
ATOM      5  C   UNL     1      88.368  63.536  88.446  0.00  0.00    +0.000 A 
ATOM      6  C   UNL     1      87.225  62.740  88.341  0.00  0.00    +0.000 A 
ATOM      7  C   UNL     1      86.349  62.613  89.420  0.00  0.00    +0.000 A 
ATOM      8  C   UNL     1      86.623  63.271  90.620  0.00  0.00    +0.000 A 
ATOM      9  C   UNL     1      87.776  64.047  90.740  0.00  0.00    +0.000 A 
ATOM     10  C   UNL     1      88.649  64.171  89.658  0.00  0.00    +0.000 A 
ENDBRANCH   3   5
ENDBRANCH   2   3
BRANCH   2  11
ATOM     11  N   UNL     1      89.721  65.670  86.226  0.00  0.00    +0.000 N 
ATOM     12  C   UNL     1      90.967  65.795  85.472  0.00  0.00    +0.000 C 
BRANCH  11  13
ATOM     13  C   UNL     1      89.183  66.905  86.674  0.00  0.00    +0.000 A 
ATOM     14  C   UNL     1      89.866  68.116  86.461  0.00  0.00    +0.000 A 
ATOM     15  C   UNL     1      89.341  69.340  86.891  0.00  0.00    +0.000 A 
ATOM     16  C   UNL     1      88.116  69.373  87.546  0.00  0.00    +0.000 A 
ATOM     17  C   UNL     1      87.415  68.194  87.774  0.00  0.00    +0.000 A 
ATOM     18  C   UNL     1      87.945  66.972  87.342  0.00  0.00    +0.000 A 
ATOM     19 CL   UNL     1      87.464  70.874  88.075  0.00  0.00    +0.000 Cl
ENDBRANCH  11  13
ENDBRANCH   2  11
TORSDOF 4
ENDMDL
