MODEL 1
REMARK VINA RESULT:      -4.7      0.000      0.000
REMARK  Name = *****
REMARK  5 active torsions:
REMARK  status: ('A' for Active; 'I' for Inactive)
REMARK    1  A    between atoms: C_1  and  C_2
REMARK    2  A    between atoms: C_4  and  C_8
REMARK    3  A    between atoms: C_8  and  O_9
REMARK    4  A    between atoms: O_9  and  C_10
REMARK    5  A    between atoms: C_10  and  C_12
REMARK                            x       y       z     vdW  Elec       q    Type
REMARK                         _______ _______ _______ _____ _____    ______ ____
ROOT
ATOM      1  O   UNL     1      99.950 126.671  82.110  0.00  0.00    +0.000 OA
ENDROOT
BRANCH   1   2
ATOM      2  C   UNL     1      98.891 127.143  82.820  0.00  0.00    +0.000 C 
ATOM      3  O   UNL     1      97.746 126.720  82.738  0.00  0.00    +0.000 OA
BRANCH   2   4
ATOM      4  C   UNL     1      99.337 128.252  83.751  0.00  0.00    +0.000 C 
ATOM      5  C   UNL     1      98.504 128.211  85.034  0.00  0.00    +0.000 C 
ATOM      6  C   UNL     1      98.856 129.365  85.969  0.00  0.00    +0.000 C 
ATOM      7  C   UNL     1      98.745 130.715  85.268  0.00  0.00    +0.000 C 
ATOM      8  C   UNL     1      99.580 130.757  83.992  0.00  0.00    +0.000 C 
ATOM      9  C   UNL     1      99.224 129.609  83.049  0.00  0.00    +0.000 C 
ENDBRANCH   2   4
ENDBRANCH   1   2
BRANCH   1  10
ATOM     10  C   UNL     1     101.130 126.478  82.895  0.00  0.00    +0.000 C 
BRANCH  10  14
ATOM     11  C   UNL     1     104.692 123.866  80.444  0.00  0.00    +0.000 C 
ATOM     12  C   UNL     1     104.044 125.173  80.794  0.00  0.00    +0.000 A 
ATOM     13  C   UNL     1     102.937 125.216  81.653  0.00  0.00    +0.000 A 
ATOM     14  C   UNL     1     102.314 126.434  81.964  0.00  0.00    +0.000 A 
ATOM     15  C   UNL     1     102.801 127.614  81.384  0.00  0.00    +0.000 A 
ATOM     16  C   UNL     1     103.892 127.577  80.517  0.00  0.00    +0.000 A 
ATOM     17  C   UNL     1     104.509 126.362  80.221  0.00  0.00    +0.000 A 
ENDBRANCH  10  14
ENDBRANCH   1  10
TORSDOF 4
ENDMDL
