MODEL 1
REMARK VINA RESULT:      -4.7      0.000      0.000
REMARK  Name = *****
REMARK  3 active torsions:
REMARK  status: ('A' for Active; 'I' for Inactive)
REMARK    1  A    between atoms: C_4  and  C_7
REMARK    2  A    between atoms: C_8  and  C_16
REMARK    3  A    between atoms: C_9  and  C_10
REMARK                            x       y       z     vdW  Elec       q    Type
REMARK                         _______ _______ _______ _____ _____    ______ ____
ROOT
ATOM      1  C   UNL     1     102.756 126.902  82.495  0.00  0.00    +0.000 C 
ATOM      2  C   UNL     1     103.783 127.855  81.922  0.00  0.00    +0.000 C 
ATOM      3  C   UNL     1     103.261 126.720  81.070  0.00  0.00    +0.000 C 
ENDROOT
BRANCH   1   7
ATOM      4  C   UNL     1      98.715 128.284  83.247  0.00  0.00    +0.000 A 
ATOM      5  C   UNL     1      98.927 127.073  82.596  0.00  0.00    +0.000 A 
ATOM      6  C   UNL     1     100.229 126.629  82.353  0.00  0.00    +0.000 A 
ATOM      7  C   UNL     1     101.345 127.385  82.744  0.00  0.00    +0.000 A 
ATOM      8  C   UNL     1     101.104 128.598  83.412  0.00  0.00    +0.000 A 
ATOM      9  C   UNL     1      99.804 129.047  83.658  0.00  0.00    +0.000 A 
ENDBRANCH   1   7
BRANCH   3  10
ATOM     10  C   UNL     1     104.098 125.511  80.718  0.00  0.00    +0.000 A 
ATOM     11  C   UNL     1     103.924 124.282  81.376  0.00  0.00    +0.000 A 
ATOM     12  C   UNL     1     104.683 123.158  81.040  0.00  0.00    +0.000 A 
ATOM     13  C   UNL     1     105.630 123.237  80.024  0.00  0.00    +0.000 A 
ATOM     14  C   UNL     1     105.813 124.437  79.344  0.00  0.00    +0.000 A 
ATOM     15  C   UNL     1     105.051 125.557  79.685  0.00  0.00    +0.000 A 
ENDBRANCH   3  10
BRANCH   2  16
ATOM     16  C   UNL     1     105.103 127.846  82.484  0.00  0.00    +0.000 C 
ATOM     17  N   UNL     1     106.178 127.813  82.920  0.00  0.00    +0.000 NA
ENDBRANCH   2  16
TORSDOF 3
ENDMDL
