REMARK  Name = *****
REMARK  3 active torsions:
REMARK  status: ('A' for Active; 'I' for Inactive)
REMARK    1  A    between atoms: C_1  and  N_2
REMARK    2  A    between atoms: C_3  and  C_7
REMARK    3  A    between atoms: C_8  and  C_9
REMARK                            x       y       z     vdW  Elec       q    Type
REMARK                         _______ _______ _______ _____ _____    ______ ____
ROOT
ATOM      1  C   UNL     1       2.767   2.489  -0.193  0.00  0.00    +0.000 C 
ATOM      2  C   UNL     1       3.419   3.574   0.255  0.00  0.00    +0.000 C 
ATOM      3 CL   UNL     1       4.883   3.532   1.162  0.00  0.00    +0.000 Cl
ENDROOT
BRANCH   2   4
ATOM      4  C   UNL     1       2.841   4.911   0.045  0.00  0.00    +0.000 A 
ATOM      5  C   UNL     1       2.355   5.654   1.132  0.00  0.00    +0.000 A 
ATOM      6  C   UNL     1       1.791   6.917   0.932  0.00  0.00    +0.000 A 
ATOM      7  C   UNL     1       1.713   7.443  -0.355  0.00  0.00    +0.000 A 
ATOM      8  C   UNL     1       2.195   6.721  -1.445  0.00  0.00    +0.000 A 
ATOM      9  C   UNL     1       2.759   5.457  -1.245  0.00  0.00    +0.000 A 
ATOM     10 BR   UNL     1       0.950   9.150  -0.626  0.00  0.00    +0.000 Br
ENDBRANCH   2   4
BRANCH   1  13
ATOM     11  C   UNL     1       0.978   0.023   0.192  0.00  0.00    +0.000 C 
ATOM     12  N   UNL     1       2.448   0.052   0.050  0.00  0.00    +0.000 NA
ATOM     13  C   UNL     1       3.211   1.086  -0.069  0.00  0.00    +0.000 C 
ATOM     14  C   UNL     1       4.651   0.639  -0.133  0.00  0.00    +0.000 C 
ATOM     15  C   UNL     1       4.519  -0.813  -0.561  0.00  0.00    +0.000 C 
ATOM     16  C   UNL     1       3.200  -1.231   0.053  0.00  0.00    +0.000 C 
ENDBRANCH   1  13
TORSDOF 2
