MODEL 1
REMARK VINA RESULT:      -4.1      0.000      0.000
REMARK  Name = *****
REMARK  2 active torsions:
REMARK  status: ('A' for Active; 'I' for Inactive)
REMARK    1  A    between atoms: C_4  and  C_7
REMARK    2  A    between atoms: N_8  and  C_9
REMARK                            x       y       z     vdW  Elec       q    Type
REMARK                         _______ _______ _______ _____ _____    ______ ____
ROOT
ATOM      1  C   UNL     1     102.809 125.629  83.303  0.00  0.00    +0.000 C 
ATOM      2  N   UNL     1     101.678 125.680  83.940  0.00  0.00    +0.000 NA
ATOM      3 CL   UNL     1     103.801 124.262  83.709  0.00  0.00    +0.000 Cl
ENDROOT
BRANCH   2   4
ATOM      4  C   UNL     1     100.793 126.758  83.759  0.00  0.00    +0.000 A 
ATOM      5  C   UNL     1      99.849 126.707  82.724  0.00  0.00    +0.000 A 
ATOM      6  C   UNL     1      98.973 127.772  82.498  0.00  0.00    +0.000 A 
ATOM      7  C   UNL     1      99.044 128.913  83.296  0.00  0.00    +0.000 A 
ATOM      8  C   UNL     1      99.994 128.993  84.312  0.00  0.00    +0.000 A 
ATOM      9  C   UNL     1     100.869 127.926  84.537  0.00  0.00    +0.000 A 
ATOM     10 CL   UNL     1     102.033 128.081  85.808  0.00  0.00    +0.000 Cl
ENDBRANCH   2   4
BRANCH   1  14
ATOM     11  C   UNL     1     104.310 128.453  80.480  0.00  0.00    +0.000 A 
ATOM     12  C   UNL     1     104.533 128.642  81.845  0.00  0.00    +0.000 A 
ATOM     13  C   UNL     1     104.039 127.718  82.767  0.00  0.00    +0.000 A 
ATOM     14  C   UNL     1     103.316 126.610  82.315  0.00  0.00    +0.000 A 
ATOM     15  C   UNL     1     103.106 126.410  80.947  0.00  0.00    +0.000 A 
ATOM     16  C   UNL     1     103.602 127.337  80.031  0.00  0.00    +0.000 A 
ENDBRANCH   1  14
TORSDOF 2
ENDMDL
