REMARK  Name = *****
REMARK  1 active torsions:
REMARK  status: ('A' for Active; 'I' for Inactive)
REMARK    1  A    between atoms: C_8  and  C_10
REMARK                            x       y       z     vdW  Elec       q    Type
REMARK                         _______ _______ _______ _____ _____    ______ ____
ROOT
ATOM      1  C   UNL     1      -3.693   0.073   0.076  0.00  0.00    +0.000 A 
ATOM      2  C   UNL     1      -4.452   1.252  -0.043  0.00  0.00    +0.000 A 
ATOM      3  C   UNL     1      -5.844   1.202  -0.017  0.00  0.00    +0.000 A 
ATOM      4  C   UNL     1      -6.505  -0.009   0.129  0.00  0.00    +0.000 A 
ATOM      5  C   UNL     1      -5.771  -1.178   0.249  0.00  0.00    +0.000 A 
ATOM      6  C   UNL     1      -4.378  -1.141   0.224  0.00  0.00    +0.000 A 
ATOM      7  F   UNL     1      -3.712  -2.298   0.350  0.00  0.00    +0.000 F 
ATOM      8  F   UNL     1      -6.403  -2.351   0.393  0.00  0.00    +0.000 F 
ATOM      9  F   UNL     1      -7.844  -0.047   0.154  0.00  0.00    +0.000 F 
ATOM     10  F   UNL     1      -6.542   2.339  -0.135  0.00  0.00    +0.000 F 
ENDROOT
BRANCH   1  18
ATOM     11  C   UNL     1       2.194   0.655  -0.051  0.00  0.00    +0.000 A 
ATOM     12  C   UNL     1       2.130  -0.744   0.002  0.00  0.00    +0.000 A 
ATOM     13  C   UNL     1       0.903  -1.417   0.048  0.00  0.00    +0.000 A 
ATOM     14  C   UNL     1      -0.226  -0.608   0.038  0.00  0.00    +0.000 A 
ATOM     15  C   UNL     1      -0.207   0.775  -0.016  0.00  0.00    +0.000 A 
ATOM     16  C   UNL     1       1.027   1.435  -0.061  0.00  0.00    +0.000 A 
ATOM     17  N   UNL     1      -1.492   1.257  -0.013  0.00  0.00    +0.000 NA
ATOM     18  C   UNL     1      -2.238   0.167   0.047  0.00  0.00    +0.000 A 
ATOM     19  O   UNL     1      -1.529  -1.006   0.077  0.00  0.00    +0.000 OA
ENDBRANCH   1  18
TORSDOF 1
