MODEL 1
REMARK VINA RESULT:      -4.7      0.000      0.000
REMARK  Name = *****
REMARK  3 active torsions:
REMARK  status: ('A' for Active; 'I' for Inactive)
REMARK    1  A    between atoms: C_1  and  C_2
REMARK    2  A    between atoms: C_5  and  C_8
REMARK    3  A    between atoms: C_9  and  C_10
REMARK                            x       y       z     vdW  Elec       q    Type
REMARK                         _______ _______ _______ _____ _____    ______ ____
ROOT
ATOM      1  C   UNL     1     102.756 125.633  83.084  0.00  0.00    +0.000 C 
ATOM      2  C   UNL     1     101.649 125.966  82.402  0.00  0.00    +0.000 C 
ENDROOT
BRANCH   1   7
ATOM      3  C   UNL     1     105.607 122.262  80.554  0.00  0.00    +0.000 C 
ATOM      4  C   UNL     1     104.827 122.974  81.593  0.00  0.00    +0.000 A 
ATOM      5  C   UNL     1     104.607 122.566  82.889  0.00  0.00    +0.000 A 
ATOM      6  O   UNL     1     103.849 123.465  83.557  0.00  0.00    +0.000 OA
ATOM      7  C   UNL     1     103.544 124.507  82.705  0.00  0.00    +0.000 A 
ATOM      8  C   UNL     1     104.144 124.217  81.480  0.00  0.00    +0.000 A 
ATOM      9 CL   UNL     1     104.095 125.161  80.058  0.00  0.00    +0.000 Cl
ENDBRANCH   1   7
BRANCH   2  10
ATOM     10  C   UNL     1     100.787 127.106  82.742  0.00  0.00    +0.000 A 
ATOM     11  C   UNL     1      99.405 127.099  82.511  0.00  0.00    +0.000 A 
ATOM     12  C   UNL     1      98.617 128.195  82.877  0.00  0.00    +0.000 A 
ATOM     13  C   UNL     1      99.200 129.302  83.488  0.00  0.00    +0.000 A 
ATOM     14  C   UNL     1     100.571 129.315  83.738  0.00  0.00    +0.000 A 
ATOM     15  C   UNL     1     101.359 128.220  83.373  0.00  0.00    +0.000 A 
ENDBRANCH   2  10
TORSDOF 2
ENDMDL
