MODEL 1
REMARK VINA RESULT:      -4.9      0.000      0.000
REMARK  Name = *****
REMARK  2 active torsions:
REMARK  status: ('A' for Active; 'I' for Inactive)
REMARK    1  A    between atoms: C_1  and  C_2
REMARK    2  A    between atoms: C_5  and  C_8
REMARK                            x       y       z     vdW  Elec       q    Type
REMARK                         _______ _______ _______ _____ _____    ______ ____
ROOT
ATOM      1  C   UNL     1     102.818 126.036  81.791  0.00  0.00    +0.000 A 
ATOM      2  N   UNL     1     103.453 126.186  80.641  0.00  0.00    +0.000 NA
ATOM      3  C   UNL     1     104.244 125.071  80.554  0.00  0.00    +0.000 A 
ATOM      4  C   UNL     1     104.055 124.272  81.669  0.00  0.00    +0.000 A 
ATOM      5  O   UNL     1     103.139 124.885  82.470  0.00  0.00    +0.000 OA
ATOM      6  C   UNL     1     104.702 123.064  81.901  0.00  0.00    +0.000 A 
ATOM      7  C   UNL     1     105.601 122.669  80.906  0.00  0.00    +0.000 A 
ATOM      8  C   UNL     1     105.827 123.445  79.761  0.00  0.00    +0.000 A 
ATOM      9  C   UNL     1     105.150 124.659  79.568  0.00  0.00    +0.000 A 
ATOM     10 CL   UNL     1     106.457 121.185  81.096  0.00  0.00    +0.000 Cl
ENDROOT
BRANCH   1  15
ATOM     11  C   UNL     1      99.000 129.569  84.331  0.00  0.00    +0.000 C 
ATOM     12  C   UNL     1      99.989 128.662  83.660  0.00  0.00    +0.000 A 
ATOM     13  C   UNL     1     101.361 128.930  83.711  0.00  0.00    +0.000 A 
ATOM     14  C   UNL     1     102.274 128.068  83.096  0.00  0.00    +0.000 A 
ATOM     15  C   UNL     1     101.838 126.918  82.421  0.00  0.00    +0.000 A 
ATOM     16  C   UNL     1     100.462 126.652  82.379  0.00  0.00    +0.000 A 
ATOM     17  C   UNL     1      99.547 127.513  82.994  0.00  0.00    +0.000 A 
ENDBRANCH   1  15
TORSDOF 1
ENDMDL
