MODEL 1
REMARK VINA RESULT:      -4.8      0.000      0.000
REMARK  Name = *****
REMARK  4 active torsions:
REMARK  status: ('A' for Active; 'I' for Inactive)
REMARK    1  A    between atoms: C_2  and  C_3
REMARK    2  A    between atoms: C_6  and  C_9
REMARK    3  A    between atoms: C_10  and  C_11
REMARK    4  A    between atoms: C_14  and  C_17
REMARK                            x       y       z     vdW  Elec       q    Type
REMARK                         _______ _______ _______ _____ _____    ______ ____
ROOT
ATOM      1  C   UNL     1      86.417  61.459  88.954  0.00  0.00    +0.000 C 
ATOM      2  C   UNL     1      85.661  61.407  90.063  0.00  0.00    +0.000 C 
ENDROOT
BRANCH   1   6
ATOM      3  C   UNL     1      88.479  64.945  87.517  0.00  0.00    +0.000 A 
ATOM      4  C   UNL     1      88.424  64.679  88.889  0.00  0.00    +0.000 A 
ATOM      5  C   UNL     1      87.752  63.548  89.371  0.00  0.00    +0.000 A 
ATOM      6  C   UNL     1      87.104  62.673  88.492  0.00  0.00    +0.000 A 
ATOM      7  C   UNL     1      87.162  62.939  87.119  0.00  0.00    +0.000 A 
ATOM      8  C   UNL     1      87.831  64.070  86.638  0.00  0.00    +0.000 A 
BRANCH   3  10
ATOM      9  C   UNL     1      90.101  66.113  86.034  0.00  0.00    +0.000 C 
ATOM     10  C   UNL     1      89.145  66.136  86.970  0.00  0.00    +0.000 C 
ENDBRANCH   3  10
ENDBRANCH   1   6
BRANCH   2  11
ATOM     11  C   UNL     1      84.957  60.198  90.515  0.00  0.00    +0.000 A 
ATOM     12  C   UNL     1      83.560  60.135  90.600  0.00  0.00    +0.000 A 
ATOM     13  C   UNL     1      82.924  58.959  91.004  0.00  0.00    +0.000 A 
ATOM     14  C   UNL     1      83.685  57.831  91.317  0.00  0.00    +0.000 A 
ATOM     15  C   UNL     1      85.077  57.871  91.222  0.00  0.00    +0.000 A 
ATOM     16  C   UNL     1      85.708  59.051  90.816  0.00  0.00    +0.000 A 
BRANCH  14  17
ATOM     17  C   UNL     1      83.022  56.582  91.745  0.00  0.00    +0.000 C 
ATOM     18  O   UNL     1      82.735  55.691  90.956  0.00  0.00    +0.000 OA
ENDBRANCH  14  17
ENDBRANCH   2  11
TORSDOF 4
ENDMDL
