MODEL 1
REMARK VINA RESULT:      -4.3      0.000      0.000
REMARK  Name = *****
REMARK  6 active torsions:
REMARK  status: ('A' for Active; 'I' for Inactive)
REMARK    1  A    between atoms: C_1  and  C_2
REMARK    2  A    between atoms: C_2  and  C_3
REMARK    3  A    between atoms: C_2  and  C_10
REMARK    4  A    between atoms: C_2  and  O_16
REMARK    5  A    between atoms: C_3  and  C_4
REMARK    6  A    between atoms: O_16  and  C_17
REMARK                            x       y       z     vdW  Elec       q    Type
REMARK                         _______ _______ _______ _____ _____    ______ ____
ROOT
ATOM      1  C   UNL     1      87.974  69.621  84.548  0.00  0.00    +0.000 C 
ATOM      2  C   UNL     1      88.446  70.275  85.868  0.00  0.00    +0.000 C 
ENDROOT
BRANCH   2   3
ATOM      3  C   UNL     1      87.214  70.936  86.524  0.00  0.00    +0.000 A 
ATOM      4  C   UNL     1      87.106  70.956  87.931  0.00  0.00    +0.000 A 
ATOM      5  C   UNL     1      86.012  71.543  88.572  0.00  0.00    +0.000 A 
ATOM      6  C   UNL     1      84.997  72.122  87.822  0.00  0.00    +0.000 A 
ATOM      7  C   UNL     1      85.073  72.109  86.432  0.00  0.00    +0.000 A 
ATOM      8  C   UNL     1      86.168  71.522  85.790  0.00  0.00    +0.000 A 
ENDBRANCH   2   3
BRANCH   2   9
ATOM      9  O   UNL     1      89.385  71.296  85.473  0.00  0.00    +0.000 OA
ATOM     10  C   UNL     1      90.402  70.906  84.557  0.00  0.00    +0.000 C 
ENDBRANCH   2   9
BRANCH   2  11
ATOM     11  C   UNL     1      89.132  69.176  86.746  0.00  0.00    +0.000 C 
BRANCH  11  12
ATOM     12  C   UNL     1      88.732  67.689  86.540  0.00  0.00    +0.000 C 
ATOM     13  C   UNL     1      87.733  67.287  87.646  0.00  0.00    +0.000 C 
ATOM     14  C   UNL     1      87.275  65.837  87.513  0.00  0.00    +0.000 C 
ATOM     15  C   UNL     1      88.458  64.878  87.485  0.00  0.00    +0.000 C 
ATOM     16  C   UNL     1      89.449  65.255  86.391  0.00  0.00    +0.000 C 
ATOM     17  C   UNL     1      89.911  66.707  86.516  0.00  0.00    +0.000 C 
ENDBRANCH  11  12
ENDBRANCH   2  11
TORSDOF 4
ENDMDL
