MODEL 1
REMARK VINA RESULT:      -4.5      0.000      0.000
REMARK  Name = *****
REMARK  5 active torsions:
REMARK  status: ('A' for Active; 'I' for Inactive)
REMARK    1  A    between atoms: C_1  and  C_2
REMARK    2  A    between atoms: C_3  and  C_16
REMARK    3  A    between atoms: C_6  and  C_8
REMARK    4  A    between atoms: C_8  and  C_9
REMARK    5  A    between atoms: C_9  and  C_10
REMARK                            x       y       z     vdW  Elec       q    Type
REMARK                         _______ _______ _______ _____ _____    ______ ____
ROOT
ATOM      1  C   UNL     1     104.507 122.912  83.481  0.00  0.00    +0.000 C 
ATOM      2  C   UNL     1     104.642 123.881  82.340  0.00  0.00    +0.000 C 
ATOM      3  C   UNL     1     104.744 123.564  81.031  0.00  0.00    +0.000 C 
ATOM      4  C   UNL     1     104.951 124.627  79.968  0.00  0.00    +0.000 C 
ATOM      5  O   UNL     1     105.239 125.927  80.488  0.00  0.00    +0.000 OA
ATOM      6  C   UNL     1     104.421 126.303  81.603  0.00  0.00    +0.000 C 
ATOM      7  C   UNL     1     104.694 125.333  82.761  0.00  0.00    +0.000 C 
ATOM      8  C   UNL     1     104.666 122.171  80.467  0.00  0.00    +0.000 C 
ENDROOT
BRANCH   6   9
ATOM      9  C   UNL     1     102.944 126.444  81.192  0.00  0.00    +0.000 C 
BRANCH   9  10
ATOM     10  C   UNL     1     101.976 125.927  82.259  0.00  0.00    +0.000 C 
BRANCH  10  11
ATOM     11  C   UNL     1     100.973 126.982  82.656  0.00  0.00    +0.000 A 
ATOM     12  C   UNL     1      99.610 126.805  82.382  0.00  0.00    +0.000 A 
ATOM     13  C   UNL     1      98.684 127.788  82.737  0.00  0.00    +0.000 A 
ATOM     14  C   UNL     1      99.113 128.957  83.364  0.00  0.00    +0.000 A 
ATOM     15  C   UNL     1     100.468 129.145  83.635  0.00  0.00    +0.000 A 
ATOM     16  C   UNL     1     101.394 128.163  83.280  0.00  0.00    +0.000 A 
ENDBRANCH  10  11
ENDBRANCH   9  10
ENDBRANCH   6   9
TORSDOF 3
ENDMDL
