MODEL 1
REMARK VINA RESULT:      -4.4      0.000      0.000
REMARK  Name = *****
REMARK  4 active torsions:
REMARK  status: ('A' for Active; 'I' for Inactive)
REMARK    1  A    between atoms: C_1  and  C_2
REMARK    2  A    between atoms: C_4  and  C_8
REMARK    3  A    between atoms: C_8  and  N_9
REMARK    4  A    between atoms: N_9  and  C_10
REMARK                            x       y       z     vdW  Elec       q    Type
REMARK                         _______ _______ _______ _____ _____    ______ ____
ROOT
ATOM      1  C   UNL     1     102.874 125.571  81.761  0.00  0.00    +0.000 C 
ENDROOT
BRANCH   1   5
ATOM      2  C   UNL     1     106.261 124.611  78.232  0.00  0.00    +0.000 C 
ATOM      3  C   UNL     1     105.537 124.244  79.492  0.00  0.00    +0.000 A 
ATOM      4  C   UNL     1     104.544 125.078  80.027  0.00  0.00    +0.000 A 
ATOM      5  C   UNL     1     103.884 124.723  81.206  0.00  0.00    +0.000 A 
ATOM      6  C   UNL     1     104.213 123.532  81.859  0.00  0.00    +0.000 A 
ATOM      7  C   UNL     1     105.201 122.699  81.335  0.00  0.00    +0.000 A 
ATOM      8  C   UNL     1     105.860 123.054  80.159  0.00  0.00    +0.000 A 
ENDBRANCH   1   5
BRANCH   1   9
ATOM      9  N   UNL     1     102.058 126.223  82.148  0.00  0.00    +0.000 NA
BRANCH   9  10
ATOM     10  C   UNL     1     101.043 127.059  82.581  0.00  0.00    +0.000 A 
ATOM     11  C   UNL     1      99.718 126.719  82.329  0.00  0.00    +0.000 A 
ATOM     12  C   UNL     1      98.708 127.569  82.778  0.00  0.00    +0.000 A 
ATOM     13  C   UNL     1      99.032 128.741  83.467  0.00  0.00    +0.000 A 
ATOM     14  C   UNL     1     100.369 129.067  83.711  0.00  0.00    +0.000 A 
ATOM     15  C   UNL     1     101.383 128.222  83.266  0.00  0.00    +0.000 A 
ENDBRANCH   9  10
ENDBRANCH   1   9
TORSDOF 3
ENDMDL
