MODEL 1
REMARK VINA RESULT:      -4.6      0.000      0.000
REMARK  Name = *****
REMARK  4 active torsions:
REMARK  status: ('A' for Active; 'I' for Inactive)
REMARK    1  A    between atoms: C_4  and  S_7
REMARK    2  A    between atoms: S_7  and  C_9
REMARK    3  A    between atoms: C_9  and  C_10
REMARK    4  A    between atoms: C_13  and  C_16
REMARK                            x       y       z     vdW  Elec       q    Type
REMARK                         _______ _______ _______ _____ _____    ______ ____
ROOT
ATOM      1  C   UNL     1     102.134 127.129  81.935  0.00  0.00    +0.000 C 
ENDROOT
BRANCH   1   2
ATOM      2  C   UNL     1     102.975 125.882  81.838  0.00  0.00    +0.000 A 
ATOM      3  C   UNL     1     103.472 125.457  80.599  0.00  0.00    +0.000 A 
ATOM      4  C   UNL     1     104.247 124.299  80.502  0.00  0.00    +0.000 A 
ATOM      5  C   UNL     1     104.531 123.535  81.641  0.00  0.00    +0.000 A 
ATOM      6  C   UNL     1     104.036 123.962  82.881  0.00  0.00    +0.000 A 
ATOM      7  C   UNL     1     103.263 125.121  82.979  0.00  0.00    +0.000 A 
BRANCH   5   8
ATOM      8  C   UNL     1     105.369 122.292  81.538  0.00  0.00    +0.000 C 
ATOM      9 CL   UNL     1     104.346 120.872  81.245  0.00  0.00    +0.000 Cl
ENDBRANCH   5   8
ENDBRANCH   1   2
BRANCH   1  10
ATOM     10  S   UNL     1     100.721 126.905  83.071  0.00  0.00    +0.000 S 
ATOM     11  O   UNL     1      99.495 126.666  82.234  0.00  0.00    +0.000 OA
BRANCH  10  15
ATOM     12  C   UNL     1     100.470 131.285  84.475  0.00  0.00    +0.000 A 
ATOM     13  C   UNL     1      99.363 130.687  83.876  0.00  0.00    +0.000 A 
ATOM     14  C   UNL     1      99.432 129.359  83.450  0.00  0.00    +0.000 A 
ATOM     15  C   UNL     1     100.610 128.626  83.617  0.00  0.00    +0.000 A 
ATOM     16  C   UNL     1     101.716 129.228  84.229  0.00  0.00    +0.000 A 
ATOM     17  C   UNL     1     101.646 130.556  84.654  0.00  0.00    +0.000 A 
ENDBRANCH  10  15
ENDBRANCH   1  10
TORSDOF 4
ENDMDL
