MODEL 1
REMARK VINA RESULT:      -4.2      0.000      0.000
REMARK  Name = *****
REMARK  2 active torsions:
REMARK  status: ('A' for Active; 'I' for Inactive)
REMARK    1  A    between atoms: C_4  and  C_7
REMARK    2  A    between atoms: C_8  and  C_9
REMARK                            x       y       z     vdW  Elec       q    Type
REMARK                         _______ _______ _______ _____ _____    ______ ____
ROOT
ATOM      1  C   UNL     1     102.234 126.161  81.971  0.00  0.00    +0.000 C 
ATOM      2  C   UNL     1     103.092 125.452  81.518  0.00  0.00    +0.000 C 
ENDROOT
BRANCH   1   6
ATOM      3  C   UNL     1      99.229 128.672  83.552  0.00  0.00    +0.000 A 
ATOM      4  C   UNL     1     100.574 128.992  83.737  0.00  0.00    +0.000 A 
ATOM      5  C   UNL     1     101.567 128.161  83.215  0.00  0.00    +0.000 A 
ATOM      6  C   UNL     1     101.216 127.010  82.507  0.00  0.00    +0.000 A 
ATOM      7  C   UNL     1      99.868 126.691  82.323  0.00  0.00    +0.000 A 
ATOM      8  C   UNL     1      98.876 127.522  82.847  0.00  0.00    +0.000 A 
ENDBRANCH   1   6
BRANCH   2   9
ATOM      9  C   UNL     1     104.109 124.613  80.976  0.00  0.00    +0.000 A 
ATOM     10  C   UNL     1     104.383 123.331  81.400  0.00  0.00    +0.000 A 
ATOM     11  C   UNL     1     105.455 122.739  80.669  0.00  0.00    +0.000 A 
ATOM     12  C   UNL     1     105.959 123.593  79.713  0.00  0.00    +0.000 A 
ATOM     13  S   UNL     1     105.142 125.096  79.703  0.00  0.00    +0.000 S 
ENDBRANCH   2   9
TORSDOF 2
ENDMDL
