MODEL 1
REMARK VINA RESULT:      -4.8      0.000      0.000
REMARK  Name = *****
REMARK  3 active torsions:
REMARK  status: ('A' for Active; 'I' for Inactive)
REMARK    1  A    between atoms: C_4  and  C_7
REMARK    2  A    between atoms: C_7  and  O_9
REMARK    3  A    between atoms: O_9  and  C_10
REMARK                            x       y       z     vdW  Elec       q    Type
REMARK                         _______ _______ _______ _____ _____    ______ ____
ROOT
ATOM      1  C   UNL     1     103.222 126.202  82.819  0.00  0.00    +0.000 A 
ATOM      2  C   UNL     1     103.178 127.148  81.800  0.00  0.00    +0.000 A 
ATOM      3  C   UNL     1     103.463 126.765  80.492  0.00  0.00    +0.000 A 
ATOM      4  C   UNL     1     103.802 125.449  80.194  0.00  0.00    +0.000 A 
ATOM      5  C   UNL     1     103.859 124.515  81.225  0.00  0.00    +0.000 A 
ATOM      6  C   UNL     1     103.576 124.886  82.537  0.00  0.00    +0.000 A 
ATOM      7  F   UNL     1     103.649 123.981  83.522  0.00  0.00    +0.000 F 
ATOM      8  F   UNL     1     104.200 123.251  80.944  0.00  0.00    +0.000 F 
ATOM      9  F   UNL     1     103.423 127.670  79.504  0.00  0.00    +0.000 F 
ATOM     10  F   UNL     1     102.868 128.423  82.076  0.00  0.00    +0.000 F 
ENDROOT
BRANCH   1  11
ATOM     11  O   UNL     1     102.954 126.582  84.132  0.00  0.00    +0.000 OA
BRANCH  11  12
ATOM     12  C   UNL     1     101.675 126.214  84.500  0.00  0.00    +0.000 C 
ATOM     13  O   UNL     1     101.359 125.215  85.130  0.00  0.00    +0.000 OA
BRANCH  12  17
ATOM     14  C   UNL     1      98.899 129.209  83.183  0.00  0.00    +0.000 A 
ATOM     15  C   UNL     1      98.780 127.909  82.692  0.00  0.00    +0.000 A 
ATOM     16  C   UNL     1      99.672 126.917  83.108  0.00  0.00    +0.000 A 
ATOM     17  C   UNL     1     100.691 127.225  84.021  0.00  0.00    +0.000 A 
ATOM     18  C   UNL     1     100.802 128.534  84.510  0.00  0.00    +0.000 A 
ATOM     19  C   UNL     1      99.908 129.522  84.092  0.00  0.00    +0.000 A 
ENDBRANCH  12  17
ENDBRANCH  11  12
ENDBRANCH   1  11
TORSDOF 3
ENDMDL
