MODEL 1
REMARK VINA RESULT:      -4.4      0.000      0.000
REMARK  Name = *****
REMARK  2 active torsions:
REMARK  status: ('A' for Active; 'I' for Inactive)
REMARK    1  A    between atoms: C_3  and  C_8
REMARK    2  A    between atoms: C_9  and  C_10
REMARK                            x       y       z     vdW  Elec       q    Type
REMARK                         _______ _______ _______ _____ _____    ______ ____
ROOT
ATOM      1  C   UNL     1      98.714 127.744  82.692  0.00  0.00    +0.000 A 
ATOM      2  C   UNL     1      99.656 126.777  82.332  0.00  0.00    +0.000 A 
ATOM      3  C   UNL     1     101.012 126.947  82.646  0.00  0.00    +0.000 A 
ATOM      4  C   UNL     1     101.413 128.117  83.304  0.00  0.00    +0.000 A 
ATOM      5  C   UNL     1     100.468 129.079  83.661  0.00  0.00    +0.000 A 
ATOM      6  C   UNL     1      99.120 128.897  83.362  0.00  0.00    +0.000 A 
ATOM      7 CL   UNL     1     100.973 130.509  84.476  0.00  0.00    +0.000 Cl
ENDROOT
BRANCH   3   8
ATOM      8  C   UNL     1     101.972 125.918  82.221  0.00  0.00    +0.000 C 
ATOM      9  C   UNL     1     102.903 126.112  81.272  0.00  0.00    +0.000 C 
BRANCH   9  10
ATOM     10  C   UNL     1     103.861 125.151  80.830  0.00  0.00    +0.000 A 
ATOM     11  C   UNL     1     104.700 125.236  79.740  0.00  0.00    +0.000 A 
ATOM     12  O   UNL     1     105.472 124.121  79.643  0.00  0.00    +0.000 OA
ATOM     13  C   UNL     1     105.128 123.313  80.678  0.00  0.00    +0.000 A 
ATOM     14  C   UNL     1     104.142 123.899  81.438  0.00  0.00    +0.000 A 
ENDBRANCH   9  10
ENDBRANCH   3   8
TORSDOF 2
ENDMDL
