MODEL 1
REMARK VINA RESULT:      -4.7      0.000      0.000
REMARK  Name = *****
REMARK  4 active torsions:
REMARK  status: ('A' for Active; 'I' for Inactive)
REMARK    1  A    between atoms: C_1  and  C_2
REMARK    2  A    between atoms: C_2  and  C_3
REMARK    3  A    between atoms: C_2  and  C_10
REMARK    4  A    between atoms: C_3  and  C_4
REMARK                            x       y       z     vdW  Elec       q    Type
REMARK                         _______ _______ _______ _____ _____    ______ ____
ROOT
ATOM      1  C   UNL     1      89.843  70.885  85.852  0.00  0.00    +0.000 C 
ATOM      2  C   UNL     1      88.644  70.284  86.597  0.00  0.00    +0.000 C 
ENDROOT
BRANCH   2   3
ATOM      3  C   UNL     1      88.788  68.770  86.709  0.00  0.00    +0.000 A 
ATOM      4  C   UNL     1      89.931  68.137  86.190  0.00  0.00    +0.000 A 
ATOM      5  C   UNL     1      90.077  66.752  86.279  0.00  0.00    +0.000 A 
ATOM      6  C   UNL     1      89.083  65.994  86.886  0.00  0.00    +0.000 A 
ATOM      7  C   UNL     1      87.946  66.596  87.409  0.00  0.00    +0.000 A 
ATOM      8  C   UNL     1      87.798  67.981  87.321  0.00  0.00    +0.000 A 
ATOM      9  F   UNL     1      89.224  64.665  86.969  0.00  0.00    +0.000 F 
ENDBRANCH   2   3
BRANCH   2  10
ATOM     10  C   UNL     1      87.293  70.659  85.947  0.00  0.00    +0.000 C 
BRANCH  10  11
ATOM     11  C   UNL     1      86.293  71.284  86.894  0.00  0.00    +0.000 A 
ATOM     12  C   UNL     1      86.526  71.272  88.277  0.00  0.00    +0.000 A 
ATOM     13  C   UNL     1      85.607  71.846  89.157  0.00  0.00    +0.000 A 
ATOM     14  C   UNL     1      84.447  72.440  88.665  0.00  0.00    +0.000 A 
ATOM     15  C   UNL     1      84.208  72.466  87.293  0.00  0.00    +0.000 A 
ATOM     16  C   UNL     1      85.129  71.897  86.411  0.00  0.00    +0.000 A 
ENDBRANCH  10  11
ENDBRANCH   2  10
TORSDOF 3
ENDMDL
