REMARK  Name = *****
REMARK  3 active torsions:
REMARK  status: ('A' for Active; 'I' for Inactive)
REMARK    1  A    between atoms: C_4  and  C_7
REMARK    2  A    between atoms: C_7  and  N_9
REMARK    3  A    between atoms: N_9  and  C_10
REMARK                            x       y       z     vdW  Elec       q    Type
REMARK                         _______ _______ _______ _____ _____    ______ ____
ROOT
ATOM      1  N   UNL     1      -3.613  -0.147  -0.681  0.00  0.00    +0.000 N 
ATOM      2  H   UNL     1      -3.299  -0.960  -0.224  0.00  0.00    +0.000 HD
ENDROOT
BRANCH   1   3
ATOM      3  C   UNL     1      -4.987  -0.202  -1.036  0.00  0.00    +0.000 A 
ATOM      4  C   UNL     1      -5.647   0.732  -1.836  0.00  0.00    +0.000 A 
ATOM      5  C   UNL     1      -7.007   0.585  -2.140  0.00  0.00    +0.000 A 
ATOM      6  C   UNL     1      -7.729  -0.502  -1.657  0.00  0.00    +0.000 A 
ATOM      7  C   UNL     1      -7.090  -1.454  -0.870  0.00  0.00    +0.000 A 
ATOM      8  C   UNL     1      -5.733  -1.306  -0.567  0.00  0.00    +0.000 A 
ATOM      9 CL   UNL     1      -4.991  -2.532   0.411  0.00  0.00    +0.000 Cl
ENDBRANCH   1   3
BRANCH   1  10
ATOM     10  C   UNL     1      -2.617   0.807  -0.840  0.00  0.00    +0.000 C 
ATOM     11  S   UNL     1      -2.727   2.371  -1.431  0.00  0.00    +0.000 S 
BRANCH  10  15
ATOM     12  C   UNL     1       1.133  -0.735   0.532  0.00  0.00    +0.000 A 
ATOM     13  C   UNL     1       0.562   0.364   1.176  0.00  0.00    +0.000 A 
ATOM     14  C   UNL     1      -0.656   0.880   0.731  0.00  0.00    +0.000 A 
ATOM     15  C   UNL     1      -1.297   0.294  -0.366  0.00  0.00    +0.000 A 
ATOM     16  C   UNL     1      -0.726  -0.812  -1.010  0.00  0.00    +0.000 A 
ATOM     17  C   UNL     1       0.492  -1.322  -0.559  0.00  0.00    +0.000 A 
ENDBRANCH  10  15
ENDBRANCH   1  10
TORSDOF 3
