REMARK  Name = *****
REMARK  4 active torsions:
REMARK  status: ('A' for Active; 'I' for Inactive)
REMARK    1  A    between atoms: C_1  and  C_2
REMARK    2  A    between atoms: C_5  and  C_8
REMARK    3  A    between atoms: C_8  and  O_10
REMARK    4  A    between atoms: O_10  and  C_11
REMARK                            x       y       z     vdW  Elec       q    Type
REMARK                         _______ _______ _______ _____ _____    ______ ____
ROOT
ATOM      1  C   UNL     1      -3.051   0.509  -0.579  0.00  0.00    +0.000 C 
ATOM      2  O   UNL     1      -3.831  -0.424  -0.697  0.00  0.00    +0.000 OA
ENDROOT
BRANCH   1   7
ATOM      3  C   UNL     1       2.583  -0.402   0.483  0.00  0.00    +0.000 C 
ATOM      4  C   UNL     1       1.125  -0.148   0.237  0.00  0.00    +0.000 A 
ATOM      5  C   UNL     1       0.651   1.158   0.064  0.00  0.00    +0.000 A 
ATOM      6  C   UNL     1      -0.702   1.395  -0.198  0.00  0.00    +0.000 A 
ATOM      7  C   UNL     1      -1.599   0.323  -0.300  0.00  0.00    +0.000 A 
ATOM      8  C   UNL     1      -1.121  -0.985  -0.143  0.00  0.00    +0.000 A 
ATOM      9  C   UNL     1       0.232  -1.218   0.118  0.00  0.00    +0.000 A 
ENDBRANCH   1   7
BRANCH   1  10
ATOM     10  O   UNL     1      -3.338   1.859  -0.666  0.00  0.00    +0.000 OA
BRANCH  10  11
ATOM     11  C   UNL     1      -4.675   2.167  -0.942  0.00  0.00    +0.000 A 
ATOM     12  C   UNL     1      -5.244   1.850  -2.175  0.00  0.00    +0.000 A 
ATOM     13  C   UNL     1      -6.561   2.229  -2.435  0.00  0.00    +0.000 A 
ATOM     14  C   UNL     1      -7.288   2.933  -1.473  0.00  0.00    +0.000 A 
ATOM     15  C   UNL     1      -6.701   3.264  -0.249  0.00  0.00    +0.000 A 
ATOM     16  C   UNL     1      -5.385   2.887   0.017  0.00  0.00    +0.000 A 
ENDBRANCH  10  11
ENDBRANCH   1  10
TORSDOF 3
