MODEL 1
REMARK VINA RESULT:      -4.6      0.000      0.000
REMARK  Name = *****
REMARK  4 active torsions:
REMARK  status: ('A' for Active; 'I' for Inactive)
REMARK    1  A    between atoms: C_4  and  C_7
REMARK    2  A    between atoms: C_7  and  O_9
REMARK    3  A    between atoms: O_9  and  C_10
REMARK    4  A    between atoms: C_10  and  C_11
REMARK                            x       y       z     vdW  Elec       q    Type
REMARK                         _______ _______ _______ _____ _____    ______ ____
ROOT
ATOM      1  O   UNL     1     100.438 126.738  83.324  0.00  0.00    +0.000 OA
ENDROOT
BRANCH   1   2
ATOM      2  C   UNL     1      99.295 127.367  82.960  0.00  0.00    +0.000 C 
ATOM      3  O   UNL     1      98.537 127.023  82.067  0.00  0.00    +0.000 OA
BRANCH   2   7
ATOM      4  C   UNL     1      98.689 130.887  85.336  0.00  0.00    +0.000 A 
ATOM      5  C   UNL     1      98.199 129.663  85.794  0.00  0.00    +0.000 A 
ATOM      6  C   UNL     1      98.386 128.505  85.035  0.00  0.00    +0.000 A 
ATOM      7  C   UNL     1      99.066 128.567  83.811  0.00  0.00    +0.000 A 
ATOM      8  C   UNL     1      99.555 129.801  83.359  0.00  0.00    +0.000 A 
ATOM      9  C   UNL     1      99.367 130.956  84.120  0.00  0.00    +0.000 A 
ENDBRANCH   2   7
ENDBRANCH   1   2
BRANCH   1  10
ATOM     10  C   UNL     1     101.254 126.262  82.250  0.00  0.00    +0.000 C 
BRANCH  10  11
ATOM     11  C   UNL     1     102.430 127.188  82.065  0.00  0.00    +0.000 A 
ATOM     12  C   UNL     1     102.809 128.071  83.090  0.00  0.00    +0.000 A 
ATOM     13  C   UNL     1     103.883 128.942  82.907  0.00  0.00    +0.000 A 
ATOM     14  C   UNL     1     104.571 128.939  81.700  0.00  0.00    +0.000 A 
ATOM     15  C   UNL     1     104.203 128.083  80.668  0.00  0.00    +0.000 A 
ATOM     16  C   UNL     1     103.130 127.210  80.849  0.00  0.00    +0.000 A 
ATOM     17  F   UNL     1     105.600 129.778  81.524  0.00  0.00    +0.000 F 
ENDBRANCH  10  11
ENDBRANCH   1  10
TORSDOF 4
ENDMDL
