MODEL 1
REMARK VINA RESULT:      -4.2      0.000      0.000
REMARK  Name = *****
REMARK  4 active torsions:
REMARK  status: ('A' for Active; 'I' for Inactive)
REMARK    1  A    between atoms: C_4  and  O_7
REMARK    2  A    between atoms: O_7  and  C_8
REMARK    3  A    between atoms: C_8  and  O_10
REMARK    4  A    between atoms: O_10  and  C_11
REMARK                            x       y       z     vdW  Elec       q    Type
REMARK                         _______ _______ _______ _____ _____    ______ ____
ROOT
ATOM      1  C   UNL     1      90.024  66.272  86.103  0.00  0.00    +0.000 C 
ATOM      2  S   UNL     1      91.176  65.445  85.241  0.00  0.00    +0.000 S 
ENDROOT
BRANCH   1   3
ATOM      3  O   UNL     1      88.704  65.884  86.327  0.00  0.00    +0.000 OA
BRANCH   3   7
ATOM      4  C   UNL     1      87.373  64.321  89.960  0.00  0.00    +0.000 A 
ATOM      5  C   UNL     1      86.801  65.492  89.454  0.00  0.00    +0.000 A 
ATOM      6  C   UNL     1      87.250  66.021  88.246  0.00  0.00    +0.000 A 
ATOM      7  C   UNL     1      88.281  65.374  87.569  0.00  0.00    +0.000 A 
ATOM      8  C   UNL     1      88.846  64.195  88.047  0.00  0.00    +0.000 A 
ATOM      9  C   UNL     1      88.392  63.671  89.256  0.00  0.00    +0.000 A 
ENDBRANCH   3   7
ENDBRANCH   1   3
BRANCH   1  10
ATOM     10  O   UNL     1      90.380  67.491  86.670  0.00  0.00    +0.000 OA
BRANCH  10  11
ATOM     11  C   UNL     1      89.638  68.619  86.291  0.00  0.00    +0.000 A 
ATOM     12  C   UNL     1      88.805  69.234  87.222  0.00  0.00    +0.000 A 
ATOM     13  C   UNL     1      88.100  70.369  86.836  0.00  0.00    +0.000 A 
ATOM     14  C   UNL     1      88.236  70.887  85.545  0.00  0.00    +0.000 A 
ATOM     15  C   UNL     1      89.094  70.270  84.631  0.00  0.00    +0.000 A 
ATOM     16  C   UNL     1      89.806  69.131  85.005  0.00  0.00    +0.000 A 
ATOM     17 CL   UNL     1      87.049  71.144  87.958  0.00  0.00    +0.000 Cl
ENDBRANCH  10  11
ENDBRANCH   1  10
TORSDOF 4
ENDMDL
