MODEL 1
REMARK VINA RESULT:      -4.6      0.000      0.000
REMARK  Name = *****
REMARK  4 active torsions:
REMARK  status: ('A' for Active; 'I' for Inactive)
REMARK    1  A    between atoms: C_3  and  C_17
REMARK    2  A    between atoms: C_6  and  C_7
REMARK    3  A    between atoms: C_7  and  C_8
REMARK    4  A    between atoms: C_8  and  C_10
REMARK                            x       y       z     vdW  Elec       q    Type
REMARK                         _______ _______ _______ _____ _____    ______ ____
ROOT
ATOM      1  C   UNL     1      89.939  66.783  86.412  0.00  0.00    +0.000 C 
ENDROOT
BRANCH   1   7
ATOM      2  C   UNL     1      89.643  69.277  86.730  0.00  0.00    +0.000 A 
ATOM      3  C   UNL     1      89.577  70.579  86.227  0.00  0.00    +0.000 A 
ATOM      4  C   UNL     1      89.725  70.810  84.856  0.00  0.00    +0.000 A 
ATOM      5  C   UNL     1      89.942  69.734  83.991  0.00  0.00    +0.000 A 
ATOM      6  C   UNL     1      90.007  68.432  84.495  0.00  0.00    +0.000 A 
ATOM      7  C   UNL     1      89.851  68.192  85.868  0.00  0.00    +0.000 A 
BRANCH   4   8
ATOM      8  C   UNL     1      89.660  72.146  84.340  0.00  0.00    +0.000 C 
ATOM      9  N   UNL     1      89.605  73.230  83.929  0.00  0.00    +0.000 NA
ENDBRANCH   4   8
ENDBRANCH   1   7
BRANCH   1  10
ATOM     10  C   UNL     1      88.612  66.038  86.422  0.00  0.00    +0.000 C 
ATOM     11  O   UNL     1      87.957  65.818  85.405  0.00  0.00    +0.000 OA
BRANCH  10  12
ATOM     12  C   UNL     1      88.080  65.550  87.734  0.00  0.00    +0.000 A 
ATOM     13  C   UNL     1      87.008  66.169  88.391  0.00  0.00    +0.000 A 
ATOM     14  C   UNL     1      86.552  65.669  89.618  0.00  0.00    +0.000 A 
ATOM     15  C   UNL     1      87.163  64.554  90.188  0.00  0.00    +0.000 A 
ATOM     16  C   UNL     1      88.229  63.932  89.546  0.00  0.00    +0.000 A 
ATOM     17  C   UNL     1      88.687  64.429  88.323  0.00  0.00    +0.000 A 
ATOM     18 CL   UNL     1      86.595  63.946  91.694  0.00  0.00    +0.000 Cl
ENDBRANCH  10  12
ENDBRANCH   1  10
TORSDOF 4
ENDMDL
