REMARK  Name = *****
REMARK  2 active torsions:
REMARK  status: ('A' for Active; 'I' for Inactive)
REMARK    1  A    between atoms: C_4  and  C_7
REMARK    2  A    between atoms: C_8  and  C_11
REMARK                            x       y       z     vdW  Elec       q    Type
REMARK                         _______ _______ _______ _____ _____    ______ ____
ROOT
ATOM      1  C   UNL     1      -2.536  -0.207  -0.022  0.00  0.00    +0.000 C 
ATOM      2  C   UNL     1      -3.001  -0.954   0.984  0.00  0.00    +0.000 C 
ATOM      3  C   UNL     1      -3.705  -0.994  -0.265  0.00  0.00    +0.000 C 
ATOM      4  F   UNL     1      -4.923  -0.347  -0.348  0.00  0.00    +0.000 F 
ENDROOT
BRANCH   1   8
ATOM      5  C   UNL     1       1.489   0.102  -1.359  0.00  0.00    +0.000 A 
ATOM      6  C   UNL     1       0.628  -0.808  -1.971  0.00  0.00    +0.000 A 
ATOM      7  C   UNL     1      -0.696  -0.917  -1.540  0.00  0.00    +0.000 A 
ATOM      8  C   UNL     1      -1.168  -0.118  -0.492  0.00  0.00    +0.000 A 
ATOM      9  C   UNL     1      -0.297   0.797   0.112  0.00  0.00    +0.000 A 
ATOM     10  C   UNL     1       1.027   0.905  -0.319  0.00  0.00    +0.000 A 
ENDBRANCH   1   8
BRANCH   2  11
ATOM     11  C   UNL     1      -2.221  -1.847   1.819  0.00  0.00    +0.000 A 
ATOM     12  C   UNL     1      -1.787  -1.392   3.070  0.00  0.00    +0.000 A 
ATOM     13  C   UNL     1      -1.034  -2.223   3.903  0.00  0.00    +0.000 A 
ATOM     14  C   UNL     1      -0.712  -3.515   3.493  0.00  0.00    +0.000 A 
ATOM     15  C   UNL     1      -1.143  -3.978   2.252  0.00  0.00    +0.000 A 
ATOM     16  C   UNL     1      -1.897  -3.149   1.418  0.00  0.00    +0.000 A 
ENDBRANCH   2  11
TORSDOF 2
