MODEL 1
REMARK VINA RESULT:      -4.6      0.000      0.000
REMARK  Name = *****
REMARK  3 active torsions:
REMARK  status: ('A' for Active; 'I' for Inactive)
REMARK    1  A    between atoms: C_4  and  O_7
REMARK    2  A    between atoms: O_7  and  C_8
REMARK    3  A    between atoms: C_8  and  C_10
REMARK                            x       y       z     vdW  Elec       q    Type
REMARK                         _______ _______ _______ _____ _____    ______ ____
ROOT
ATOM      1  C   UNL     1     102.685 125.622  83.538  0.00  0.00    +0.000 C 
ATOM      2  O   UNL     1     102.270 125.212  84.611  0.00  0.00    +0.000 OA
ENDROOT
BRANCH   1   3
ATOM      3  C   UNL     1     103.475 124.775  82.597  0.00  0.00    +0.000 A 
ATOM      4  C   UNL     1     104.117 123.592  82.997  0.00  0.00    +0.000 A 
ATOM      5  C   UNL     1     104.842 122.841  82.068  0.00  0.00    +0.000 A 
ATOM      6  C   UNL     1     104.925 123.270  80.748  0.00  0.00    +0.000 A 
ATOM      7  C   UNL     1     104.295 124.438  80.335  0.00  0.00    +0.000 A 
ATOM      8  C   UNL     1     103.569 125.193  81.259  0.00  0.00    +0.000 A 
ATOM      9  F   UNL     1     105.622 122.547  79.862  0.00  0.00    +0.000 F 
ENDBRANCH   1   3
BRANCH   1  10
ATOM     10  O   UNL     1     102.515 126.883  82.998  0.00  0.00    +0.000 OA
BRANCH  10  14
ATOM     11  C   UNL     1      98.631 128.412  82.992  0.00  0.00    +0.000 A 
ATOM     12  C   UNL     1      99.654 129.150  83.592  0.00  0.00    +0.000 A 
ATOM     13  C   UNL     1     100.956 128.648  83.616  0.00  0.00    +0.000 A 
ATOM     14  C   UNL     1     101.215 127.399  83.051  0.00  0.00    +0.000 A 
ATOM     15  C   UNL     1     100.205 126.665  82.432  0.00  0.00    +0.000 A 
ATOM     16  C   UNL     1      98.907 127.173  82.410  0.00  0.00    +0.000 A 
ENDBRANCH  10  14
ENDBRANCH   1  10
TORSDOF 3
ENDMDL
