MODEL 1
REMARK VINA RESULT:      -4.7      0.000      0.000
REMARK  Name = *****
REMARK  4 active torsions:
REMARK  status: ('A' for Active; 'I' for Inactive)
REMARK    1  A    between atoms: C_4  and  C_7
REMARK    2  A    between atoms: C_7  and  C_8
REMARK    3  A    between atoms: C_7  and  N_16
REMARK    4  A    between atoms: C_8  and  C_10
REMARK                            x       y       z     vdW  Elec       q    Type
REMARK                         _______ _______ _______ _____ _____    ______ ____
ROOT
ATOM      1  C   UNL     1     100.356 127.409  82.753  0.00  0.00    +0.000 C 
ENDROOT
BRANCH   1   5
ATOM      2  C   UNL     1     100.685 131.267  84.693  0.00  0.00    +0.000 A 
ATOM      3  C   UNL     1      99.491 130.883  84.088  0.00  0.00    +0.000 A 
ATOM      4  C   UNL     1      99.391 129.636  83.468  0.00  0.00    +0.000 A 
ATOM      5  C   UNL     1     100.490 128.760  83.435  0.00  0.00    +0.000 A 
ATOM      6  C   UNL     1     101.681 129.156  84.067  0.00  0.00    +0.000 A 
ATOM      7  C   UNL     1     101.778 130.403  84.686  0.00  0.00    +0.000 A 
ENDBRANCH   1   5
BRANCH   1   8
ATOM      8  C   UNL     1     101.459 126.418  83.135  0.00  0.00    +0.000 C 
ATOM      9  O   UNL     1     101.523 125.854  84.230  0.00  0.00    +0.000 OA
BRANCH   8  10
ATOM     10  C   UNL     1     102.533 126.123  82.137  0.00  0.00    +0.000 A 
ATOM     11  C   UNL     1     103.245 124.918  82.123  0.00  0.00    +0.000 A 
ATOM     12  C   UNL     1     104.242 124.702  81.164  0.00  0.00    +0.000 A 
ATOM     13  C   UNL     1     104.528 125.683  80.217  0.00  0.00    +0.000 A 
ATOM     14  C   UNL     1     103.817 126.881  80.218  0.00  0.00    +0.000 A 
ATOM     15  C   UNL     1     102.821 127.099  81.171  0.00  0.00    +0.000 A 
ENDBRANCH   8  10
ENDBRANCH   1   8
BRANCH   1  16
ATOM     16  N   UNL     1      99.025 126.789  83.093  0.00  0.00    +0.000 NA
ATOM     17  O   UNL     1      98.328 126.595  82.091  0.00  0.00    +0.000 OA
ENDBRANCH   1  16
TORSDOF 4
ENDMDL
