MODEL 1
REMARK VINA RESULT:      -4.7      0.000      0.000
REMARK  Name = *****
REMARK  2 active torsions:
REMARK  status: ('A' for Active; 'I' for Inactive)
REMARK    1  A    between atoms: C_6  and  C_10
REMARK    2  A    between atoms: C_10  and  C_11
REMARK                            x       y       z     vdW  Elec       q    Type
REMARK                         _______ _______ _______ _____ _____    ______ ____
ROOT
ATOM      1  C   UNL     1      90.891  64.461  85.457  0.00  0.00    +0.000 C 
ATOM      2  C   UNL     1      89.522  63.987  85.949  0.00  0.00    +0.000 C 
ATOM      3  C   UNL     1      88.830  65.030  86.815  0.00  0.00    +0.000 C 
ATOM      4  C   UNL     1      88.588  66.319  86.023  0.00  0.00    +0.000 C 
ATOM      5  C   UNL     1      88.439  67.519  86.908  0.00  0.00    +0.000 C 
ATOM      6  C   UNL     1      89.155  68.563  86.467  0.00  0.00    +0.000 C 
ATOM      7  C   UNL     1      89.904  68.232  85.212  0.00  0.00    +0.000 C 
ATOM      8  C   UNL     1      89.765  66.705  85.097  0.00  0.00    +0.000 C 
ATOM      9  C   UNL     1      91.061  65.980  85.482  0.00  0.00    +0.000 C 
ENDROOT
BRANCH   6  10
ATOM     10  C   UNL     1      89.232  69.923  87.089  0.00  0.00    +0.000 C 
BRANCH  10  11
ATOM     11  C   UNL     1      87.894  70.619  87.173  0.00  0.00    +0.000 A 
ATOM     12  C   UNL     1      87.290  70.844  88.419  0.00  0.00    +0.000 A 
ATOM     13  C   UNL     1      86.049  71.476  88.501  0.00  0.00    +0.000 A 
ATOM     14  C   UNL     1      85.398  71.888  87.339  0.00  0.00    +0.000 A 
ATOM     15  C   UNL     1      85.986  71.665  86.096  0.00  0.00    +0.000 A 
ATOM     16  C   UNL     1      87.227  71.032  86.012  0.00  0.00    +0.000 A 
ENDBRANCH  10  11
ENDBRANCH   6  10
TORSDOF 2
ENDMDL
