MODEL 1
REMARK VINA RESULT:      -4.9      0.000      0.000
REMARK  Name = *****
REMARK  1 active torsions:
REMARK  status: ('A' for Active; 'I' for Inactive)
REMARK    1  A    between atoms: C_9  and  C_11
REMARK                            x       y       z     vdW  Elec       q    Type
REMARK                         _______ _______ _______ _____ _____    ______ ____
ROOT
ATOM      1  C   UNL     1     105.250 123.179  80.924  0.00  0.00    +0.000 A 
ATOM      2  C   UNL     1     104.445 124.217  80.431  0.00  0.00    +0.000 A 
ATOM      3  C   UNL     1     103.602 124.888  81.328  0.00  0.00    +0.000 A 
ATOM      4  C   UNL     1     103.592 124.507  82.660  0.00  0.00    +0.000 A 
ATOM      5  C   UNL     1     104.376 123.484  83.178  0.00  0.00    +0.000 A 
ATOM      6  C   UNL     1     105.215 122.819  82.277  0.00  0.00    +0.000 A 
ATOM      7 CL   UNL     1     104.328 123.050  84.834  0.00  0.00    +0.000 Cl
ATOM      8  O   UNL     1     102.697 125.308  83.311  0.00  0.00    +0.000 OA
ATOM      9  C   UNL     1     102.213 126.136  82.331  0.00  0.00    +0.000 A 
ATOM     10  N   UNL     1     102.723 125.923  81.131  0.00  0.00    +0.000 NA
ENDROOT
BRANCH   9  11
ATOM     11  C   UNL     1     101.219 127.123  82.741  0.00  0.00    +0.000 A 
ATOM     12  C   UNL     1     101.579 128.327  83.364  0.00  0.00    +0.000 A 
ATOM     13  C   UNL     1     100.598 129.242  83.739  0.00  0.00    +0.000 A 
ATOM     14  C   UNL     1      99.254 128.992  83.507  0.00  0.00    +0.000 A 
ATOM     15  C   UNL     1      98.896 127.803  82.891  0.00  0.00    +0.000 A 
ATOM     16  C   UNL     1      99.858 126.872  82.508  0.00  0.00    +0.000 A 
ATOM     17  F   UNL     1      97.602 127.546  82.659  0.00  0.00    +0.000 F 
ATOM     18  F   UNL     1     100.961 130.386  84.333  0.00  0.00    +0.000 F 
ENDBRANCH   9  11
TORSDOF 1
ENDMDL
