MODEL 1
REMARK VINA RESULT:      -4.9      0.000      0.000
REMARK  Name = *****
REMARK  4 active torsions:
REMARK  status: ('A' for Active; 'I' for Inactive)
REMARK    1  A    between atoms: C_1  and  C_2
REMARK    2  A    between atoms: C_5  and  C_8
REMARK    3  A    between atoms: C_8  and  C_9
REMARK    4  A    between atoms: C_10  and  C_11
REMARK                            x       y       z     vdW  Elec       q    Type
REMARK                         _______ _______ _______ _____ _____    ______ ____
ROOT
ATOM      1  C   UNL     1      89.120  70.261  87.282  0.00  0.00    +0.000 C 
ENDROOT
BRANCH   1   6
ATOM      2  C   UNL     1      83.792  72.570  86.779  0.00  0.00    +0.000 C 
ATOM      3  C   UNL     1      85.173  72.000  86.909  0.00  0.00    +0.000 A 
ATOM      4  C   UNL     1      85.930  71.707  85.770  0.00  0.00    +0.000 A 
ATOM      5  C   UNL     1      87.205  71.147  85.891  0.00  0.00    +0.000 A 
ATOM      6  C   UNL     1      87.738  70.856  87.154  0.00  0.00    +0.000 A 
ATOM      7  C   UNL     1      86.974  71.142  88.293  0.00  0.00    +0.000 A 
ATOM      8  C   UNL     1      85.700  71.702  88.170  0.00  0.00    +0.000 A 
ENDBRANCH   1   6
BRANCH   1   9
ATOM      9  C   UNL     1      89.123  68.770  87.082  0.00  0.00    +0.000 C 
ATOM     10  C   UNL     1      90.026  68.121  86.329  0.00  0.00    +0.000 C 
BRANCH  10  11
ATOM     11  C   UNL     1      90.050  66.665  86.130  0.00  0.00    +0.000 A 
ATOM     12  C   UNL     1      91.063  66.021  85.409  0.00  0.00    +0.000 A 
ATOM     13  C   UNL     1      91.066  64.630  85.271  0.00  0.00    +0.000 A 
ATOM     14  C   UNL     1      90.061  63.868  85.862  0.00  0.00    +0.000 A 
ATOM     15  C   UNL     1      89.057  64.494  86.596  0.00  0.00    +0.000 A 
ATOM     16  C   UNL     1      89.055  65.885  86.734  0.00  0.00    +0.000 A 
ENDBRANCH  10  11
ENDBRANCH   1   9
TORSDOF 3
ENDMDL
