MODEL 1
REMARK VINA RESULT:      -3.6      0.000      0.000
REMARK  Name = *****
REMARK  5 active torsions:
REMARK  status: ('A' for Active; 'I' for Inactive)
REMARK    1  A    between atoms: C_1  and  C_2
REMARK    2  A    between atoms: C_5  and  S_8
REMARK    3  A    between atoms: S_8  and  S_9
REMARK    4  A    between atoms: S_9  and  C_10
REMARK    5  A    between atoms: C_10  and  C_11
REMARK                            x       y       z     vdW  Elec       q    Type
REMARK                         _______ _______ _______ _____ _____    ______ ____
ROOT
ATOM      1  S   UNL     1      88.090  65.328  87.064  0.00  0.00    +0.000 S 
ENDROOT
BRANCH   1   6
ATOM      2  C   UNL     1      86.801  64.298  92.933  0.00  0.00    +0.000 C 
ATOM      3  C   UNL     1      87.130  64.581  91.497  0.00  0.00    +0.000 A 
ATOM      4  C   UNL     1      86.295  65.396  90.726  0.00  0.00    +0.000 A 
ATOM      5  C   UNL     1      86.583  65.631  89.378  0.00  0.00    +0.000 A 
ATOM      6  C   UNL     1      87.707  65.051  88.784  0.00  0.00    +0.000 A 
ATOM      7  C   UNL     1      88.529  64.215  89.546  0.00  0.00    +0.000 A 
ATOM      8  C   UNL     1      88.241  63.980  90.894  0.00  0.00    +0.000 A 
ENDBRANCH   1   6
BRANCH   1   9
ATOM      9  S   UNL     1      87.851  63.454  86.250  0.00  0.00    +0.000 S 
BRANCH   9  10
ATOM     10  C   UNL     1      86.038  63.284  86.230  0.00  0.00    +0.000 C 
BRANCH  10  11
ATOM     11  C   UNL     1      85.522  62.735  87.537  0.00  0.00    +0.000 A 
ATOM     12  C   UNL     1      84.243  63.081  87.999  0.00  0.00    +0.000 A 
ATOM     13  C   UNL     1      83.769  62.580  89.212  0.00  0.00    +0.000 A 
ATOM     14  C   UNL     1      84.569  61.734  89.978  0.00  0.00    +0.000 A 
ATOM     15  C   UNL     1      85.844  61.390  89.533  0.00  0.00    +0.000 A 
ATOM     16  C   UNL     1      86.321  61.889  88.320  0.00  0.00    +0.000 A 
ENDBRANCH  10  11
ENDBRANCH   9  10
ENDBRANCH   1   9
TORSDOF 4
ENDMDL
