REMARK  Name = *****
REMARK  2 active torsions:
REMARK  status: ('A' for Active; 'I' for Inactive)
REMARK    1  A    between atoms: C_2  and  C_10
REMARK    2  A    between atoms: C_3  and  C_4
REMARK                            x       y       z     vdW  Elec       q    Type
REMARK                         _______ _______ _______ _____ _____    ______ ____
ROOT
ATOM      1  C   UNL     1       1.934  -0.433  -0.949  0.00  0.00    +0.000 C 
ATOM      2  C   UNL     1       1.611   1.091  -1.255  0.00  0.00    +0.000 C 
ATOM      3  C   UNL     1       2.819   0.580  -1.230  0.00  0.00    +0.000 C 
ENDROOT
BRANCH   3   4
ATOM      4  C   UNL     1       4.205   0.891  -1.375  0.00  0.00    +0.000 A 
ATOM      5  C   UNL     1       5.177  -0.080  -1.111  0.00  0.00    +0.000 A 
ATOM      6  C   UNL     1       6.535   0.213  -1.266  0.00  0.00    +0.000 A 
ATOM      7  C   UNL     1       6.930   1.480  -1.691  0.00  0.00    +0.000 A 
ATOM      8  C   UNL     1       5.970   2.454  -1.959  0.00  0.00    +0.000 A 
ATOM      9  C   UNL     1       4.614   2.161  -1.800  0.00  0.00    +0.000 A 
ENDBRANCH   3   4
BRANCH   2  10
ATOM     10  C   UNL     1       0.199   1.418  -1.240  0.00  0.00    +0.000 A 
ATOM     11  C   UNL     1      -0.143   2.750  -0.972  0.00  0.00    +0.000 A 
ATOM     12  C   UNL     1      -1.479   3.159  -0.956  0.00  0.00    +0.000 A 
ATOM     13  C   UNL     1      -2.491   2.241  -1.225  0.00  0.00    +0.000 A 
ATOM     14  C   UNL     1      -2.166   0.917  -1.510  0.00  0.00    +0.000 A 
ATOM     15  C   UNL     1      -0.829   0.508  -1.518  0.00  0.00    +0.000 A 
ENDBRANCH   2  10
TORSDOF 2
