MODEL 1
REMARK VINA RESULT:      -4.5      0.000      0.000
REMARK  Name = *****
REMARK  3 active torsions:
REMARK  status: ('A' for Active; 'I' for Inactive)
REMARK    1  A    between atoms: C_5  and  C_7
REMARK    2  A    between atoms: C_7  and  O_9
REMARK    3  A    between atoms: O_9  and  C_10
REMARK                            x       y       z     vdW  Elec       q    Type
REMARK                         _______ _______ _______ _____ _____    ______ ____
ROOT
ATOM      1  C   UNL     1     101.749 125.992  82.885  0.00  0.00    +0.000 C 
ATOM      2  O   UNL     1     102.217 125.358  83.820  0.00  0.00    +0.000 OA
ENDROOT
BRANCH   1   7
ATOM      3  C   UNL     1     100.606 129.421  83.940  0.00  0.00    +0.000 A 
ATOM      4  C   UNL     1      99.281 129.436  83.505  0.00  0.00    +0.000 A 
ATOM      5  C   UNL     1      98.751 128.323  82.851  0.00  0.00    +0.000 A 
ATOM      6  C   UNL     1      99.544 127.195  82.641  0.00  0.00    +0.000 A 
ATOM      7  C   UNL     1     100.866 127.163  83.085  0.00  0.00    +0.000 A 
ATOM      8  C   UNL     1     101.399 128.290  83.729  0.00  0.00    +0.000 A 
ATOM      9  F   UNL     1      99.003 126.164  81.978  0.00  0.00    +0.000 F 
ENDBRANCH   1   7
BRANCH   1  10
ATOM     10  O   UNL     1     101.872 125.716  81.539  0.00  0.00    +0.000 OA
BRANCH  10  11
ATOM     11  C   UNL     1     103.172 125.869  81.052  0.00  0.00    +0.000 A 
ATOM     12  C   UNL     1     103.897 124.757  80.625  0.00  0.00    +0.000 A 
ATOM     13  C   UNL     1     105.174 124.940  80.095  0.00  0.00    +0.000 A 
ATOM     14  C   UNL     1     105.701 126.229  79.986  0.00  0.00    +0.000 A 
ATOM     15  C   UNL     1     104.960 127.339  80.397  0.00  0.00    +0.000 A 
ATOM     16  C   UNL     1     103.682 127.160  80.927  0.00  0.00    +0.000 A 
ATOM     17 CL   UNL     1     107.276 126.453  79.329  0.00  0.00    +0.000 Cl
ENDBRANCH  10  11
ENDBRANCH   1  10
TORSDOF 3
ENDMDL
