MODEL 1
REMARK VINA RESULT:      -4.4      0.000      0.000
REMARK  Name = *****
REMARK  3 active torsions:
REMARK  status: ('A' for Active; 'I' for Inactive)
REMARK    1  A    between atoms: C_4  and  C_7
REMARK    2  A    between atoms: C_7  and  C_8
REMARK    3  A    between atoms: C_9  and  C_10
REMARK                            x       y       z     vdW  Elec       q    Type
REMARK                         _______ _______ _______ _____ _____    ______ ____
ROOT
ATOM      1  C   UNL     1      88.084  70.521  88.216  0.00  0.00    +0.000 C 
ENDROOT
BRANCH   1   5
ATOM      2  C   UNL     1      84.437  72.383  86.847  0.00  0.00    +0.000 A 
ATOM      3  C   UNL     1      84.654  72.194  88.210  0.00  0.00    +0.000 A 
ATOM      4  C   UNL     1      85.831  71.588  88.654  0.00  0.00    +0.000 A 
ATOM      5  C   UNL     1      86.805  71.167  87.737  0.00  0.00    +0.000 A 
ATOM      6  C   UNL     1      86.574  71.366  86.367  0.00  0.00    +0.000 A 
ATOM      7  C   UNL     1      85.395  71.968  85.925  0.00  0.00    +0.000 A 
ENDBRANCH   1   5
BRANCH   1   8
ATOM      8  C   UNL     1      88.455  69.304  87.416  0.00  0.00    +0.000 C 
ATOM      9  C   UNL     1      89.624  69.164  86.772  0.00  0.00    +0.000 C 
BRANCH   9  10
ATOM     10  C   UNL     1      89.924  67.991  86.027  0.00  0.00    +0.000 A 
ATOM     11  C   UNL     1      89.529  67.664  84.734  0.00  0.00    +0.000 A 
ATOM     12  C   UNL     1      90.067  66.394  84.418  0.00  0.00    +0.000 A 
ATOM     13  C   UNL     1      90.768  66.001  85.528  0.00  0.00    +0.000 A 
ATOM     14  O   UNL     1      90.692  66.945  86.496  0.00  0.00    +0.000 OA
ENDBRANCH   9  10
ENDBRANCH   1   8
TORSDOF 3
ENDMDL
