REMARK  Name = *****
REMARK  2 active torsions:
REMARK  status: ('A' for Active; 'I' for Inactive)
REMARK    1  A    between atoms: C_2  and  C_11
REMARK    2  A    between atoms: C_3  and  C_4
REMARK                            x       y       z     vdW  Elec       q    Type
REMARK                         _______ _______ _______ _____ _____    ______ ____
ROOT
ATOM      1  C   UNL     1       0.059   0.617   0.105  0.00  0.00    +0.000 C 
ATOM      2  C   UNL     1       0.837  -0.662   0.284  0.00  0.00    +0.000 C 
ATOM      3  C   UNL     1      -0.633  -0.704  -0.111  0.00  0.00    +0.000 C 
ENDROOT
BRANCH   3   4
ATOM      4  C   UNL     1      -1.661  -1.195   0.881  0.00  0.00    +0.000 A 
ATOM      5  C   UNL     1      -2.782  -0.416   1.216  0.00  0.00    +0.000 A 
ATOM      6  C   UNL     1      -3.744  -0.873   2.122  0.00  0.00    +0.000 A 
ATOM      7  C   UNL     1      -3.601  -2.128   2.704  0.00  0.00    +0.000 A 
ATOM      8  C   UNL     1      -2.509  -2.928   2.385  0.00  0.00    +0.000 A 
ATOM      9  C   UNL     1      -1.551  -2.463   1.478  0.00  0.00    +0.000 A 
ATOM     10 CL   UNL     1      -4.782  -2.695   3.819  0.00  0.00    +0.000 Cl
ENDBRANCH   3   4
BRANCH   2  11
ATOM     11  C   UNL     1       1.895  -1.055  -0.720  0.00  0.00    +0.000 A 
ATOM     12  C   UNL     1       2.967  -0.198  -1.022  0.00  0.00    +0.000 A 
ATOM     13  C   UNL     1       3.958  -0.564  -1.937  0.00  0.00    +0.000 A 
ATOM     14  C   UNL     1       3.899  -1.804  -2.567  0.00  0.00    +0.000 A 
ATOM     15  C   UNL     1       2.853  -2.676  -2.278  0.00  0.00    +0.000 A 
ATOM     16  C   UNL     1       1.866  -2.304  -1.362  0.00  0.00    +0.000 A 
ENDBRANCH   2  11
TORSDOF 2
