REMARK  Name = *****
REMARK  3 active torsions:
REMARK  status: ('A' for Active; 'I' for Inactive)
REMARK    1  A    between atoms: C_4  and  C_7
REMARK    2  A    between atoms: C_8  and  S_9
REMARK    3  A    between atoms: S_9  and  C_10
REMARK                            x       y       z     vdW  Elec       q    Type
REMARK                         _______ _______ _______ _____ _____    ______ ____
ROOT
ATOM      1  C   UNL     1      -1.101  -2.963   0.152  0.00  0.00    +0.000 C 
ATOM      2  C   UNL     1      -1.560  -4.070   0.231  0.00  0.00    +0.000 C 
ENDROOT
BRANCH   1   6
ATOM      3  C   UNL     1       0.583   0.992   0.238  0.00  0.00    +0.000 C 
ATOM      4  C   UNL     1       1.447  -0.125  -0.336  0.00  0.00    +0.000 C 
ATOM      5  C   UNL     1       0.959  -1.497   0.135  0.00  0.00    +0.000 C 
ATOM      6  C   UNL     1      -0.541  -1.654   0.067  0.00  0.00    +0.000 C 
ATOM      7  C   UNL     1      -1.360  -0.598  -0.086  0.00  0.00    +0.000 C 
ATOM      8  C   UNL     1      -0.881   0.822  -0.169  0.00  0.00    +0.000 C 
ENDBRANCH   1   6
BRANCH   2   9
ATOM      9  S   UNL     1      -2.205  -5.629   0.351  0.00  0.00    +0.000 S 
BRANCH   9  10
ATOM     10  C   UNL     1      -0.744  -6.422   0.999  0.00  0.00    +0.000 A 
ATOM     11  C   UNL     1      -0.334  -6.204   2.319  0.00  0.00    +0.000 A 
ATOM     12  C   UNL     1       0.803  -6.842   2.819  0.00  0.00    +0.000 A 
ATOM     13  C   UNL     1       1.532  -7.708   2.004  0.00  0.00    +0.000 A 
ATOM     14  C   UNL     1       1.123  -7.938   0.691  0.00  0.00    +0.000 A 
ATOM     15  C   UNL     1      -0.013  -7.299   0.190  0.00  0.00    +0.000 A 
ENDBRANCH   9  10
ENDBRANCH   2   9
TORSDOF 3
