MODEL 1
REMARK VINA RESULT:      -4.4      0.000      0.000
REMARK  Name = *****
REMARK  4 active torsions:
REMARK  status: ('A' for Active; 'I' for Inactive)
REMARK    1  A    between atoms: C_1  and  C_2
REMARK    2  A    between atoms: C_2  and  C_11
REMARK    3  A    between atoms: N_3  and  C_4
REMARK    4  A    between atoms: C_4  and  C_5
REMARK                            x       y       z     vdW  Elec       q    Type
REMARK                         _______ _______ _______ _____ _____    ______ ____
ROOT
ATOM      1  C   UNL     1      89.704  68.573  84.540  0.00  0.00    +0.000 C 
ATOM      2  C   UNL     1      89.889  68.205  85.995  0.00  0.00    +0.000 C 
ATOM      3  N   UNL     1      89.810  69.036  86.979  0.00  0.00    +0.000 NA
ENDROOT
BRANCH   2   4
ATOM      4  C   UNL     1      90.095  66.723  86.314  0.00  0.00    +0.000 C 
ATOM      5  C   UNL     1      90.814  66.028  85.152  0.00  0.00    +0.000 C 
ATOM      6  C   UNL     1      90.996  64.536  85.419  0.00  0.00    +0.000 C 
ATOM      7  C   UNL     1      89.669  63.856  85.748  0.00  0.00    +0.000 C 
ATOM      8  C   UNL     1      88.952  64.546  86.904  0.00  0.00    +0.000 C 
ATOM      9  C   UNL     1      88.761  66.038  86.635  0.00  0.00    +0.000 C 
ENDBRANCH   2   4
BRANCH   3  10
ATOM     10  C   UNL     1      89.541  70.448  86.710  0.00  0.00    +0.000 C 
BRANCH  10  11
ATOM     11  C   UNL     1      88.105  70.827  86.997  0.00  0.00    +0.000 A 
ATOM     12  C   UNL     1      87.648  70.900  88.321  0.00  0.00    +0.000 A 
ATOM     13  C   UNL     1      86.336  71.293  88.601  0.00  0.00    +0.000 A 
ATOM     14  C   UNL     1      85.471  71.627  87.562  0.00  0.00    +0.000 A 
ATOM     15  C   UNL     1      85.916  71.571  86.242  0.00  0.00    +0.000 A 
ATOM     16  C   UNL     1      87.227  71.180  85.962  0.00  0.00    +0.000 A 
ENDBRANCH  10  11
ENDBRANCH   3  10
TORSDOF 3
ENDMDL
