MODEL 1
REMARK VINA RESULT:      -4.2      0.000      0.000
REMARK  Name = *****
REMARK  5 active torsions:
REMARK  status: ('A' for Active; 'I' for Inactive)
REMARK    1  A    between atoms: C_1  and  C_2
REMARK    2  A    between atoms: C_4  and  C_16
REMARK    3  A    between atoms: C_5  and  N_9
REMARK    4  A    between atoms: C_6  and  C_8
REMARK    5  A    between atoms: C_10  and  C_11
REMARK                            x       y       z     vdW  Elec       q    Type
REMARK                         _______ _______ _______ _____ _____    ______ ____
ROOT
ATOM      1  C   UNL     1      98.686 130.669  85.474  0.00  0.00    +0.000 C 
ATOM      2  C   UNL     1      99.542 129.771  84.630  0.00  0.00    +0.000 A 
ATOM      3  C   UNL     1      98.968 128.723  83.904  0.00  0.00    +0.000 A 
ATOM      4  C   UNL     1      99.763 127.854  83.141  0.00  0.00    +0.000 A 
ATOM      5  C   UNL     1     101.158 128.048  83.092  0.00  0.00    +0.000 A 
ATOM      6  C   UNL     1     101.747 129.073  83.859  0.00  0.00    +0.000 A 
ATOM      7  C   UNL     1     100.932 129.928  84.616  0.00  0.00    +0.000 A 
ATOM      8  C   UNL     1     103.238 129.269  83.864  0.00  0.00    +0.000 C 
ATOM      9  C   UNL     1      99.113 126.740  82.367  0.00  0.00    +0.000 C 
ENDROOT
BRANCH   5  10
ATOM     10  N   UNL     1     101.964 127.197  82.312  0.00  0.00    +0.000 NA
ATOM     11  C   UNL     1     102.430 126.154  82.925  0.00  0.00    +0.000 C 
BRANCH  11  12
ATOM     12  C   UNL     1     103.267 125.209  82.231  0.00  0.00    +0.000 A 
ATOM     13  C   UNL     1     103.534 125.116  80.880  0.00  0.00    +0.000 A 
ATOM     14  C   UNL     1     104.418 124.040  80.576  0.00  0.00    +0.000 A 
ATOM     15  C   UNL     1     104.794 123.350  81.708  0.00  0.00    +0.000 A 
ATOM     16  S   UNL     1     104.083 123.999  83.122  0.00  0.00    +0.000 S 
ENDBRANCH  11  12
ENDBRANCH   5  10
TORSDOF 2
ENDMDL
