MODEL 1
REMARK VINA RESULT:      -4.3      0.000      0.000
REMARK  Name = *****
REMARK  4 active torsions:
REMARK  status: ('A' for Active; 'I' for Inactive)
REMARK    1  A    between atoms: C_1  and  P_2
REMARK    2  A    between atoms: P_2  and  C_3
REMARK    3  A    between atoms: P_2  and  C_4
REMARK    4  A    between atoms: P_2  and  C_11
REMARK                            x       y       z     vdW  Elec       q    Type
REMARK                         _______ _______ _______ _____ _____    ______ ____
ROOT
ATOM      1  C   UNL     1     103.472 127.028  85.025  0.00  0.00    +0.000 C 
ATOM      2  P   UNL     1     103.001 128.045  83.635  0.00  0.00    +0.000 P 
ATOM      3  C   UNL     1     103.465 129.693  84.160  0.00  0.00    +0.000 C 
ENDROOT
BRANCH   2   4
ATOM      4  C   UNL     1     104.154 127.638  82.340  0.00  0.00    +0.000 C 
ATOM      5  C   UNL     1     103.683 127.817  80.886  0.00  0.00    +0.000 C 
ATOM      6  C   UNL     1     104.180 126.536  80.195  0.00  0.00    +0.000 C 
ATOM      7  C   UNL     1     103.297 125.362  80.650  0.00  0.00    +0.000 C 
ATOM      8  C   UNL     1     103.761 125.129  82.093  0.00  0.00    +0.000 C 
ATOM      9  C   UNL     1     104.801 126.235  82.310  0.00  0.00    +0.000 C 
ATOM     10  C   UNL     1     105.484 126.257  80.939  0.00  0.00    +0.000 C 
ENDBRANCH   2   4
BRANCH   2  11
ATOM     11  C   UNL     1     101.295 127.966  83.262  0.00  0.00    +0.000 A 
ATOM     12  C   UNL     1     100.732 126.828  82.674  0.00  0.00    +0.000 A 
ATOM     13  C   UNL     1      99.366 126.766  82.388  0.00  0.00    +0.000 A 
ATOM     14  C   UNL     1      98.540 127.843  82.693  0.00  0.00    +0.000 A 
ATOM     15  C   UNL     1      99.081 128.979  83.289  0.00  0.00    +0.000 A 
ATOM     16  C   UNL     1     100.447 129.035  83.574  0.00  0.00    +0.000 A 
ENDBRANCH   2  11
TORSDOF 2
ENDMDL
