REMARK  Name = *****
REMARK  5 active torsions:
REMARK  status: ('A' for Active; 'I' for Inactive)
REMARK    1  A    between atoms: C_1  and  C_2
REMARK    2  A    between atoms: C_2  and  S_3
REMARK    3  A    between atoms: S_3  and  C_4
REMARK    4  A    between atoms: C_4  and  C_12
REMARK    5  A    between atoms: C_5  and  C_6
REMARK                            x       y       z     vdW  Elec       q    Type
REMARK                         _______ _______ _______ _____ _____    ______ ____
ROOT
ATOM      1  C   UNL     1       4.771  -0.727  -1.563  0.00  0.00    +0.000 C 
ATOM      2  C   UNL     1       5.424  -0.403  -0.431  0.00  0.00    +0.000 C 
ENDROOT
BRANCH   2   3
ATOM      3  C   UNL     1       4.842   0.106   0.818  0.00  0.00    +0.000 A 
ATOM      4  C   UNL     1       3.942  -0.657   1.570  0.00  0.00    +0.000 A 
ATOM      5  C   UNL     1       3.421  -0.158   2.765  0.00  0.00    +0.000 A 
ATOM      6  C   UNL     1       3.802   1.103   3.221  0.00  0.00    +0.000 A 
ATOM      7  C   UNL     1       4.708   1.864   2.484  0.00  0.00    +0.000 A 
ATOM      8  C   UNL     1       5.230   1.366   1.289  0.00  0.00    +0.000 A 
ENDBRANCH   2   3
BRANCH   1   9
ATOM      9  C   UNL     1       5.535  -1.230  -2.719  0.00  0.00    +0.000 A 
ATOM     10  C   UNL     1       5.432  -2.570  -3.117  0.00  0.00    +0.000 A 
ATOM     11  C   UNL     1       6.168  -3.046  -4.204  0.00  0.00    +0.000 A 
ATOM     12  C   UNL     1       7.015  -2.187  -4.902  0.00  0.00    +0.000 A 
ATOM     13  C   UNL     1       7.130  -0.853  -4.515  0.00  0.00    +0.000 A 
ATOM     14  C   UNL     1       6.394  -0.376  -3.427  0.00  0.00    +0.000 A 
ENDBRANCH   1   9
BRANCH   1  15
ATOM     15  S   UNL     1       3.055  -0.611  -1.799  0.00  0.00    +0.000 S 
BRANCH  15  17
ATOM     16  C   UNL     1       1.468   1.515  -2.470  0.00  0.00    +0.000 C 
ATOM     17  C   UNL     1       2.919   1.155  -2.208  0.00  0.00    +0.000 C 
ENDBRANCH  15  17
ENDBRANCH   1  15
TORSDOF 4
