MODEL 1
REMARK VINA RESULT:      -4.5      0.000      0.000
REMARK  Name = *****
REMARK  3 active torsions:
REMARK  status: ('A' for Active; 'I' for Inactive)
REMARK    1  A    between atoms: C_5  and  O_7
REMARK    2  A    between atoms: O_7  and  C_8
REMARK    3  A    between atoms: C_8  and  C_10
REMARK                            x       y       z     vdW  Elec       q    Type
REMARK                         _______ _______ _______ _____ _____    ______ ____
ROOT
ATOM      1  C   UNL     1     103.378 127.354  82.123  0.00  0.00    +0.000 C 
ATOM      2  O   UNL     1     103.620 128.409  81.557  0.00  0.00    +0.000 OA
ENDROOT
BRANCH   1   3
ATOM      3  C   UNL     1     103.859 126.035  81.622  0.00  0.00    +0.000 A 
ATOM      4  C   UNL     1     103.824 124.868  82.403  0.00  0.00    +0.000 A 
ATOM      5  C   UNL     1     104.270 123.654  81.870  0.00  0.00    +0.000 A 
ATOM      6  C   UNL     1     104.748 123.609  80.565  0.00  0.00    +0.000 A 
ATOM      7  C   UNL     1     104.790 124.754  79.778  0.00  0.00    +0.000 A 
ATOM      8  C   UNL     1     104.347 125.969  80.306  0.00  0.00    +0.000 A 
ATOM      9  F   UNL     1     105.168 122.444  80.057  0.00  0.00    +0.000 F 
ENDBRANCH   1   3
BRANCH   1  10
ATOM     10  O   UNL     1     102.657 127.178  83.288  0.00  0.00    +0.000 OA
BRANCH  10  15
ATOM     11  C   UNL     1      99.815 129.460  83.765  0.00  0.00    +0.000 A 
ATOM     12  C   UNL     1      98.797 128.754  83.112  0.00  0.00    +0.000 A 
ATOM     13  C   UNL     1      99.071 127.523  82.514  0.00  0.00    +0.000 A 
ATOM     14  C   UNL     1     100.362 127.008  82.566  0.00  0.00    +0.000 A 
ATOM     15  C   UNL     1     101.376 127.722  83.200  0.00  0.00    +0.000 A 
ATOM     16  C   UNL     1     101.110 128.942  83.817  0.00  0.00    +0.000 A 
ATOM     17  F   UNL     1     100.619 125.814  82.013  0.00  0.00    +0.000 F 
ENDBRANCH  10  15
ENDBRANCH   1  10
TORSDOF 3
ENDMDL
