MODEL 1
REMARK VINA RESULT:      -4.4      0.000      0.000
REMARK  Name = *****
REMARK  4 active torsions:
REMARK  status: ('A' for Active; 'I' for Inactive)
REMARK    1  A    between atoms: C_3  and  C_8
REMARK    2  A    between atoms: C_8  and  C_9
REMARK    3  A    between atoms: C_9  and  C_10
REMARK    4  A    between atoms: C_10  and  C_12
REMARK                            x       y       z     vdW  Elec       q    Type
REMARK                         _______ _______ _______ _____ _____    ______ ____
ROOT
ATOM      1  C   UNL     1      89.749  68.505  86.503  0.00  0.00    +0.000 C 
ENDROOT
BRANCH   1   2
ATOM      2  C   UNL     1      89.428  69.967  86.254  0.00  0.00    +0.000 C 
ATOM      3  O   UNL     1      90.137  70.684  85.552  0.00  0.00    +0.000 OA
BRANCH   2   4
ATOM      4  C   UNL     1      88.205  70.551  86.888  0.00  0.00    +0.000 A 
ATOM      5  C   UNL     1      87.116  71.012  86.136  0.00  0.00    +0.000 A 
ATOM      6  C   UNL     1      85.995  71.550  86.779  0.00  0.00    +0.000 A 
ATOM      7  C   UNL     1      85.959  71.626  88.170  0.00  0.00    +0.000 A 
ATOM      8  C   UNL     1      87.034  71.172  88.928  0.00  0.00    +0.000 A 
ATOM      9  C   UNL     1      88.155  70.634  88.288  0.00  0.00    +0.000 A 
ATOM     10 CL   UNL     1      84.578  72.288  88.953  0.00  0.00    +0.000 Cl
ENDBRANCH   2   4
ENDBRANCH   1   2
BRANCH   1  11
ATOM     11  C   UNL     1      88.621  67.591  86.026  0.00  0.00    +0.000 C 
BRANCH  11  14
ATOM     12  C   UNL     1      86.223  66.580  88.814  0.00  0.00    +0.000 A 
ATOM     13  C   UNL     1      86.809  67.289  87.763  0.00  0.00    +0.000 A 
ATOM     14  C   UNL     1      88.000  66.838  87.178  0.00  0.00    +0.000 A 
ATOM     15  C   UNL     1      88.592  65.660  87.657  0.00  0.00    +0.000 A 
ATOM     16  C   UNL     1      88.001  64.956  88.706  0.00  0.00    +0.000 A 
ATOM     17  C   UNL     1      86.820  65.412  89.287  0.00  0.00    +0.000 A 
ATOM     18 CL   UNL     1      88.735  63.511  89.285  0.00  0.00    +0.000 Cl
ENDBRANCH  11  14
ENDBRANCH   1  11
TORSDOF 4
ENDMDL
