MODEL 1
REMARK VINA RESULT:      -4.5      0.000      0.000
REMARK  Name = *****
REMARK  4 active torsions:
REMARK  status: ('A' for Active; 'I' for Inactive)
REMARK    1  A    between atoms: C_1  and  C_2
REMARK    2  A    between atoms: C_5  and  S_8
REMARK    3  A    between atoms: S_8  and  O_10
REMARK    4  A    between atoms: O_10  and  C_11
REMARK                            x       y       z     vdW  Elec       q    Type
REMARK                         _______ _______ _______ _____ _____    ______ ____
ROOT
ATOM      1  S   UNL     1      87.809  70.276  88.613  0.00  0.00    +0.000 S 
ATOM      2  O   UNL     1      87.520  70.388  90.082  0.00  0.00    +0.000 OA
ENDROOT
BRANCH   1   7
ATOM      3  C   UNL     1      83.200  73.182  85.818  0.00  0.00    +0.000 C 
ATOM      4  C   UNL     1      84.348  72.488  86.491  0.00  0.00    +0.000 A 
ATOM      5  C   UNL     1      85.409  71.962  85.745  0.00  0.00    +0.000 A 
ATOM      6  C   UNL     1      86.466  71.307  86.381  0.00  0.00    +0.000 A 
ATOM      7  C   UNL     1      86.480  71.174  87.773  0.00  0.00    +0.000 A 
ATOM      8  C   UNL     1      85.422  71.702  88.522  0.00  0.00    +0.000 A 
ATOM      9  C   UNL     1      84.364  72.356  87.885  0.00  0.00    +0.000 A 
ENDBRANCH   1   7
BRANCH   1  10
ATOM     10  O   UNL     1      87.268  68.838  88.124  0.00  0.00    +0.000 OA
BRANCH  10  11
ATOM     11  C   UNL     1      88.162  68.020  87.478  0.00  0.00    +0.000 A 
ATOM     12  C   UNL     1      88.064  66.625  87.431  0.00  0.00    +0.000 A 
ATOM     13  C   UNL     1      89.013  65.880  86.726  0.00  0.00    +0.000 A 
ATOM     14  C   UNL     1      90.044  66.531  86.050  0.00  0.00    +0.000 A 
ATOM     15  C   UNL     1      90.130  67.922  86.066  0.00  0.00    +0.000 A 
ATOM     16  C   UNL     1      89.185  68.665  86.777  0.00  0.00    +0.000 A 
ATOM     17 CL   UNL     1      91.209  65.612  85.180  0.00  0.00    +0.000 Cl
ENDBRANCH  10  11
ENDBRANCH   1  10
TORSDOF 3
ENDMDL
