REMARK  Name = *****
REMARK  4 active torsions:
REMARK  status: ('A' for Active; 'I' for Inactive)
REMARK    1  A    between atoms: C_4  and  C_8
REMARK    2  A    between atoms: C_8  and  O_10
REMARK    3  A    between atoms: O_10  and  C_11
REMARK    4  A    between atoms: C_11  and  C_12
REMARK                            x       y       z     vdW  Elec       q    Type
REMARK                         _______ _______ _______ _____ _____    ______ ____
ROOT
ATOM      1  C   UNL     1       1.703  -2.468   0.336  0.00  0.00    +0.000 C 
ATOM      2  O   UNL     1       0.762  -2.457  -0.446  0.00  0.00    +0.000 OA
ENDROOT
BRANCH   1   6
ATOM      3  C   UNL     1       4.296  -2.867  -1.361  0.00  0.00    +0.000 C 
ATOM      4  C   UNL     1       4.352  -1.397  -1.780  0.00  0.00    +0.000 C 
ATOM      5  C   UNL     1       3.049  -0.857  -1.153  0.00  0.00    +0.000 C 
ATOM      6  C   UNL     1       2.964  -1.638   0.198  0.00  0.00    +0.000 C 
ATOM      7  C   UNL     1       4.222  -2.540   0.136  0.00  0.00    +0.000 C 
ATOM      8  C   UNL     1       5.433  -1.638   0.235  0.00  0.00    +0.000 C 
ATOM      9  C   UNL     1       5.506  -0.948  -0.913  0.00  0.00    +0.000 C 
ENDBRANCH   1   6
BRANCH   1  10
ATOM     10  O   UNL     1       1.759  -3.201   1.483  0.00  0.00    +0.000 OA
BRANCH  10  11
ATOM     11  C   UNL     1       0.664  -4.097   1.706  0.00  0.00    +0.000 C 
BRANCH  11  12
ATOM     12  C   UNL     1       1.055  -5.475   1.241  0.00  0.00    +0.000 A 
ATOM     13  C   UNL     1       1.747  -6.347   2.094  0.00  0.00    +0.000 A 
ATOM     14  C   UNL     1       2.130  -7.614   1.651  0.00  0.00    +0.000 A 
ATOM     15  C   UNL     1       1.836  -8.017   0.350  0.00  0.00    +0.000 A 
ATOM     16  C   UNL     1       1.162  -7.153  -0.511  0.00  0.00    +0.000 A 
ATOM     17  C   UNL     1       0.775  -5.887  -0.069  0.00  0.00    +0.000 A 
ENDBRANCH  11  12
ENDBRANCH  10  11
ENDBRANCH   1  10
TORSDOF 4
