MODEL 1
REMARK VINA RESULT:      -5.2      0.000      0.000
REMARK  Name = *****
REMARK  2 active torsions:
REMARK  status: ('A' for Active; 'I' for Inactive)
REMARK    1  A    between atoms: C_5  and  C_7
REMARK    2  A    between atoms: C_10  and  C_12
REMARK                            x       y       z     vdW  Elec       q    Type
REMARK                         _______ _______ _______ _____ _____    ______ ____
ROOT
ATOM      1  C   UNL     1     101.883 126.060  83.091  0.00  0.00    +0.000 A 
ATOM      2  N   UNL     1     102.298 125.275  84.067  0.00  0.00    +0.000 NA
ATOM      3  N   UNL     1     103.328 124.515  83.550  0.00  0.00    +0.000 NA
ATOM      4  C   UNL     1     103.488 124.903  82.301  0.00  0.00    +0.000 A 
ATOM      5  O   UNL     1     102.616 125.898  81.947  0.00  0.00    +0.000 OA
ENDROOT
BRANCH   1  10
ATOM      6  C   UNL     1      98.564 127.719  82.539  0.00  0.00    +0.000 A 
ATOM      7  C   UNL     1      98.760 128.987  83.072  0.00  0.00    +0.000 A 
ATOM      8  C   UNL     1     100.000 129.324  83.614  0.00  0.00    +0.000 A 
ATOM      9  C   UNL     1     101.048 128.392  83.634  0.00  0.00    +0.000 A 
ATOM     10  C   UNL     1     100.861 127.100  83.112  0.00  0.00    +0.000 A 
ATOM     11  C   UNL     1      99.605 126.788  82.556  0.00  0.00    +0.000 A 
ATOM     12 CL   UNL     1     102.555 128.952  84.277  0.00  0.00    +0.000 Cl
ENDBRANCH   1  10
BRANCH   4  13
ATOM     13  C   UNL     1     104.428 124.444  81.288  0.00  0.00    +0.000 A 
ATOM     14  C   UNL     1     105.070 123.201  81.386  0.00  0.00    +0.000 A 
ATOM     15  C   UNL     1     105.963 122.800  80.396  0.00  0.00    +0.000 A 
ATOM     16  C   UNL     1     106.237 123.610  79.301  0.00  0.00    +0.000 A 
ATOM     17  C   UNL     1     105.608 124.846  79.190  0.00  0.00    +0.000 A 
ATOM     18  C   UNL     1     104.709 125.259  80.179  0.00  0.00    +0.000 A 
ATOM     19  F   UNL     1     106.568 121.609  80.501  0.00  0.00    +0.000 F 
ENDBRANCH   4  13
TORSDOF 2
ENDMDL
