MODEL 1
REMARK VINA RESULT:      -4.2      0.000      0.000
REMARK  Name = *****
REMARK  3 active torsions:
REMARK  status: ('A' for Active; 'I' for Inactive)
REMARK    1  A    between atoms: C_1  and  C_2
REMARK    2  A    between atoms: N_7  and  C_8
REMARK    3  A    between atoms: C_8  and  C_9
REMARK                            x       y       z     vdW  Elec       q    Type
REMARK                         _______ _______ _______ _____ _____    ______ ____
ROOT
ATOM      1  C   UNL     1      87.810  71.059  85.527  0.00  0.00    +0.000 C 
ATOM      2  C   UNL     1      89.228  70.778  86.031  0.00  0.00    +0.000 C 
ATOM      3  C   UNL     1      90.121  70.185  84.926  0.00  0.00    +0.000 C 
ATOM      4  C   UNL     1      89.764  68.737  84.577  0.00  0.00    +0.000 C 
ATOM      5  C   UNL     1      89.769  67.838  85.808  0.00  0.00    +0.000 C 
ATOM      6  C   UNL     1      88.877  68.446  86.872  0.00  0.00    +0.000 C 
ATOM      7  N   UNL     1      87.891  67.871  87.468  0.00  0.00    +0.000 NA
ATOM      8  C   UNL     1      89.210  69.873  87.267  0.00  0.00    +0.000 C 
ENDROOT
BRANCH   7   9
ATOM      9  C   UNL     1      87.539  66.495  87.123  0.00  0.00    +0.000 C 
BRANCH   9  10
ATOM     10  C   UNL     1      87.634  65.567  88.313  0.00  0.00    +0.000 A 
ATOM     11  C   UNL     1      86.718  65.657  89.371  0.00  0.00    +0.000 A 
ATOM     12  C   UNL     1      86.783  64.771  90.447  0.00  0.00    +0.000 A 
ATOM     13  C   UNL     1      87.760  63.778  90.475  0.00  0.00    +0.000 A 
ATOM     14  C   UNL     1      88.671  63.669  89.426  0.00  0.00    +0.000 A 
ATOM     15  C   UNL     1      88.606  64.555  88.348  0.00  0.00    +0.000 A 
ENDBRANCH   9  10
ENDBRANCH   7   9
TORSDOF 2
ENDMDL
