MODEL 1
REMARK VINA RESULT:      -4.9      0.000      0.000
REMARK  Name = *****
REMARK  5 active torsions:
REMARK  status: ('A' for Active; 'I' for Inactive)
REMARK    1  A    between atoms: C_1  and  C_2
REMARK    2  A    between atoms: C_3  and  C_17
REMARK    3  A    between atoms: C_5  and  O_8
REMARK    4  A    between atoms: O_8  and  C_9
REMARK    5  A    between atoms: C_9  and  C_11
REMARK                            x       y       z     vdW  Elec       q    Type
REMARK                         _______ _______ _______ _____ _____    ______ ____
ROOT
ATOM      1  O   UNL     1     103.522 126.333  82.077  0.00  0.00    +0.000 OA
ENDROOT
BRANCH   1   6
ATOM      2  C   UNL     1      99.071 129.308  84.005  0.00  0.00    +0.000 C 
ATOM      3  C   UNL     1     100.234 128.500  83.495  0.00  0.00    +0.000 A 
ATOM      4  C   UNL     1     100.037 127.302  82.774  0.00  0.00    +0.000 A 
ATOM      5  C   UNL     1     101.152 126.581  82.322  0.00  0.00    +0.000 A 
ATOM      6  C   UNL     1     102.438 127.045  82.592  0.00  0.00    +0.000 A 
ATOM      7  C   UNL     1     102.645 128.237  83.277  0.00  0.00    +0.000 A 
ATOM      8  C   UNL     1     101.543 128.958  83.733  0.00  0.00    +0.000 A 
ATOM      9  C   UNL     1      98.657 126.776  82.491  0.00  0.00    +0.000 C 
ENDBRANCH   1   6
BRANCH   1  10
ATOM     10  C   UNL     1     103.681 126.458  80.702  0.00  0.00    +0.000 C 
ATOM     11  O   UNL     1     103.394 127.433  80.018  0.00  0.00    +0.000 OA
BRANCH  10  12
ATOM     12  C   UNL     1     104.263 125.179  80.125  0.00  0.00    +0.000 C 
ATOM     13  C   UNL     1     104.251 124.057  81.167  0.00  0.00    +0.000 C 
ATOM     14  C   UNL     1     104.845 122.768  80.604  0.00  0.00    +0.000 C 
ATOM     15  C   UNL     1     106.242 122.994  80.031  0.00  0.00    +0.000 C 
ATOM     16  C   UNL     1     106.252 124.112  78.991  0.00  0.00    +0.000 C 
ATOM     17  C   UNL     1     105.665 125.405  79.551  0.00  0.00    +0.000 C 
ENDBRANCH  10  12
ENDBRANCH   1  10
TORSDOF 3
ENDMDL
