REMARK  Name = *****
REMARK  3 active torsions:
REMARK  status: ('A' for Active; 'I' for Inactive)
REMARK    1  A    between atoms: C_5  and  C_7
REMARK    2  A    between atoms: C_7  and  S_8
REMARK    3  A    between atoms: S_8  and  C_9
REMARK                            x       y       z     vdW  Elec       q    Type
REMARK                         _______ _______ _______ _____ _____    ______ ____
ROOT
ATOM      1  S   UNL     1      -0.124  -3.912  -0.714  0.00  0.00    +0.000 S 
ENDROOT
BRANCH   1   2
ATOM      2  C   UNL     1      -1.041  -5.388  -0.316  0.00  0.00    +0.000 A 
ATOM      3  C   UNL     1      -2.395  -5.520  -0.640  0.00  0.00    +0.000 A 
ATOM      4  C   UNL     1      -3.085  -6.697  -0.329  0.00  0.00    +0.000 A 
ATOM      5  C   UNL     1      -2.419  -7.753   0.301  0.00  0.00    +0.000 A 
ATOM      6  C   UNL     1      -1.063  -7.629   0.611  0.00  0.00    +0.000 A 
ATOM      7  C   UNL     1      -0.376  -6.453   0.299  0.00  0.00    +0.000 A 
ATOM      8 CL   UNL     1      -3.207  -9.233   0.718  0.00  0.00    +0.000 Cl
ATOM      9 CL   UNL     1      -4.759  -6.781  -0.751  0.00  0.00    +0.000 Cl
ENDBRANCH   1   2
BRANCH   1  10
ATOM     10  C   UNL     1      -1.098  -2.671   0.212  0.00  0.00    +0.000 C 
BRANCH  10  15
ATOM     11  C   UNL     1       1.210   0.300   0.707  0.00  0.00    +0.000 A 
ATOM     12  C   UNL     1       0.553   1.244  -0.072  0.00  0.00    +0.000 A 
ATOM     13  C   UNL     1      -0.610   0.863  -0.718  0.00  0.00    +0.000 A 
ATOM     14  N   UNL     1      -1.146  -0.375  -0.634  0.00  0.00    +0.000 NA
ATOM     15  C   UNL     1      -0.492  -1.291   0.125  0.00  0.00    +0.000 A 
ATOM     16  C   UNL     1       0.684  -0.985   0.810  0.00  0.00    +0.000 A 
ENDBRANCH  10  15
ENDBRANCH   1  10
TORSDOF 3
