MODEL 1
REMARK VINA RESULT:      -3.6      0.000      0.000
REMARK  Name = *****
REMARK  5 active torsions:
REMARK  status: ('A' for Active; 'I' for Inactive)
REMARK    1  A    between atoms: C_1  and  S_2
REMARK    2  A    between atoms: S_2  and  C_3
REMARK    3  A    between atoms: S_2  and  C_10
REMARK    4  A    between atoms: C_3  and  C_4
REMARK    5  A    between atoms: C_10  and  C_11
REMARK                            x       y       z     vdW  Elec       q    Type
REMARK                         _______ _______ _______ _____ _____    ______ ____
ROOT
ATOM      1  C   UNL     1      84.770  65.853  85.519  0.00  0.00    +0.000 C 
ATOM      2  S   UNL     1      84.862  65.327  87.247  0.00  0.00    +0.000 S 
ENDROOT
BRANCH   2   3
ATOM      3  C   UNL     1      85.121  63.558  86.894  0.00  0.00    +0.000 C 
BRANCH   3   4
ATOM      4  C   UNL     1      84.887  62.689  88.102  0.00  0.00    +0.000 A 
ATOM      5  C   UNL     1      83.642  62.684  88.750  0.00  0.00    +0.000 A 
ATOM      6  C   UNL     1      83.426  61.875  89.867  0.00  0.00    +0.000 A 
ATOM      7  C   UNL     1      84.449  61.060  90.346  0.00  0.00    +0.000 A 
ATOM      8  C   UNL     1      85.689  61.052  89.710  0.00  0.00    +0.000 A 
ATOM      9  C   UNL     1      85.906  61.861  88.593  0.00  0.00    +0.000 A 
ENDBRANCH   3   4
ENDBRANCH   2   3
BRANCH   2  10
ATOM     10  C   UNL     1      86.613  65.751  87.519  0.00  0.00    +0.000 C 
BRANCH  10  11
ATOM     11  C   UNL     1      87.156  65.153  88.792  0.00  0.00    +0.000 A 
ATOM     12  C   UNL     1      86.439  65.260  89.993  0.00  0.00    +0.000 A 
ATOM     13  C   UNL     1      86.938  64.702  91.170  0.00  0.00    +0.000 A 
ATOM     14  C   UNL     1      88.158  64.030  91.161  0.00  0.00    +0.000 A 
ATOM     15  C   UNL     1      88.879  63.915  89.974  0.00  0.00    +0.000 A 
ATOM     16  C   UNL     1      88.381  64.473  88.796  0.00  0.00    +0.000 A 
ENDBRANCH  10  11
ENDBRANCH   2  10
TORSDOF 4
ENDMDL
