MODEL 1
REMARK VINA RESULT:      -4.6      0.000      0.000
REMARK  Name = *****
REMARK  1 active torsions:
REMARK  status: ('A' for Active; 'I' for Inactive)
REMARK    1  A    between atoms: C_7  and  C_9
REMARK                            x       y       z     vdW  Elec       q    Type
REMARK                         _______ _______ _______ _____ _____    ______ ____
ROOT
ATOM      1  C   UNL     1     102.924 126.270  82.088  0.00  0.00    +0.000 A 
ATOM      2  C   UNL     1     101.577 125.985  81.944  0.00  0.00    +0.000 A 
ATOM      3  C   UNL     1     100.700 126.965  82.518  0.00  0.00    +0.000 A 
ATOM      4  C   UNL     1      99.286 127.020  82.569  0.00  0.00    +0.000 A 
ATOM      5  C   UNL     1      98.642 128.092  83.195  0.00  0.00    +0.000 A 
ATOM      6  C   UNL     1      99.385 129.113  83.772  0.00  0.00    +0.000 A 
ATOM      7  C   UNL     1     100.780 129.084  83.735  0.00  0.00    +0.000 A 
ATOM      8  C   UNL     1     101.424 128.002  83.103  0.00  0.00    +0.000 A 
ATOM      9  S   UNL     1     103.115 127.756  82.932  0.00  0.00    +0.000 S 
ENDROOT
BRANCH   1  16
ATOM     10  C   UNL     1     105.374 125.179  79.564  0.00  0.00    +0.000 C 
ATOM     11  C   UNL     1     106.655 125.283  80.425  0.00  0.00    +0.000 C 
ATOM     12  N   UNL     1     106.314 124.849  81.820  0.00  0.00    +0.000 N 
ATOM     13  C   UNL     1     105.983 123.388  81.764  0.00  0.00    +0.000 C 
ATOM     14  C   UNL     1     104.678 123.223  80.951  0.00  0.00    +0.000 C 
ATOM     15  C   UNL     1     104.222 124.610  80.431  0.00  0.00    +0.000 C 
ATOM     16  C   UNL     1     104.069 125.532  81.654  0.00  0.00    +0.000 C 
ATOM     17  C   UNL     1     105.234 125.596  82.334  0.00  0.00    +0.000 C 
ENDBRANCH   1  16
TORSDOF 1
ENDMDL
