MODEL 1
REMARK VINA RESULT:      -4.9      0.000      0.000
REMARK  Name = *****
REMARK  5 active torsions:
REMARK  status: ('A' for Active; 'I' for Inactive)
REMARK    1  A    between atoms: C_1  and  C_2
REMARK    2  A    between atoms: C_5  and  C_8
REMARK    3  A    between atoms: C_9  and  C_10
REMARK    4  A    between atoms: C_12  and  O_16
REMARK    5  A    between atoms: O_16  and  C_17
REMARK                            x       y       z     vdW  Elec       q    Type
REMARK                         _______ _______ _______ _____ _____    ______ ____
ROOT
ATOM      1  C   UNL     1     102.638 125.559  81.545  0.00  0.00    +0.000 C 
ATOM      2  C   UNL     1     102.543 126.467  82.530  0.00  0.00    +0.000 C 
ENDROOT
BRANCH   1   7
ATOM      3  C   UNL     1     107.338 122.417  80.293  0.00  0.00    +0.000 C 
ATOM      4  C   UNL     1     106.141 123.249  80.641  0.00  0.00    +0.000 A 
ATOM      5  C   UNL     1     105.496 123.088  81.872  0.00  0.00    +0.000 A 
ATOM      6  C   UNL     1     104.360 123.843  82.183  0.00  0.00    +0.000 A 
ATOM      7  C   UNL     1     103.848 124.771  81.270  0.00  0.00    +0.000 A 
ATOM      8  C   UNL     1     104.476 124.907  80.026  0.00  0.00    +0.000 A 
ATOM      9  C   UNL     1     105.612 124.154  79.714  0.00  0.00    +0.000 A 
ENDBRANCH   1   7
BRANCH   2  10
ATOM     10  C   UNL     1     101.336 127.266  82.789  0.00  0.00    +0.000 A 
ATOM     11  C   UNL     1     100.048 126.789  82.493  0.00  0.00    +0.000 A 
ATOM     12  C   UNL     1      98.919 127.563  82.778  0.00  0.00    +0.000 A 
ATOM     13  C   UNL     1      99.081 128.814  83.376  0.00  0.00    +0.000 A 
ATOM     14  C   UNL     1     100.352 129.291  83.692  0.00  0.00    +0.000 A 
ATOM     15  C   UNL     1     101.475 128.517  83.403  0.00  0.00    +0.000 A 
BRANCH  12  16
ATOM     16  O   UNL     1      97.620 127.213  82.532  0.00  0.00    +0.000 OA
ATOM     17  C   UNL     1      96.831 126.836  83.654  0.00  0.00    +0.000 C 
ENDBRANCH  12  16
ENDBRANCH   2  10
TORSDOF 3
ENDMDL
