MODEL 1
REMARK VINA RESULT:      -4.5      0.000      0.000
REMARK  Name = *****
REMARK  4 active torsions:
REMARK  status: ('A' for Active; 'I' for Inactive)
REMARK    1  A    between atoms: C_1  and  C_2
REMARK    2  A    between atoms: C_3  and  C_16
REMARK    3  A    between atoms: C_5  and  C_7
REMARK    4  A    between atoms: C_8  and  C_9
REMARK                            x       y       z     vdW  Elec       q    Type
REMARK                         _______ _______ _______ _____ _____    ______ ____
ROOT
ATOM      1  C   UNL     1     103.340 126.433  81.528  0.00  0.00    +0.000 C 
ATOM      2  C   UNL     1     102.116 126.155  82.002  0.00  0.00    +0.000 C 
ENDROOT
BRANCH   2   3
ATOM      3  C   UNL     1     101.255 127.141  82.668  0.00  0.00    +0.000 A 
ATOM      4  C   UNL     1     101.853 128.206  83.355  0.00  0.00    +0.000 A 
ATOM      5  C   UNL     1     101.069 129.180  83.981  0.00  0.00    +0.000 A 
ATOM      6  C   UNL     1      99.681 129.100  83.910  0.00  0.00    +0.000 A 
ATOM      7  C   UNL     1      99.071 128.058  83.216  0.00  0.00    +0.000 A 
ATOM      8  C   UNL     1      99.856 127.084  82.592  0.00  0.00    +0.000 A 
ATOM      9 CL   UNL     1      98.714 130.298  84.677  0.00  0.00    +0.000 Cl
ENDBRANCH   2   3
BRANCH   1  14
ATOM     10  C   UNL     1     106.304 124.586  78.179  0.00  0.00    +0.000 C 
ATOM     11  C   UNL     1     105.463 124.560  79.387  0.00  0.00    +0.000 A 
ATOM     12  C   UNL     1     105.142 123.612  80.331  0.00  0.00    +0.000 A 
ATOM     13  N   UNL     1     104.287 124.175  81.256  0.00  0.00    +0.000 NA
ATOM     14  C   UNL     1     104.125 125.438  80.881  0.00  0.00    +0.000 A 
ATOM     15  O   UNL     1     104.832 125.719  79.726  0.00  0.00    +0.000 OA
BRANCH  12  16
ATOM     16  C   UNL     1     105.552 122.193  80.428  0.00  0.00    +0.000 C 
ATOM     17 CL   UNL     1     104.399 121.291  81.436  0.00  0.00    +0.000 Cl
ENDBRANCH  12  16
ENDBRANCH   1  14
TORSDOF 3
ENDMDL
