MODEL 1
REMARK VINA RESULT:      -5.1      0.000      0.000
REMARK  Name = *****
REMARK  5 active torsions:
REMARK  status: ('A' for Active; 'I' for Inactive)
REMARK    1  A    between atoms: C_1  and  C_2
REMARK    2  A    between atoms: C_2  and  C_4
REMARK    3  A    between atoms: C_9  and  C_10
REMARK    4  A    between atoms: C_10  and  C_11
REMARK    5  A    between atoms: C_11  and  C_12
REMARK                            x       y       z     vdW  Elec       q    Type
REMARK                         _______ _______ _______ _____ _____    ______ ____
ROOT
ATOM      1  C   UNL     1     102.581 126.690  84.299  0.00  0.00    +0.000 C 
ENDROOT
BRANCH   1   2
ATOM      2  C   UNL     1     103.078 126.177  82.972  0.00  0.00    +0.000 A 
ATOM      3  C   UNL     1     103.510 124.854  82.837  0.00  0.00    +0.000 A 
ATOM      4  C   UNL     1     103.982 124.370  81.619  0.00  0.00    +0.000 A 
ATOM      5  C   UNL     1     104.032 125.207  80.514  0.00  0.00    +0.000 A 
ATOM      6  C   UNL     1     103.610 126.524  80.626  0.00  0.00    +0.000 A 
ATOM      7  C   UNL     1     103.139 127.004  81.846  0.00  0.00    +0.000 A 
ATOM      8  F   UNL     1     102.736 128.280  81.932  0.00  0.00    +0.000 F 
ATOM      9  F   UNL     1     103.658 127.335  79.560  0.00  0.00    +0.000 F 
ATOM     10  F   UNL     1     104.487 124.744  79.341  0.00  0.00    +0.000 F 
ATOM     11  F   UNL     1     104.391 123.098  81.517  0.00  0.00    +0.000 F 
ATOM     12  F   UNL     1     103.474 124.036  83.899  0.00  0.00    +0.000 F 
ENDBRANCH   1   2
BRANCH   1  13
ATOM     13  C   UNL     1     101.054 126.828  84.324  0.00  0.00    +0.000 C 
BRANCH  13  19
ATOM     14  C   UNL     1      99.383 128.672  83.654  0.00  0.00    +0.000 A 
ATOM     15  C   UNL     1      99.047 130.035  83.597  0.00  0.00    +0.000 A 
ATOM     16  C   UNL     1      99.922 131.001  84.092  0.00  0.00    +0.000 A 
ATOM     17  C   UNL     1     101.136 130.616  84.651  0.00  0.00    +0.000 A 
ATOM     18  C   UNL     1     101.476 129.264  84.717  0.00  0.00    +0.000 A 
ATOM     19  C   UNL     1     100.610 128.272  84.220  0.00  0.00    +0.000 A 
BRANCH  14  21
ATOM     20  C   UNL     1      97.346 127.156  84.065  0.00  0.00    +0.000 C 
ATOM     21  C   UNL     1      98.401 127.683  83.127  0.00  0.00    +0.000 C 
ATOM     22  O   UNL     1      98.474 127.297  81.964  0.00  0.00    +0.000 OA
ENDBRANCH  14  21
ENDBRANCH  13  19
ENDBRANCH   1  13
TORSDOF 4
ENDMDL
