MODEL 1
REMARK VINA RESULT:      -5.2      0.000      0.000
REMARK  Name = *****
REMARK  6 active torsions:
REMARK  status: ('A' for Active; 'I' for Inactive)
REMARK    1  A    between atoms: C_1  and  C_2
REMARK    2  A    between atoms: C_3  and  C_21
REMARK    3  A    between atoms: C_5  and  O_8
REMARK    4  A    between atoms: O_8  and  C_9
REMARK    5  A    between atoms: C_9  and  C_11
REMARK    6  A    between atoms: C_14  and  C_17
REMARK                            x       y       z     vdW  Elec       q    Type
REMARK                         _______ _______ _______ _____ _____    ______ ____
ROOT
ATOM      1  C   UNL     1      88.515  64.666  86.477  0.00  0.00    +0.000 C 
ATOM      2  O   UNL     1      88.113  64.168  85.436  0.00  0.00    +0.000 OA
ENDROOT
BRANCH   1   3
ATOM      3  C   UNL     1      88.571  66.138  86.703  0.00  0.00    +0.000 A 
ATOM      4  C   UNL     1      87.521  66.857  87.288  0.00  0.00    +0.000 A 
ATOM      5  C   UNL     1      87.632  68.239  87.475  0.00  0.00    +0.000 A 
ATOM      6  C   UNL     1      88.789  68.927  87.077  0.00  0.00    +0.000 A 
ATOM      7  C   UNL     1      89.843  68.201  86.502  0.00  0.00    +0.000 A 
ATOM      8  C   UNL     1      89.733  66.819  86.313  0.00  0.00    +0.000 A 
BRANCH   6   9
ATOM      9  C   UNL     1      88.911  70.415  87.304  0.00  0.00    +0.000 C 
ATOM     10  F   UNL     1      87.853  71.115  86.808  0.00  0.00    +0.000 F 
ATOM     11  F   UNL     1      88.983  70.732  88.625  0.00  0.00    +0.000 F 
ATOM     12  F   UNL     1      90.019  70.958  86.726  0.00  0.00    +0.000 F 
ENDBRANCH   6   9
ENDBRANCH   1   3
BRANCH   1  13
ATOM     13  O   UNL     1      88.971  64.005  87.602  0.00  0.00    +0.000 OA
BRANCH  13  18
ATOM     14  C   UNL     1      85.177  62.151  91.428  0.00  0.00    +0.000 C 
ATOM     15  C   UNL     1      86.177  62.659  90.424  0.00  0.00    +0.000 A 
ATOM     16  C   UNL     1      87.062  63.714  90.737  0.00  0.00    +0.000 A 
ATOM     17  C   UNL     1      87.973  64.154  89.766  0.00  0.00    +0.000 A 
ATOM     18  C   UNL     1      87.995  63.562  88.504  0.00  0.00    +0.000 A 
ATOM     19  C   UNL     1      87.147  62.503  88.196  0.00  0.00    +0.000 A 
ATOM     20  C   UNL     1      86.235  62.061  89.152  0.00  0.00    +0.000 A 
ATOM     21  C   UNL     1      87.045  64.377  92.086  0.00  0.00    +0.000 C 
ENDBRANCH  13  18
ENDBRANCH   1  13
TORSDOF 4
ENDMDL
