REMARK  Name = *****
REMARK  3 active torsions:
REMARK  status: ('A' for Active; 'I' for Inactive)
REMARK    1  A    between atoms: C_4  and  S_7
REMARK    2  A    between atoms: S_7  and  C_8
REMARK    3  A    between atoms: C_8  and  C_10
REMARK                            x       y       z     vdW  Elec       q    Type
REMARK                         _______ _______ _______ _____ _____    ______ ____
ROOT
ATOM      1  C   UNL     1      -3.951  -0.882  -0.473  0.00  0.00    +0.000 C 
ATOM      2  O   UNL     1      -3.311  -1.918  -0.338  0.00  0.00    +0.000 OA
ENDROOT
BRANCH   1   3
ATOM      3  C   UNL     1      -5.431  -0.942  -0.685  0.00  0.00    +0.000 A 
ATOM      4  C   UNL     1      -6.278   0.175  -0.609  0.00  0.00    +0.000 A 
ATOM      5  C   UNL     1      -7.655   0.037  -0.822  0.00  0.00    +0.000 A 
ATOM      6  C   UNL     1      -8.193  -1.216  -1.109  0.00  0.00    +0.000 A 
ATOM      7  C   UNL     1      -7.370  -2.335  -1.182  0.00  0.00    +0.000 A 
ATOM      8  C   UNL     1      -5.995  -2.198  -0.968  0.00  0.00    +0.000 A 
ATOM      9 BR   UNL     1     -10.052  -1.395  -1.397  0.00  0.00    +0.000 Br
ENDBRANCH   1   3
BRANCH   1  10
ATOM     10  S   UNL     1      -3.185   0.705  -0.445  0.00  0.00    +0.000 S 
BRANCH  10  14
ATOM     11  C   UNL     1       1.279  -0.185  -0.988  0.00  0.00    +0.000 A 
ATOM     12  C   UNL     1       0.367  -0.637  -1.940  0.00  0.00    +0.000 A 
ATOM     13  C   UNL     1      -0.997  -0.381  -1.779  0.00  0.00    +0.000 A 
ATOM     14  C   UNL     1      -1.459   0.318  -0.658  0.00  0.00    +0.000 A 
ATOM     15  C   UNL     1      -0.534   0.777   0.287  0.00  0.00    +0.000 A 
ATOM     16  C   UNL     1       0.830   0.523   0.125  0.00  0.00    +0.000 A 
ENDBRANCH  10  14
ENDBRANCH   1  10
TORSDOF 3
