MODEL 1
REMARK VINA RESULT:      -4.4      0.000      0.000
REMARK  Name = *****
REMARK  3 active torsions:
REMARK  status: ('A' for Active; 'I' for Inactive)
REMARK    1  A    between atoms: C_4  and  C_7
REMARK    2  A    between atoms: C_7  and  O_9
REMARK    3  A    between atoms: O_9  and  C_10
REMARK                            x       y       z     vdW  Elec       q    Type
REMARK                         _______ _______ _______ _____ _____    ______ ____
ROOT
ATOM      1  C   UNL     1     102.469 125.417  82.968  0.00  0.00    +0.000 C 
ATOM      2  O   UNL     1     102.296 125.246  84.169  0.00  0.00    +0.000 OA
ENDROOT
BRANCH   1   6
ATOM      3  C   UNL     1     105.264 123.417  80.303  0.00  0.00    +0.000 C 
ATOM      4  C   UNL     1     104.759 124.804  79.919  0.00  0.00    +0.000 C 
ATOM      5  C   UNL     1     103.516 125.195  80.714  0.00  0.00    +0.000 C 
ATOM      6  C   UNL     1     103.751 125.080  82.223  0.00  0.00    +0.000 C 
ATOM      7  C   UNL     1     104.252 123.680  82.600  0.00  0.00    +0.000 C 
ATOM      8  C   UNL     1     105.500 123.301  81.806  0.00  0.00    +0.000 C 
ENDBRANCH   1   6
BRANCH   1   9
ATOM      9  O   UNL     1     101.557 125.927  82.075  0.00  0.00    +0.000 OA
BRANCH   9  10
ATOM     10  C   UNL     1     100.811 127.026  82.543  0.00  0.00    +0.000 C 
ATOM     11  C   UNL     1      99.472 126.963  82.560  0.00  0.00    +0.000 C 
ATOM     12  C   UNL     1      98.606 128.065  83.096  0.00  0.00    +0.000 C 
ATOM     13  C   UNL     1      99.376 129.356  83.387  0.00  0.00    +0.000 C 
ATOM     14  C   UNL     1     100.729 129.063  84.033  0.00  0.00    +0.000 C 
ATOM     15  C   UNL     1     101.588 128.177  83.127  0.00  0.00    +0.000 C 
ENDBRANCH   9  10
ENDBRANCH   1   9
TORSDOF 3
ENDMDL
