MODEL 1
REMARK VINA RESULT:      -4.0      0.000      0.000
REMARK  Name = *****
REMARK  4 active torsions:
REMARK  status: ('A' for Active; 'I' for Inactive)
REMARK    1  A    between atoms: C_1  and  O_2
REMARK    2  A    between atoms: O_2  and  C_3
REMARK    3  A    between atoms: C_7  and  C_9
REMARK    4  A    between atoms: C_10  and  C_11
REMARK                            x       y       z     vdW  Elec       q    Type
REMARK                         _______ _______ _______ _____ _____    ______ ____
ROOT
ATOM      1  C   UNL     1      98.753 127.588  82.895  0.00  0.00    +0.000 A 
ATOM      2  C   UNL     1      99.167 128.767  83.514  0.00  0.00    +0.000 A 
ATOM      3  C   UNL     1     100.529 129.036  83.664  0.00  0.00    +0.000 A 
ATOM      4  C   UNL     1     101.483 128.130  83.193  0.00  0.00    +0.000 A 
ATOM      5  C   UNL     1     101.083 126.951  82.555  0.00  0.00    +0.000 A 
ATOM      6  C   UNL     1      99.713 126.686  82.424  0.00  0.00    +0.000 A 
ENDROOT
BRANCH   1   8
ATOM      7  C   UNL     1      96.919 126.252  83.607  0.00  0.00    +0.000 C 
ATOM      8  O   UNL     1      97.457 127.199  82.692  0.00  0.00    +0.000 OA
ENDBRANCH   1   8
BRANCH   5   9
ATOM      9  C   UNL     1     102.050 125.953  82.075  0.00  0.00    +0.000 C 
ATOM     10  C   UNL     1     102.996 125.387  82.844  0.00  0.00    +0.000 C 
BRANCH  10  11
ATOM     11  C   UNL     1     103.979 124.371  82.345  0.00  0.00    +0.000 C 
ATOM     12  S   UNL     1     105.541 124.561  83.258  0.00  0.00    +0.000 S 
ATOM     13  C   UNL     1     106.631 124.601  81.815  0.00  0.00    +0.000 C 
ATOM     14  C   UNL     1     105.907 125.343  80.710  0.00  0.00    +0.000 C 
ATOM     15  S   UNL     1     104.255 124.619  80.568  0.00  0.00    +0.000 S 
ENDBRANCH  10  11
ENDBRANCH   5   9
TORSDOF 3
ENDMDL
