MODEL 1
REMARK VINA RESULT:      -4.9      0.000      0.000
REMARK  Name = *****
REMARK  2 active torsions:
REMARK  status: ('A' for Active; 'I' for Inactive)
REMARK    1  A    between atoms: C_7  and  P_11
REMARK    2  A    between atoms: P_11  and  C_12
REMARK                            x       y       z     vdW  Elec       q    Type
REMARK                         _______ _______ _______ _____ _____    ______ ____
ROOT
ATOM      1  C   UNL     1      84.462  72.325  87.925  0.00  0.00    +0.000 A 
ATOM      2  C   UNL     1      85.163  72.155  89.051  0.00  0.00    +0.000 A 
ATOM      3  C   UNL     1      86.473  71.578  89.233  0.00  0.00    +0.000 A 
ATOM      4  C   UNL     1      87.273  71.034  88.308  0.00  0.00    +0.000 A 
ATOM      5  C   UNL     1      88.559  70.446  88.629  0.00  0.00    +0.000 A 
ATOM      6  C   UNL     1      89.062  69.972  87.481  0.00  0.00    +0.000 A 
ATOM      7  C   UNL     1      88.130  70.252  86.395  0.00  0.00    +0.000 A 
ATOM      8  C   UNL     1      87.036  70.896  86.867  0.00  0.00    +0.000 A 
ATOM      9  C   UNL     1      85.912  71.379  86.100  0.00  0.00    +0.000 A 
ATOM     10  C   UNL     1      84.817  71.995  86.567  0.00  0.00    +0.000 A 
ENDROOT
BRANCH   7  11
ATOM     11  P   UNL     1      88.521  69.724  84.733  0.00  0.00    +0.000 P 
ATOM     12  H   UNL     1      87.381  69.492  83.989  0.00  0.00    +0.000 HD
BRANCH  11  13
ATOM     13  C   UNL     1      89.430  71.188  84.137  0.00  0.00    +0.000 A 
ATOM     14  C   UNL     1      90.795  71.109  83.828  0.00  0.00    +0.000 A 
ATOM     15  C   UNL     1      91.487  72.230  83.360  0.00  0.00    +0.000 A 
ATOM     16  C   UNL     1      90.821  73.440  83.189  0.00  0.00    +0.000 A 
ATOM     17  C   UNL     1      89.462  73.531  83.481  0.00  0.00    +0.000 A 
ATOM     18  C   UNL     1      88.770  72.411  83.950  0.00  0.00    +0.000 A 
ENDBRANCH  11  13
ENDBRANCH   7  11
TORSDOF 2
ENDMDL
