MODEL 1
REMARK VINA RESULT:      -3.9      0.000      0.000
REMARK  Name = *****
REMARK  4 active torsions:
REMARK  status: ('A' for Active; 'I' for Inactive)
REMARK    1  A    between atoms: C_4  and  S_7
REMARK    2  A    between atoms: S_7  and  C_8
REMARK    3  A    between atoms: C_8  and  C_10
REMARK    4  A    between atoms: C_10  and  C_11
REMARK                            x       y       z     vdW  Elec       q    Type
REMARK                         _______ _______ _______ _____ _____    ______ ____
ROOT
ATOM      1  C   UNL     1     103.823 128.339  82.210  0.00  0.00    +0.000 C 
ATOM      2  O   UNL     1     104.371 129.406  82.469  0.00  0.00    +0.000 OA
ENDROOT
BRANCH   1   3
ATOM      3  S   UNL     1     103.153 127.313  83.482  0.00  0.00    +0.000 S 
BRANCH   3   7
ATOM      4  C   UNL     1      98.684 128.036  82.776  0.00  0.00    +0.000 A 
ATOM      5  C   UNL     1      99.451 129.012  83.411  0.00  0.00    +0.000 A 
ATOM      6  C   UNL     1     100.813 128.796  83.631  0.00  0.00    +0.000 A 
ATOM      7  C   UNL     1     101.414 127.602  83.221  0.00  0.00    +0.000 A 
ATOM      8  C   UNL     1     100.640 126.631  82.577  0.00  0.00    +0.000 A 
ATOM      9  C   UNL     1      99.278 126.846  82.359  0.00  0.00    +0.000 A 
ENDBRANCH   3   7
ENDBRANCH   1   3
BRANCH   1  10
ATOM     10  C   UNL     1     103.643 127.818  80.802  0.00  0.00    +0.000 C 
BRANCH  10  11
ATOM     11  C   UNL     1     104.250 126.453  80.673  0.00  0.00    +0.000 A 
ATOM     12  C   UNL     1     103.616 125.256  80.405  0.00  0.00    +0.000 A 
ATOM     13  C   UNL     1     104.527 124.162  80.351  0.00  0.00    +0.000 A 
ATOM     14  C   UNL     1     105.824 124.559  80.590  0.00  0.00    +0.000 A 
ATOM     15  S   UNL     1     105.937 126.239  80.878  0.00  0.00    +0.000 S 
ENDBRANCH  10  11
ENDBRANCH   1  10
TORSDOF 4
ENDMDL
