MODEL 1
REMARK VINA RESULT:      -4.9      0.000      0.000
REMARK  Name = *****
REMARK  2 active torsions:
REMARK  status: ('A' for Active; 'I' for Inactive)
REMARK    1  A    between atoms: C_5  and  C_7
REMARK    2  A    between atoms: C_9  and  C_10
REMARK                            x       y       z     vdW  Elec       q    Type
REMARK                         _______ _______ _______ _____ _____    ______ ____
ROOT
ATOM      1  C   UNL     1     103.169 126.035  81.700  0.00  0.00    +0.000 C 
ATOM      2  C   UNL     1     103.251 125.744  83.173  0.00  0.00    +0.000 C 
ATOM      3  C   UNL     1     101.900 125.789  82.495  0.00  0.00    +0.000 C 
ENDROOT
BRANCH   1   8
ATOM      4  C   UNL     1     105.018 122.892  80.469  0.00  0.00    +0.000 C 
ATOM      5  C   UNL     1     106.146 123.643  79.761  0.00  0.00    +0.000 C 
ATOM      6  C   UNL     1     105.730 125.001  79.280  0.00  0.00    +0.000 C 
ATOM      7  C   UNL     1     104.602 125.608  79.680  0.00  0.00    +0.000 C 
ATOM      8  C   UNL     1     103.644 125.016  80.690  0.00  0.00    +0.000 C 
ATOM      9  C   UNL     1     104.258 123.807  81.426  0.00  0.00    +0.000 C 
ENDBRANCH   1   8
BRANCH   3  10
ATOM     10  C   UNL     1     100.953 126.931  82.774  0.00  0.00    +0.000 A 
ATOM     11  C   UNL     1      99.595 126.859  82.419  0.00  0.00    +0.000 A 
ATOM     12  C   UNL     1      98.714 127.908  82.691  0.00  0.00    +0.000 A 
ATOM     13  C   UNL     1      99.173 129.055  83.332  0.00  0.00    +0.000 A 
ATOM     14  C   UNL     1     100.511 129.149  83.703  0.00  0.00    +0.000 A 
ATOM     15  C   UNL     1     101.388 128.095  83.429  0.00  0.00    +0.000 A 
ENDBRANCH   3  10
TORSDOF 2
ENDMDL
