MODEL 1
REMARK VINA RESULT:      -4.7      0.000      0.000
REMARK  Name = *****
REMARK  2 active torsions:
REMARK  status: ('A' for Active; 'I' for Inactive)
REMARK    1  A    between atoms: C_1  and  C_2
REMARK    2  A    between atoms: C_10  and  C_12
REMARK                            x       y       z     vdW  Elec       q    Type
REMARK                         _______ _______ _______ _____ _____    ______ ____
ROOT
ATOM      1  C   UNL     1     104.853 129.018  80.222  0.00  0.00    +0.000 C 
ATOM      2  C   UNL     1     104.576 127.822  81.125  0.00  0.00    +0.000 C 
ATOM      3  C   UNL     1     104.607 126.488  80.382  0.00  0.00    +0.000 C 
ATOM      4  C   UNL     1     105.970 126.145  79.772  0.00  0.00    +0.000 C 
ATOM      5  C   UNL     1     105.965 124.747  79.152  0.00  0.00    +0.000 C 
ATOM      6  C   UNL     1     105.503 123.684  80.145  0.00  0.00    +0.000 C 
ATOM      7  C   UNL     1     104.155 124.039  80.767  0.00  0.00    +0.000 C 
ATOM      8  C   UNL     1     104.189 125.431  81.402  0.00  0.00    +0.000 C 
ATOM      9  N   UNL     1     102.866 125.729  81.942  0.00  0.00    +0.000 NA
ATOM     10  C   UNL     1     102.527 126.964  82.065  0.00  0.00    +0.000 C 
ATOM     11  O   UNL     1     103.275 128.034  81.707  0.00  0.00    +0.000 OA
ENDROOT
BRANCH  10  12
ATOM     12  C   UNL     1     101.217 127.391  82.625  0.00  0.00    +0.000 A 
ATOM     13  C   UNL     1     100.077 126.630  82.330  0.00  0.00    +0.000 A 
ATOM     14  C   UNL     1      98.830 126.999  82.840  0.00  0.00    +0.000 A 
ATOM     15  C   UNL     1      98.713 128.131  83.644  0.00  0.00    +0.000 A 
ATOM     16  C   UNL     1      99.841 128.895  83.941  0.00  0.00    +0.000 A 
ATOM     17  C   UNL     1     101.090 128.528  83.434  0.00  0.00    +0.000 A 
ENDBRANCH  10  12
TORSDOF 1
ENDMDL
