MODEL 1
REMARK VINA RESULT:      -4.4      0.000      0.000
REMARK  Name = *****
REMARK  2 active torsions:
REMARK  status: ('A' for Active; 'I' for Inactive)
REMARK    1  A    between atoms: C_4  and  C_6
REMARK    2  A    between atoms: C_7  and  C_8
REMARK                            x       y       z     vdW  Elec       q    Type
REMARK                         _______ _______ _______ _____ _____    ______ ____
ROOT
ATOM      1  C   UNL     1     103.240 126.143  81.001  0.00  0.00    +0.000 C 
ATOM      2  C   UNL     1     102.321 125.878  81.943  0.00  0.00    +0.000 C 
ENDROOT
BRANCH   2   3
ATOM      3  C   UNL     1     101.370 126.870  82.464  0.00  0.00    +0.000 A 
ATOM      4  C   UNL     1      99.980 126.698  82.364  0.00  0.00    +0.000 A 
ATOM      5  C   UNL     1      99.109 127.651  82.899  0.00  0.00    +0.000 A 
ATOM      6  C   UNL     1      99.626 128.769  83.541  0.00  0.00    +0.000 A 
ATOM      7  C   UNL     1     100.997 128.951  83.664  0.00  0.00    +0.000 A 
ATOM      8  C   UNL     1     101.868 127.999  83.130  0.00  0.00    +0.000 A 
ATOM      9  F   UNL     1      98.789 129.680  84.053  0.00  0.00    +0.000 F 
ENDBRANCH   2   3
BRANCH   1  13
ATOM     10  C   UNL     1     105.307 123.210  80.266  0.00  0.00    +0.000 A 
ATOM     11  C   UNL     1     105.734 124.151  79.365  0.00  0.00    +0.000 A 
ATOM     12  O   UNL     1     105.045 125.306  79.525  0.00  0.00    +0.000 OA
ATOM     13  C   UNL     1     104.139 125.137  80.551  0.00  0.00    +0.000 A 
ATOM     14  C   UNL     1     104.289 123.837  81.023  0.00  0.00    +0.000 A 
ENDBRANCH   1  13
TORSDOF 2
ENDMDL
