MODEL 1
REMARK VINA RESULT:      -4.8      0.000      0.000
REMARK  Name = *****
REMARK  5 active torsions:
REMARK  status: ('A' for Active; 'I' for Inactive)
REMARK    1  A    between atoms: C_1  and  C_2
REMARK    2  A    between atoms: C_3  and  O_16
REMARK    3  A    between atoms: C_6  and  C_8
REMARK    4  A    between atoms: C_9  and  C_10
REMARK    5  A    between atoms: O_16  and  C_17
REMARK                            x       y       z     vdW  Elec       q    Type
REMARK                         _______ _______ _______ _____ _____    ______ ____
ROOT
ATOM      1  C   UNL     1     105.537 121.902  82.681  0.00  0.00    +0.000 C 
ATOM      2  C   UNL     1     105.263 122.970  81.658  0.00  0.00    +0.000 A 
ATOM      3  C   UNL     1     106.057 123.080  80.504  0.00  0.00    +0.000 A 
ATOM      4  C   UNL     1     105.783 124.088  79.577  0.00  0.00    +0.000 A 
ATOM      5  C   UNL     1     104.721 124.976  79.786  0.00  0.00    +0.000 A 
ATOM      6  C   UNL     1     103.910 124.866  80.919  0.00  0.00    +0.000 A 
ATOM      7  C   UNL     1     104.200 123.867  81.857  0.00  0.00    +0.000 A 
ENDROOT
BRANCH   6   8
ATOM      8  C   UNL     1     102.805 125.797  81.188  0.00  0.00    +0.000 C 
ATOM      9  C   UNL     1     102.280 126.000  82.408  0.00  0.00    +0.000 C 
BRANCH   9  10
ATOM     10  C   UNL     1     101.188 126.946  82.682  0.00  0.00    +0.000 A 
ATOM     11  C   UNL     1      99.854 126.665  82.359  0.00  0.00    +0.000 A 
ATOM     12  C   UNL     1      98.840 127.578  82.665  0.00  0.00    +0.000 A 
ATOM     13  C   UNL     1      99.149 128.775  83.308  0.00  0.00    +0.000 A 
ATOM     14  C   UNL     1     100.469 129.058  83.649  0.00  0.00    +0.000 A 
ATOM     15  C   UNL     1     101.483 128.147  83.343  0.00  0.00    +0.000 A 
ENDBRANCH   9  10
ENDBRANCH   6   8
BRANCH   3  16
ATOM     16  O   UNL     1     107.070 122.164  80.389  0.00  0.00    +0.000 OA
ATOM     17  C   UNL     1     108.370 122.660  80.099  0.00  0.00    +0.000 C 
ENDBRANCH   3  16
TORSDOF 3
ENDMDL
