REMARK  Name = *****
REMARK  2 active torsions:
REMARK  status: ('A' for Active; 'I' for Inactive)
REMARK    1  A    between atoms: C_4  and  C_7
REMARK    2  A    between atoms: C_8  and  C_9
REMARK                            x       y       z     vdW  Elec       q    Type
REMARK                         _______ _______ _______ _____ _____    ______ ____
ROOT
ATOM      1  C   UNL     1       2.742  -0.684  -0.363  0.00  0.00    +0.000 C 
ATOM      2  C   UNL     1       3.441  -1.782  -0.031  0.00  0.00    +0.000 C 
ENDROOT
BRANCH   2   3
ATOM      3  C   UNL     1       4.809  -2.107  -0.575  0.00  0.00    +0.000 C 
ATOM      4  C   UNL     1       4.775  -3.420  -1.366  0.00  0.00    +0.000 C 
ATOM      5  C   UNL     1       6.164  -3.812  -1.870  0.00  0.00    +0.000 C 
ATOM      6  C   UNL     1       7.154  -3.936  -0.714  0.00  0.00    +0.000 C 
ATOM      7  C   UNL     1       7.235  -2.654   0.101  0.00  0.00    +0.000 C 
ATOM      8  C   UNL     1       5.853  -2.220   0.545  0.00  0.00    +0.000 C 
ATOM      9  O   UNL     1       5.641  -1.900   1.714  0.00  0.00    +0.000 OA
ENDBRANCH   2   3
BRANCH   1  13
ATOM     10  C   UNL     1      -0.948   1.462   0.438  0.00  0.00    +0.000 C 
ATOM     11  C   UNL     1      -1.018   0.196  -0.411  0.00  0.00    +0.000 C 
ATOM     12  C   UNL     1       0.357  -0.206  -0.939  0.00  0.00    +0.000 C 
ATOM     13  C   UNL     1       1.379  -0.355   0.199  0.00  0.00    +0.000 C 
ATOM     14  C   UNL     1       1.444   0.925   1.045  0.00  0.00    +0.000 C 
ATOM     15  C   UNL     1       0.066   1.322   1.570  0.00  0.00    +0.000 C 
ENDBRANCH   1  13
TORSDOF 2
