MODEL 1
REMARK VINA RESULT:      -5.2      0.000      0.000
REMARK  Name = *****
REMARK  2 active torsions:
REMARK  status: ('A' for Active; 'I' for Inactive)
REMARK    1  A    between atoms: C_1  and  C_2
REMARK    2  A    between atoms: C_9  and  C_10
REMARK                            x       y       z     vdW  Elec       q    Type
REMARK                         _______ _______ _______ _____ _____    ______ ____
ROOT
ATOM      1  C   UNL     1     105.134 121.955  80.474  0.00  0.00    +0.000 C 
ATOM      2  C   UNL     1     105.027 123.450  80.403  0.00  0.00    +0.000 A 
ATOM      3  C   UNL     1     103.960 124.124  81.018  0.00  0.00    +0.000 A 
ATOM      4  C   UNL     1     103.891 125.509  80.933  0.00  0.00    +0.000 A 
ATOM      5  C   UNL     1     104.871 126.224  80.242  0.00  0.00    +0.000 A 
ATOM      6  C   UNL     1     104.627 127.699  80.266  0.00  0.00    +0.000 C 
ATOM      7  C   UNL     1     103.319 127.839  81.061  0.00  0.00    +0.000 C 
ATOM      8  C   UNL     1     102.903 126.442  81.474  0.00  0.00    +0.000 C 
ATOM      9  C   UNL     1     101.830 126.102  82.204  0.00  0.00    +0.000 C 
ATOM     10  C   UNL     1     105.932 125.577  79.627  0.00  0.00    +0.000 A 
ATOM     11  C   UNL     1     106.007 124.185  79.710  0.00  0.00    +0.000 A 
ENDROOT
BRANCH   9  12
ATOM     12  C   UNL     1     100.876 127.082  82.718  0.00  0.00    +0.000 A 
ATOM     13  C   UNL     1      99.515 126.983  82.443  0.00  0.00    +0.000 A 
ATOM     14  N   UNL     1      98.582 127.854  82.899  0.00  0.00    +0.000 NA
ATOM     15  C   UNL     1      99.030 128.871  83.665  0.00  0.00    +0.000 A 
ATOM     16  C   UNL     1     100.363 129.057  83.999  0.00  0.00    +0.000 A 
ATOM     17  C   UNL     1     101.299 128.146  83.516  0.00  0.00    +0.000 A 
ENDBRANCH   9  12
TORSDOF 1
ENDMDL
