MODEL 1
REMARK VINA RESULT:      -4.4      0.000      0.000
REMARK  Name = *****
REMARK  4 active torsions:
REMARK  status: ('A' for Active; 'I' for Inactive)
REMARK    1  A    between atoms: C_1  and  C_2
REMARK    2  A    between atoms: C_5  and  C_7
REMARK    3  A    between atoms: C_7  and  C_8
REMARK    4  A    between atoms: C_9  and  C_10
REMARK                            x       y       z     vdW  Elec       q    Type
REMARK                         _______ _______ _______ _____ _____    ______ ____
ROOT
ATOM      1  C   UNL     1      88.910  65.920  86.684  0.00  0.00    +0.000 C 
ATOM      2  C   UNL     1      89.935  66.681  86.267  0.00  0.00    +0.000 C 
ENDROOT
BRANCH   2   3
ATOM      3  C   UNL     1      89.855  68.136  86.079  0.00  0.00    +0.000 A 
ATOM      4  C   UNL     1      90.036  68.666  84.794  0.00  0.00    +0.000 A 
ATOM      5  C   UNL     1      89.937  70.041  84.572  0.00  0.00    +0.000 A 
ATOM      6  C   UNL     1      89.644  70.900  85.629  0.00  0.00    +0.000 A 
ATOM      7  C   UNL     1      89.446  70.384  86.908  0.00  0.00    +0.000 A 
ATOM      8  C   UNL     1      89.546  69.008  87.131  0.00  0.00    +0.000 A 
ENDBRANCH   2   3
BRANCH   1   9
ATOM      9  C   UNL     1      88.993  64.430  86.880  0.00  0.00    +0.000 C 
BRANCH   9  14
ATOM     10  C   UNL     1      85.672  61.906  90.224  0.00  0.00    +0.000 C 
ATOM     11  C   UNL     1      86.741  62.772  89.652  0.00  0.00    +0.000 A 
ATOM     12  C   UNL     1      87.619  63.603  90.314  0.00  0.00    +0.000 A 
ATOM     13  C   UNL     1      88.503  64.274  89.421  0.00  0.00    +0.000 A 
ATOM     14  C   UNL     1      88.272  63.936  88.102  0.00  0.00    +0.000 A 
ATOM     15  S   UNL     1      86.991  62.809  87.960  0.00  0.00    +0.000 S 
ENDBRANCH   9  14
ENDBRANCH   1   9
TORSDOF 3
ENDMDL
