MODEL 1
REMARK VINA RESULT:      -4.5      0.000      0.000
REMARK  Name = *****
REMARK  1 active torsions:
REMARK  status: ('A' for Active; 'I' for Inactive)
REMARK    1  A    between atoms: N_9  and  C_10
REMARK                            x       y       z     vdW  Elec       q    Type
REMARK                         _______ _______ _______ _____ _____    ______ ____
ROOT
ATOM      1  C   UNL     1     103.057 125.016  82.073  0.00  0.00    +0.000 C 
ATOM      2  C   UNL     1     104.135 124.532  81.145  0.00  0.00    +0.000 A 
ATOM      3  C   UNL     1     104.697 123.259  81.138  0.00  0.00    +0.000 A 
ATOM      4  C   UNL     1     105.696 122.968  80.206  0.00  0.00    +0.000 A 
ATOM      5  C   UNL     1     106.123 123.942  79.293  0.00  0.00    +0.000 A 
ATOM      6  C   UNL     1     105.555 125.217  79.305  0.00  0.00    +0.000 A 
ATOM      7  C   UNL     1     104.565 125.496  80.235  0.00  0.00    +0.000 A 
ATOM      8  S   UNL     1     103.697 127.020  80.454  0.00  0.00    +0.000 S 
ATOM      9  N   UNL     1     102.773 126.420  81.726  0.00  0.00    +0.000 N 
ENDROOT
BRANCH   9  10
ATOM     10  C   UNL     1     101.806 127.161  82.428  0.00  0.00    +0.000 A 
ATOM     11  C   UNL     1     102.143 128.326  83.144  0.00  0.00    +0.000 A 
ATOM     12  C   UNL     1     101.186 129.072  83.846  0.00  0.00    +0.000 A 
ATOM     13  C   UNL     1      99.857 128.673  83.854  0.00  0.00    +0.000 A 
ATOM     14  C   UNL     1      99.488 127.528  83.160  0.00  0.00    +0.000 A 
ATOM     15  C   UNL     1     100.449 126.788  82.460  0.00  0.00    +0.000 A 
ENDBRANCH   9  10
TORSDOF 1
ENDMDL
