MODEL 1
REMARK VINA RESULT:      -3.9      0.000      0.000
REMARK  Name = *****
REMARK  3 active torsions:
REMARK  status: ('A' for Active; 'I' for Inactive)
REMARK    1  A    between atoms: C_5  and  C_6
REMARK    2  A    between atoms: C_6  and  C_7
REMARK    3  A    between atoms: C_7  and  C_8
REMARK                            x       y       z     vdW  Elec       q    Type
REMARK                         _______ _______ _______ _____ _____    ______ ____
ROOT
ATOM      1  C   UNL     1     102.824 127.742  83.305  0.00  0.00    +0.000 C 
ENDROOT
BRANCH   1   2
ATOM      2  C   UNL     1     101.328 127.807  83.121  0.00  0.00    +0.000 A 
ATOM      3  C   UNL     1     100.602 128.912  83.585  0.00  0.00    +0.000 A 
ATOM      4  C   UNL     1      99.216 128.963  83.429  0.00  0.00    +0.000 A 
ATOM      5  C   UNL     1      98.543 127.909  82.814  0.00  0.00    +0.000 A 
ATOM      6  C   UNL     1      99.255 126.802  82.356  0.00  0.00    +0.000 A 
ATOM      7  C   UNL     1     100.641 126.750  82.511  0.00  0.00    +0.000 A 
ENDBRANCH   1   2
BRANCH   1   8
ATOM      8  C   UNL     1     103.568 128.261  82.068  0.00  0.00    +0.000 C 
BRANCH   8  13
ATOM      9  C   UNL     1     104.137 126.612  80.171  0.00  0.00    +0.000 C 
ATOM     10  C   UNL     1     103.529 125.268  80.428  0.00  0.00    +0.000 C 
ATOM     11  C   UNL     1     103.727 124.770  81.651  0.00  0.00    +0.000 C 
ATOM     12  S   UNL     1     104.650 125.801  82.684  0.00  0.00    +0.000 S 
ATOM     13  C   UNL     1     104.561 127.224  81.519  0.00  0.00    +0.000 C 
ENDBRANCH   8  13
ENDBRANCH   1   8
TORSDOF 3
ENDMDL
