REMARK  Name = *****
REMARK  2 active torsions:
REMARK  status: ('A' for Active; 'I' for Inactive)
REMARK    1  A    between atoms: C_3  and  C_8
REMARK    2  A    between atoms: C_9  and  C_10
REMARK                            x       y       z     vdW  Elec       q    Type
REMARK                         _______ _______ _______ _____ _____    ______ ____
ROOT
ATOM      1  C   UNL     1      -1.957   2.459  -0.005  0.00  0.00    +0.000 C 
ATOM      2  C   UNL     1      -1.403   3.683  -0.049  0.00  0.00    +0.000 C 
ENDROOT
BRANCH   2   3
ATOM      3  C   UNL     1      -2.163   4.944  -0.030  0.00  0.00    +0.000 A 
ATOM      4  C   UNL     1      -1.586   6.086   0.548  0.00  0.00    +0.000 A 
ATOM      5  C   UNL     1      -2.252   7.312   0.568  0.00  0.00    +0.000 A 
ATOM      6  C   UNL     1      -3.515   7.417  -0.008  0.00  0.00    +0.000 A 
ATOM      7  C   UNL     1      -4.088   6.297  -0.600  0.00  0.00    +0.000 A 
ATOM      8  C   UNL     1      -3.427   5.070  -0.622  0.00  0.00    +0.000 A 
ATOM      9  F   UNL     1      -5.297   6.400  -1.166  0.00  0.00    +0.000 F 
ATOM     10  F   UNL     1      -0.367   6.017   1.104  0.00  0.00    +0.000 F 
ENDBRANCH   2   3
BRANCH   1  13
ATOM     11  C   UNL     1      -1.038  -1.133  -0.678  0.00  0.00    +0.000 A 
ATOM     12  C   UNL     1      -1.723   0.086  -0.665  0.00  0.00    +0.000 A 
ATOM     13  C   UNL     1      -1.183   1.208  -0.018  0.00  0.00    +0.000 A 
ATOM     14  C   UNL     1       0.046   1.079   0.640  0.00  0.00    +0.000 A 
ATOM     15  C   UNL     1       0.720  -0.139   0.621  0.00  0.00    +0.000 A 
ATOM     16  C   UNL     1       0.191  -1.244  -0.034  0.00  0.00    +0.000 A 
ATOM     17  F   UNL     1       1.897  -0.249   1.252  0.00  0.00    +0.000 F 
ENDBRANCH   1  13
TORSDOF 2
