MODEL 1
REMARK VINA RESULT:      -4.1      0.000      0.000
REMARK  Name = *****
REMARK  3 active torsions:
REMARK  status: ('A' for Active; 'I' for Inactive)
REMARK    1  A    between atoms: C_4  and  S_7
REMARK    2  A    between atoms: S_7  and  C_8
REMARK    3  A    between atoms: C_8  and  C_9
REMARK                            x       y       z     vdW  Elec       q    Type
REMARK                         _______ _______ _______ _____ _____    ______ ____
ROOT
ATOM      1  S   UNL     1     102.869 127.801  82.886  0.00  0.00    +0.000 S 
ENDROOT
BRANCH   1   5
ATOM      2  C   UNL     1      98.300 127.785  83.585  0.00  0.00    +0.000 C 
ATOM      3  C   UNL     1      98.833 127.008  82.386  0.00  0.00    +0.000 C 
ATOM      4  C   UNL     1     100.314 126.665  82.570  0.00  0.00    +0.000 C 
ATOM      5  C   UNL     1     101.136 127.829  83.074  0.00  0.00    +0.000 C 
ATOM      6  C   UNL     1     100.563 128.924  83.603  0.00  0.00    +0.000 C 
ATOM      7  C   UNL     1      99.082 129.082  83.791  0.00  0.00    +0.000 C 
ENDBRANCH   1   5
BRANCH   1   8
ATOM      8  C   UNL     1     103.042 126.979  81.274  0.00  0.00    +0.000 C 
BRANCH   8   9
ATOM      9  C   UNL     1     103.640 125.601  81.413  0.00  0.00    +0.000 A 
ATOM     10  C   UNL     1     104.142 124.926  80.291  0.00  0.00    +0.000 A 
ATOM     11  C   UNL     1     104.688 123.647  80.420  0.00  0.00    +0.000 A 
ATOM     12  C   UNL     1     104.733 123.029  81.668  0.00  0.00    +0.000 A 
ATOM     13  C   UNL     1     104.227 123.686  82.789  0.00  0.00    +0.000 A 
ATOM     14  C   UNL     1     103.681 124.964  82.663  0.00  0.00    +0.000 A 
ENDBRANCH   8   9
ENDBRANCH   1   8
TORSDOF 3
ENDMDL
