MODEL 1
REMARK VINA RESULT:      -4.1      0.000      0.000
REMARK  Name = *****
REMARK  2 active torsions:
REMARK  status: ('A' for Active; 'I' for Inactive)
REMARK    1  A    between atoms: C_4  and  C_7
REMARK    2  A    between atoms: C_8  and  C_9
REMARK                            x       y       z     vdW  Elec       q    Type
REMARK                         _______ _______ _______ _____ _____    ______ ____
ROOT
ATOM      1  C   UNL     1     101.657 125.980  83.938  0.00  0.00    +0.000 C 
ATOM      2  C   UNL     1     102.859 125.861  83.352  0.00  0.00    +0.000 C 
ATOM      3 CL   UNL     1     103.903 124.551  83.798  0.00  0.00    +0.000 Cl
ENDROOT
BRANCH   1   7
ATOM      4  C   UNL     1      98.846 129.069  83.088  0.00  0.00    +0.000 A 
ATOM      5  C   UNL     1      98.698 127.812  82.504  0.00  0.00    +0.000 A 
ATOM      6  C   UNL     1      99.617 126.798  82.784  0.00  0.00    +0.000 A 
ATOM      7  C   UNL     1     100.688 127.041  83.649  0.00  0.00    +0.000 A 
ATOM      8  C   UNL     1     100.832 128.303  84.233  0.00  0.00    +0.000 A 
ATOM      9  C   UNL     1      99.913 129.315  83.952  0.00  0.00    +0.000 A 
ENDBRANCH   1   7
BRANCH   2  10
ATOM     10  C   UNL     1     103.391 126.773  82.333  0.00  0.00    +0.000 A 
ATOM     11  C   UNL     1     103.109 126.562  80.978  0.00  0.00    +0.000 A 
ATOM     12  C   UNL     1     103.624 127.425  80.008  0.00  0.00    +0.000 A 
ATOM     13  C   UNL     1     104.425 128.503  80.388  0.00  0.00    +0.000 A 
ATOM     14  C   UNL     1     104.710 128.719  81.735  0.00  0.00    +0.000 A 
ATOM     15  C   UNL     1     104.196 127.858  82.706  0.00  0.00    +0.000 A 
ENDBRANCH   2  10
TORSDOF 2
ENDMDL
