MODEL 1
REMARK VINA RESULT:      -4.4      0.000      0.000
REMARK  Name = *****
REMARK  2 active torsions:
REMARK  status: ('A' for Active; 'I' for Inactive)
REMARK    1  A    between atoms: C_4  and  C_7
REMARK    2  A    between atoms: C_8  and  C_9
REMARK                            x       y       z     vdW  Elec       q    Type
REMARK                         _______ _______ _______ _____ _____    ______ ____
ROOT
ATOM      1  C   UNL     1     102.070 126.157  82.240  0.00  0.00    +0.000 C 
ATOM      2  C   UNL     1     102.924 125.388  81.890  0.00  0.00    +0.000 C 
ENDROOT
BRANCH   1   6
ATOM      3  C   UNL     1      99.067 128.872  83.443  0.00  0.00    +0.000 A 
ATOM      4  C   UNL     1     100.407 129.149  83.715  0.00  0.00    +0.000 A 
ATOM      5  C   UNL     1     101.401 128.252  83.319  0.00  0.00    +0.000 A 
ATOM      6  C   UNL     1     101.055 127.076  82.649  0.00  0.00    +0.000 A 
ATOM      7  C   UNL     1      99.712 126.800  82.377  0.00  0.00    +0.000 A 
ATOM      8  C   UNL     1      98.720 127.697  82.775  0.00  0.00    +0.000 A 
ENDBRANCH   1   6
BRANCH   2   9
ATOM      9  C   UNL     1     103.939 124.479  81.470  0.00  0.00    +0.000 A 
ATOM     10  C   UNL     1     104.503 124.448  80.211  0.00  0.00    +0.000 A 
ATOM     11  C   UNL     1     105.494 123.426  80.087  0.00  0.00    +0.000 A 
ATOM     12  C   UNL     1     105.634 122.731  81.262  0.00  0.00    +0.000 A 
ATOM     13  S   UNL     1     104.607 123.280  82.493  0.00  0.00    +0.000 S 
ATOM     14  I   UNL     1     106.952 121.178  81.520  0.00  0.00    +0.000 I 
ENDBRANCH   2   9
TORSDOF 2
ENDMDL
