MODEL 1
REMARK VINA RESULT:      -4.3      0.000      0.000
REMARK  Name = *****
REMARK  3 active torsions:
REMARK  status: ('A' for Active; 'I' for Inactive)
REMARK    1  A    between atoms: C_6  and  S_7
REMARK    2  A    between atoms: S_7  and  S_9
REMARK    3  A    between atoms: S_9  and  C_11
REMARK                            x       y       z     vdW  Elec       q    Type
REMARK                         _______ _______ _______ _____ _____    ______ ____
ROOT
ATOM      1  S   UNL     1      88.955  67.394  84.506  0.00  0.00    +0.000 S 
ATOM      2  O   UNL     1      89.883  68.084  83.546  0.00  0.00    +0.000 OA
ENDROOT
BRANCH   1   8
ATOM      3  C   UNL     1      87.874  68.210  86.940  0.00  0.00    +0.000 A 
ATOM      4  C   UNL     1      87.742  69.059  88.043  0.00  0.00    +0.000 A 
ATOM      5  C   UNL     1      88.544  70.195  88.143  0.00  0.00    +0.000 A 
ATOM      6  C   UNL     1      89.475  70.490  87.150  0.00  0.00    +0.000 A 
ATOM      7  C   UNL     1      89.607  69.641  86.047  0.00  0.00    +0.000 A 
ATOM      8  C   UNL     1      88.813  68.492  85.939  0.00  0.00    +0.000 A 
ATOM      9 CL   UNL     1      88.380  71.238  89.500  0.00  0.00    +0.000 Cl
ENDBRANCH   1   8
BRANCH   1  10
ATOM     10  S   UNL     1      90.171  65.977  85.240  0.00  0.00    +0.000 S 
ATOM     11  O   UNL     1      90.854  66.748  86.335  0.00  0.00    +0.000 OA
BRANCH  10  12
ATOM     12  C   UNL     1      88.994  64.872  86.061  0.00  0.00    +0.000 A 
ATOM     13  C   UNL     1      88.989  64.759  87.457  0.00  0.00    +0.000 A 
ATOM     14  C   UNL     1      88.068  63.921  88.094  0.00  0.00    +0.000 A 
ATOM     15  C   UNL     1      87.145  63.202  87.339  0.00  0.00    +0.000 A 
ATOM     16  C   UNL     1      87.131  63.315  85.950  0.00  0.00    +0.000 A 
ATOM     17  C   UNL     1      88.053  64.151  85.312  0.00  0.00    +0.000 A 
ATOM     18 CL   UNL     1      86.013  62.172  88.122  0.00  0.00    +0.000 Cl
ENDBRANCH  10  12
ENDBRANCH   1  10
TORSDOF 3
ENDMDL
