MODEL 1
REMARK VINA RESULT:      -4.5      0.000      0.000
REMARK  Name = *****
REMARK  4 active torsions:
REMARK  status: ('A' for Active; 'I' for Inactive)
REMARK    1  A    between atoms: C_2  and  C_3
REMARK    2  A    between atoms: C_2  and  O_8
REMARK    3  A    between atoms: O_8  and  C_9
REMARK    4  A    between atoms: C_9  and  C_11
REMARK                            x       y       z     vdW  Elec       q    Type
REMARK                         _______ _______ _______ _____ _____    ______ ____
ROOT
ATOM      1  O   UNL     1      99.857 126.482  83.719  0.00  0.00    +0.000 OA
ENDROOT
BRANCH   1   3
ATOM      2  C   UNL     1     101.929 126.906  84.758  0.00  0.00    +0.000 C 
ATOM      3  C   UNL     1     101.252 126.715  83.618  0.00  0.00    +0.000 C 
BRANCH   3   4
ATOM      4  C   UNL     1     101.841 126.815  82.225  0.00  0.00    +0.000 C 
ATOM      5  C   UNL     1     102.582 125.567  81.719  0.00  0.00    +0.000 C 
ATOM      6  C   UNL     1     103.459 126.057  80.569  0.00  0.00    +0.000 C 
ATOM      7  C   UNL     1     103.558 127.572  80.724  0.00  0.00    +0.000 C 
ATOM      8  C   UNL     1     102.927 127.887  82.075  0.00  0.00    +0.000 C 
ENDBRANCH   3   4
ENDBRANCH   1   3
BRANCH   1   9
ATOM      9  C   UNL     1      99.030 127.350  83.068  0.00  0.00    +0.000 C 
ATOM     10  O   UNL     1      98.452 127.176  82.005  0.00  0.00    +0.000 OA
BRANCH   9  11
ATOM     11  C   UNL     1      98.957 128.623  83.833  0.00  0.00    +0.000 A 
ATOM     12  C   UNL     1      99.472 129.827  83.332  0.00  0.00    +0.000 A 
ATOM     13  C   UNL     1      99.383 130.995  84.091  0.00  0.00    +0.000 A 
ATOM     14  C   UNL     1      98.779 130.967  85.349  0.00  0.00    +0.000 A 
ATOM     15  C   UNL     1      98.269 129.772  85.855  0.00  0.00    +0.000 A 
ATOM     16  C   UNL     1      98.361 128.600  85.101  0.00  0.00    +0.000 A 
ENDBRANCH   9  11
ENDBRANCH   1   9
TORSDOF 4
ENDMDL
