MODEL 1
REMARK VINA RESULT:      -4.5      0.000      0.000
REMARK  Name = *****
REMARK  3 active torsions:
REMARK  status: ('A' for Active; 'I' for Inactive)
REMARK    1  A    between atoms: C_4  and  O_7
REMARK    2  A    between atoms: O_7  and  C_8
REMARK    3  A    between atoms: C_8  and  C_10
REMARK                            x       y       z     vdW  Elec       q    Type
REMARK                         _______ _______ _______ _____ _____    ______ ____
ROOT
ATOM      1  C   UNL     1     102.743 125.649  83.451  0.00  0.00    +0.000 C 
ATOM      2  O   UNL     1     102.365 125.201  84.522  0.00  0.00    +0.000 OA
ENDROOT
BRANCH   1   3
ATOM      3  C   UNL     1     103.509 124.842  82.461  0.00  0.00    +0.000 A 
ATOM      4  C   UNL     1     104.130 123.632  82.793  0.00  0.00    +0.000 A 
ATOM      5  C   UNL     1     104.830 122.932  81.815  0.00  0.00    +0.000 A 
ATOM      6  C   UNL     1     104.926 123.409  80.513  0.00  0.00    +0.000 A 
ATOM      7  C   UNL     1     104.310 124.612  80.175  0.00  0.00    +0.000 A 
ATOM      8  C   UNL     1     103.604 125.326  81.146  0.00  0.00    +0.000 A 
ATOM      9  F   UNL     1     105.423 121.775  82.135  0.00  0.00    +0.000 F 
ENDBRANCH   1   3
BRANCH   1  10
ATOM     10  O   UNL     1     102.548 126.926  82.959  0.00  0.00    +0.000 OA
BRANCH  10  14
ATOM     11  C   UNL     1      98.639 128.391  83.015  0.00  0.00    +0.000 A 
ATOM     12  C   UNL     1      99.661 129.151  83.590  0.00  0.00    +0.000 A 
ATOM     13  C   UNL     1     100.970 128.673  83.593  0.00  0.00    +0.000 A 
ATOM     14  C   UNL     1     101.242 127.424  83.034  0.00  0.00    +0.000 A 
ATOM     15  C   UNL     1     100.233 126.668  82.440  0.00  0.00    +0.000 A 
ATOM     16  C   UNL     1      98.925 127.152  82.439  0.00  0.00    +0.000 A 
ENDBRANCH  10  14
ENDBRANCH   1  10
TORSDOF 3
ENDMDL
