MODEL 1
REMARK VINA RESULT:      -4.3      0.000      0.000
REMARK  Name = *****
REMARK  5 active torsions:
REMARK  status: ('A' for Active; 'I' for Inactive)
REMARK    1  A    between atoms: C_1  and  C_2
REMARK    2  A    between atoms: C_3  and  N_9
REMARK    3  A    between atoms: N_9  and  C_10
REMARK    4  A    between atoms: N_9  and  N_17
REMARK    5  A    between atoms: C_10  and  C_11
REMARK                            x       y       z     vdW  Elec       q    Type
REMARK                         _______ _______ _______ _____ _____    ______ ____
ROOT
ATOM      1  N   UNL     1      99.153 127.641  83.458  0.00  0.00    +0.000 N 
ENDROOT
BRANCH   1   4
ATOM      2  C   UNL     1      99.701 130.491  83.768  0.00  0.00    +0.000 C 
ATOM      3  C   UNL     1      98.802 129.726  84.707  0.00  0.00    +0.000 A 
ATOM      4  C   UNL     1      98.522 128.343  84.524  0.00  0.00    +0.000 A 
ATOM      5  C   UNL     1      97.592 127.738  85.401  0.00  0.00    +0.000 A 
ATOM      6  C   UNL     1      97.008 128.461  86.449  0.00  0.00    +0.000 A 
ATOM      7  C   UNL     1      97.314 129.805  86.630  0.00  0.00    +0.000 A 
ATOM      8  C   UNL     1      98.191 130.438  85.755  0.00  0.00    +0.000 A 
ATOM      9 CL   UNL     1      97.033 126.110  85.194  0.00  0.00    +0.000 Cl
ENDBRANCH   1   4
BRANCH   1  10
ATOM     10  N   UNL     1      98.456 127.514  82.297  0.00  0.00    +0.000 NA
ATOM     11  O   UNL     1      98.227 126.343  81.982  0.00  0.00    +0.000 OA
ENDBRANCH   1  10
BRANCH   1  12
ATOM     12  C   UNL     1     100.327 126.804  83.818  0.00  0.00    +0.000 C 
BRANCH  12  13
ATOM     13  C   UNL     1     101.555 126.982  82.944  0.00  0.00    +0.000 A 
ATOM     14  C   UNL     1     102.346 128.137  83.043  0.00  0.00    +0.000 A 
ATOM     15  C   UNL     1     103.472 128.299  82.233  0.00  0.00    +0.000 A 
ATOM     16  C   UNL     1     103.812 127.315  81.307  0.00  0.00    +0.000 A 
ATOM     17  C   UNL     1     103.028 126.170  81.188  0.00  0.00    +0.000 A 
ATOM     18  C   UNL     1     101.904 126.006  81.999  0.00  0.00    +0.000 A 
ENDBRANCH  12  13
ENDBRANCH   1  12
TORSDOF 4
ENDMDL
