REMARK  Name = *****
REMARK  4 active torsions:
REMARK  status: ('A' for Active; 'I' for Inactive)
REMARK    1  A    between atoms: C_6  and  C_7
REMARK    2  A    between atoms: C_8  and  C_9
REMARK    3  A    between atoms: C_8  and  C_11
REMARK    4  A    between atoms: C_9  and  O_10
REMARK                            x       y       z     vdW  Elec       q    Type
REMARK                         _______ _______ _______ _____ _____    ______ ____
ROOT
ATOM      1  C   UNL     1       3.901   0.168   0.137  0.00  0.00    +0.000 C 
ATOM      2  C   UNL     1       4.617   1.310   0.123  0.00  0.00    +0.000 C 
ENDROOT
BRANCH   1   8
ATOM      3  C   UNL     1       1.710   0.172   1.299  0.00  0.00    +0.000 A 
ATOM      4  C   UNL     1       0.314   0.128   1.270  0.00  0.00    +0.000 A 
ATOM      5  C   UNL     1      -0.350   0.018   0.049  0.00  0.00    +0.000 A 
ATOM      6  C   UNL     1       0.370  -0.048  -1.143  0.00  0.00    +0.000 A 
ATOM      7  C   UNL     1       1.766  -0.001  -1.115  0.00  0.00    +0.000 A 
ATOM      8  C   UNL     1       2.440   0.111   0.106  0.00  0.00    +0.000 A 
ATOM      9 CL   UNL     1      -2.069  -0.038   0.014  0.00  0.00    +0.000 Cl
ENDBRANCH   1   8
BRANCH   2  10
ATOM     10  C   UNL     1       6.090   1.210   0.180  0.00  0.00    +0.000 A 
ATOM     11  C   UNL     1       6.804   0.600  -0.864  0.00  0.00    +0.000 A 
ATOM     12  C   UNL     1       8.196   0.507  -0.806  0.00  0.00    +0.000 A 
ATOM     13  C   UNL     1       8.872   1.017   0.296  0.00  0.00    +0.000 A 
ATOM     14  C   UNL     1       8.183   1.624   1.340  0.00  0.00    +0.000 A 
ATOM     15  C   UNL     1       6.792   1.724   1.280  0.00  0.00    +0.000 A 
ATOM     16  F   UNL     1      10.207   0.923   0.353  0.00  0.00    +0.000 F 
ENDBRANCH   2  10
BRANCH   2  17
ATOM     17  C   UNL     1       4.050   2.703   0.035  0.00  0.00    +0.000 C 
BRANCH  17  18
ATOM     18  O   UNL     1       3.890   3.243   1.341  0.00  0.00    +0.000 OA
ATOM     19  H   UNL     1       3.283   2.683   1.849  0.00  0.00    +0.000 HD
ENDBRANCH  17  18
ENDBRANCH   2  17
TORSDOF 4
