MODEL 1
REMARK VINA RESULT:      -4.3      0.000      0.000
REMARK  Name = *****
REMARK  2 active torsions:
REMARK  status: ('A' for Active; 'I' for Inactive)
REMARK    1  A    between atoms: C_4  and  S_7
REMARK    2  A    between atoms: S_7  and  C_8
REMARK                            x       y       z     vdW  Elec       q    Type
REMARK                         _______ _______ _______ _____ _____    ______ ____
ROOT
ATOM      1  C   UNL     1     103.630 125.859  81.246  0.00  0.00    +0.000 A 
ATOM      2  N   UNL     1     104.010 126.945  81.895  0.00  0.00    +0.000 NA
ATOM      3  C   UNL     1     102.857 127.411  82.469  0.00  0.00    +0.000 A 
ATOM      4  C   UNL     1     102.616 128.521  83.287  0.00  0.00    +0.000 A 
ATOM      5  C   UNL     1     101.303 128.742  83.732  0.00  0.00    +0.000 A 
ATOM      6  C   UNL     1     100.260 127.879  83.368  0.00  0.00    +0.000 A 
ATOM      7  C   UNL     1     100.487 126.766  82.549  0.00  0.00    +0.000 A 
ATOM      8  C   UNL     1     101.800 126.584  82.134  0.00  0.00    +0.000 A 
ATOM      9  O   UNL     1     102.286 125.588  81.342  0.00  0.00    +0.000 OA
ENDROOT
BRANCH   1  10
ATOM     10  S   UNL     1     104.690 124.833  80.313  0.00  0.00    +0.000 S 
BRANCH  10  14
ATOM     11  C   UNL     1     104.516 121.012  82.841  0.00  0.00    +0.000 A 
ATOM     12  C   UNL     1     104.430 122.256  83.464  0.00  0.00    +0.000 A 
ATOM     13  C   UNL     1     104.492 123.425  82.703  0.00  0.00    +0.000 A 
ATOM     14  C   UNL     1     104.655 123.358  81.314  0.00  0.00    +0.000 A 
ATOM     15  C   UNL     1     104.730 122.105  80.695  0.00  0.00    +0.000 A 
ATOM     16  C   UNL     1     104.664 120.935  81.456  0.00  0.00    +0.000 A 
ENDBRANCH  10  14
ENDBRANCH   1  10
TORSDOF 2
ENDMDL
