REMARK  Name = *****
REMARK  2 active torsions:
REMARK  status: ('A' for Active; 'I' for Inactive)
REMARK    1  A    between atoms: C_5  and  C_7
REMARK    2  A    between atoms: C_8  and  C_9
REMARK                            x       y       z     vdW  Elec       q    Type
REMARK                         _______ _______ _______ _____ _____    ______ ____
ROOT
ATOM      1  C   UNL     1      -1.169  -2.514  -0.004  0.00  0.00    +0.000 C 
ATOM      2  C   UNL     1      -0.606  -3.730   0.070  0.00  0.00    +0.000 C 
ATOM      3  F   UNL     1       0.736  -3.837   0.212  0.00  0.00    +0.000 F 
ENDROOT
BRANCH   2   4
ATOM      4  C   UNL     1      -1.357  -4.999   0.071  0.00  0.00    +0.000 A 
ATOM      5  C   UNL     1      -0.785  -6.119   0.694  0.00  0.00    +0.000 A 
ATOM      6  C   UNL     1      -1.447  -7.353   0.710  0.00  0.00    +0.000 A 
ATOM      7  C   UNL     1      -2.693  -7.483   0.090  0.00  0.00    +0.000 A 
ATOM      8  C   UNL     1      -3.266  -6.380  -0.545  0.00  0.00    +0.000 A 
ATOM      9  C   UNL     1      -2.602  -5.148  -0.557  0.00  0.00    +0.000 A 
ATOM     10 CL   UNL     1      -3.569  -8.971   0.066  0.00  0.00    +0.000 Cl
ATOM     11 CL   UNL     1      -0.669  -8.672   1.510  0.00  0.00    +0.000 Cl
ENDBRANCH   2   4
BRANCH   1  16
ATOM     12  C   UNL     1       1.380   0.242  -0.411  0.00  0.00    +0.000 A 
ATOM     13  C   UNL     1       0.625   1.296   0.086  0.00  0.00    +0.000 A 
ATOM     14  C   UNL     1      -0.661   1.026   0.518  0.00  0.00    +0.000 A 
ATOM     15  N   UNL     1      -1.223  -0.203   0.489  0.00  0.00    +0.000 NA
ATOM     16  C   UNL     1      -0.468  -1.227   0.023  0.00  0.00    +0.000 A 
ATOM     17  C   UNL     1       0.827  -1.037  -0.450  0.00  0.00    +0.000 A 
ENDBRANCH   1  16
TORSDOF 2
