MODEL 1
REMARK VINA RESULT:      -4.2      0.000      0.000
REMARK  Name = *****
REMARK  5 active torsions:
REMARK  status: ('A' for Active; 'I' for Inactive)
REMARK    1  A    between atoms: C_1  and  C_2
REMARK    2  A    between atoms: C_7  and  C_8
REMARK    3  A    between atoms: C_8  and  N_9
REMARK    4  A    between atoms: N_9  and  C_10
REMARK    5  A    between atoms: C_10  and  C_11
REMARK                            x       y       z     vdW  Elec       q    Type
REMARK                         _______ _______ _______ _____ _____    ______ ____
ROOT
ATOM      1  N   UNL     1      89.655  68.871  86.595  0.00  0.00    +0.000 NA
ENDROOT
BRANCH   1   2
ATOM      2  C   UNL     1      89.275  70.105  86.646  0.00  0.00    +0.000 C 
BRANCH   2   9
ATOM      3  C   UNL     1      86.642  71.192  85.749  0.00  0.00    +0.000 C 
ATOM      4  C   UNL     1      87.021  71.085  87.199  0.00  0.00    +0.000 A 
ATOM      5  C   UNL     1      86.103  71.514  88.173  0.00  0.00    +0.000 A 
ATOM      6  C   UNL     1      86.412  71.438  89.533  0.00  0.00    +0.000 A 
ATOM      7  C   UNL     1      87.641  70.932  89.942  0.00  0.00    +0.000 A 
ATOM      8  C   UNL     1      88.565  70.502  88.991  0.00  0.00    +0.000 A 
ATOM      9  C   UNL     1      88.263  70.574  87.623  0.00  0.00    +0.000 A 
ENDBRANCH   2   9
ENDBRANCH   1   2
BRANCH   1  10
ATOM     10  C   UNL     1      88.623  67.946  86.105  0.00  0.00    +0.000 C 
BRANCH  10  11
ATOM     11  C   UNL     1      88.199  66.918  87.129  0.00  0.00    +0.000 A 
ATOM     12  C   UNL     1      87.111  67.165  87.981  0.00  0.00    +0.000 A 
ATOM     13  C   UNL     1      86.705  66.208  88.913  0.00  0.00    +0.000 A 
ATOM     14  C   UNL     1      87.377  64.991  88.990  0.00  0.00    +0.000 A 
ATOM     15  C   UNL     1      88.451  64.723  88.143  0.00  0.00    +0.000 A 
ATOM     16  C   UNL     1      88.858  65.683  87.212  0.00  0.00    +0.000 A 
ATOM     17 CL   UNL     1      86.879  63.808  90.136  0.00  0.00    +0.000 Cl
ENDBRANCH  10  11
ENDBRANCH   1  10
TORSDOF 4
ENDMDL
