MODEL 1
REMARK VINA RESULT:      -4.7      0.000      0.000
REMARK  Name = *****
REMARK  4 active torsions:
REMARK  status: ('A' for Active; 'I' for Inactive)
REMARK    1  A    between atoms: C_1  and  C_2
REMARK    2  A    between atoms: C_4  and  C_8
REMARK    3  A    between atoms: C_8  and  O_10
REMARK    4  A    between atoms: O_10  and  C_11
REMARK                            x       y       z     vdW  Elec       q    Type
REMARK                         _______ _______ _______ _____ _____    ______ ____
ROOT
ATOM      1  C   UNL     1     102.603 126.752  83.096  0.00  0.00    +0.000 C 
ATOM      2  O   UNL     1     103.541 127.228  83.714  0.00  0.00    +0.000 OA
ENDROOT
BRANCH   1   6
ATOM      3  C   UNL     1      99.440 130.591  84.003  0.00  0.00    +0.000 C 
ATOM      4  C   UNL     1      99.715 129.222  83.454  0.00  0.00    +0.000 A 
ATOM      5  C   UNL     1     101.005 128.673  83.521  0.00  0.00    +0.000 A 
ATOM      6  C   UNL     1     101.254 127.378  83.041  0.00  0.00    +0.000 A 
ATOM      7  C   UNL     1     100.199 126.628  82.504  0.00  0.00    +0.000 A 
ATOM      8  C   UNL     1      98.914 127.165  82.446  0.00  0.00    +0.000 A 
ATOM      9  C   UNL     1      98.672 128.453  82.924  0.00  0.00    +0.000 A 
ENDBRANCH   1   6
BRANCH   1  10
ATOM     10  O   UNL     1     102.623 125.606  82.375  0.00  0.00    +0.000 OA
BRANCH  10  11
ATOM     11  C   UNL     1     103.916 125.183  81.915  0.00  0.00    +0.000 C 
ATOM     12  C   UNL     1     103.890 125.051  80.384  0.00  0.00    +0.000 C 
ATOM     13  C   UNL     1     105.049 124.198  79.875  0.00  0.00    +0.000 C 
ATOM     14  C   UNL     1     105.012 122.793  80.481  0.00  0.00    +0.000 C 
ATOM     15  C   UNL     1     104.692 122.794  81.947  0.00  0.00    +0.000 C 
ATOM     16  C   UNL     1     104.212 123.870  82.591  0.00  0.00    +0.000 C 
ENDBRANCH  10  11
ENDBRANCH   1  10
TORSDOF 3
ENDMDL
