MODEL 1
REMARK VINA RESULT:      -4.8      0.000      0.000
REMARK  Name = *****
REMARK  3 active torsions:
REMARK  status: ('A' for Active; 'I' for Inactive)
REMARK    1  A    between atoms: C_1  and  C_2
REMARK    2  A    between atoms: C_2  and  C_11
REMARK    3  A    between atoms: N_3  and  C_4
REMARK                            x       y       z     vdW  Elec       q    Type
REMARK                         _______ _______ _______ _____ _____    ______ ____
ROOT
ATOM      1  C   UNL     1     103.339 127.387  80.404  0.00  0.00    +0.000 C 
ATOM      2  C   UNL     1     103.296 126.066  81.152  0.00  0.00    +0.000 C 
ATOM      3  N   UNL     1     102.492 125.818  82.145  0.00  0.00    +0.000 NA
ENDROOT
BRANCH   3   4
ATOM      4  C   UNL     1     101.583 126.788  82.578  0.00  0.00    +0.000 A 
ATOM      5  C   UNL     1     100.213 126.634  82.340  0.00  0.00    +0.000 A 
ATOM      6  C   UNL     1      99.305 127.591  82.798  0.00  0.00    +0.000 A 
ATOM      7  C   UNL     1      99.773 128.693  83.505  0.00  0.00    +0.000 A 
ATOM      8  C   UNL     1     101.128 128.851  83.770  0.00  0.00    +0.000 A 
ATOM      9  C   UNL     1     102.033 127.891  83.311  0.00  0.00    +0.000 A 
ATOM     10  F   UNL     1      98.903 129.611  83.945  0.00  0.00    +0.000 F 
ENDBRANCH   3   4
BRANCH   2  11
ATOM     11  C   UNL     1     104.225 124.981  80.711  0.00  0.00    +0.000 A 
ATOM     12  C   UNL     1     104.205 123.716  81.306  0.00  0.00    +0.000 A 
ATOM     13  C   UNL     1     105.095 122.733  80.871  0.00  0.00    +0.000 A 
ATOM     14  C   UNL     1     106.009 123.000  79.852  0.00  0.00    +0.000 A 
ATOM     15  C   UNL     1     106.040 124.264  79.265  0.00  0.00    +0.000 A 
ATOM     16  C   UNL     1     105.154 125.253  79.696  0.00  0.00    +0.000 A 
ATOM     17 CL   UNL     1     105.069 121.176  81.604  0.00  0.00    +0.000 Cl
ENDBRANCH   2  11
TORSDOF 2
ENDMDL
