MODEL 1
REMARK VINA RESULT:      -4.7      0.000      0.000
REMARK  Name = *****
REMARK  3 active torsions:
REMARK  status: ('A' for Active; 'I' for Inactive)
REMARK    1  A    between atoms: C_4  and  C_7
REMARK    2  A    between atoms: C_4  and  C_16
REMARK    3  A    between atoms: C_8  and  C_9
REMARK                            x       y       z     vdW  Elec       q    Type
REMARK                         _______ _______ _______ _____ _____    ______ ____
ROOT
ATOM      1  C   UNL     1     101.200 126.450  83.169  0.00  0.00    +0.000 C 
ATOM      2  C   UNL     1     102.132 126.630  82.215  0.00  0.00    +0.000 C 
ENDROOT
BRANCH   2   3
ATOM      3  C   UNL     1     103.100 125.596  81.823  0.00  0.00    +0.000 A 
ATOM      4  C   UNL     1     103.567 124.633  82.729  0.00  0.00    +0.000 A 
ATOM      5  C   UNL     1     104.465 123.645  82.314  0.00  0.00    +0.000 A 
ATOM      6  C   UNL     1     104.891 123.609  80.988  0.00  0.00    +0.000 A 
ATOM      7  C   UNL     1     104.424 124.549  80.074  0.00  0.00    +0.000 A 
ATOM      8  C   UNL     1     103.525 125.537  80.490  0.00  0.00    +0.000 A 
ATOM      9 CL   UNL     1     105.995 122.393  80.476  0.00  0.00    +0.000 Cl
ENDBRANCH   2   3
BRANCH   1  13
ATOM     10  C   UNL     1      99.354 129.564  85.637  0.00  0.00    +0.000 C 
ATOM     11  C   UNL     1      98.871 128.127  85.788  0.00  0.00    +0.000 C 
ATOM     12  C   UNL     1      99.834 127.132  85.136  0.00  0.00    +0.000 C 
ATOM     13  C   UNL     1     100.150 127.454  83.654  0.00  0.00    +0.000 C 
ATOM     14  C   UNL     1     100.592 128.933  83.528  0.00  0.00    +0.000 C 
ATOM     15  C   UNL     1      99.616 129.917  84.178  0.00  0.00    +0.000 C 
BRANCH  13  16
ATOM     16  C   UNL     1      98.933 127.228  82.824  0.00  0.00    +0.000 C 
ATOM     17  N   UNL     1      97.986 127.043  82.178  0.00  0.00    +0.000 NA
ENDBRANCH  13  16
ENDBRANCH   1  13
TORSDOF 3
ENDMDL
