MODEL 1
REMARK VINA RESULT:      -4.3      0.000      0.000
REMARK  Name = *****
REMARK  3 active torsions:
REMARK  status: ('A' for Active; 'I' for Inactive)
REMARK    1  A    between atoms: C_4  and  S_7
REMARK    2  A    between atoms: S_7  and  S_8
REMARK    3  A    between atoms: S_8  and  C_10
REMARK                            x       y       z     vdW  Elec       q    Type
REMARK                         _______ _______ _______ _____ _____    ______ ____
ROOT
ATOM      1  S   UNL     1     103.846 128.070  81.937  0.00  0.00    +0.000 S 
ATOM      2  O   UNL     1     105.186 128.606  82.353  0.00  0.00    +0.000 OA
ENDROOT
BRANCH   1   3
ATOM      3  C   UNL     1     104.125 126.328  81.521  0.00  0.00    +0.000 A 
ATOM      4  C   UNL     1     104.460 125.975  80.207  0.00  0.00    +0.000 A 
ATOM      5  C   UNL     1     104.690 124.637  79.874  0.00  0.00    +0.000 A 
ATOM      6  C   UNL     1     104.589 123.652  80.856  0.00  0.00    +0.000 A 
ATOM      7  C   UNL     1     104.262 123.992  82.167  0.00  0.00    +0.000 A 
ATOM      8  C   UNL     1     104.033 125.330  82.499  0.00  0.00    +0.000 A 
ATOM      9 CL   UNL     1     104.872 122.006  80.445  0.00  0.00    +0.000 Cl
ENDBRANCH   1   3
BRANCH   1  10
ATOM     10  S   UNL     1     102.978 127.869  83.760  0.00  0.00    +0.000 S 
BRANCH  10  14
ATOM     11  C   UNL     1      98.519 127.951  82.708  0.00  0.00    +0.000 A 
ATOM     12  C   UNL     1      99.291 126.831  82.406  0.00  0.00    +0.000 A 
ATOM     13  C   UNL     1     100.651 126.813  82.726  0.00  0.00    +0.000 A 
ATOM     14  C   UNL     1     101.246 127.918  83.343  0.00  0.00    +0.000 A 
ATOM     15  C   UNL     1     100.461 129.034  83.652  0.00  0.00    +0.000 A 
ATOM     16  C   UNL     1      99.103 129.052  83.331  0.00  0.00    +0.000 A 
ENDBRANCH  10  14
ENDBRANCH   1  10
TORSDOF 3
ENDMDL
