MODEL 1
REMARK VINA RESULT:      -4.5      0.000      0.000
REMARK  Name = *****
REMARK  5 active torsions:
REMARK  status: ('A' for Active; 'I' for Inactive)
REMARK    1  A    between atoms: C_1  and  C_2
REMARK    2  A    between atoms: C_2  and  C_3
REMARK    3  A    between atoms: C_2  and  C_4
REMARK    4  A    between atoms: C_2  and  S_10
REMARK    5  A    between atoms: S_10  and  C_11
REMARK                            x       y       z     vdW  Elec       q    Type
REMARK                         _______ _______ _______ _____ _____    ______ ____
ROOT
ATOM      1  C   UNL     1      87.511  69.590  84.496  0.00  0.00    +0.000 C 
ATOM      2  C   UNL     1      87.784  70.824  85.385  0.00  0.00    +0.000 C 
ATOM      3  C   UNL     1      88.369  71.912  84.455  0.00  0.00    +0.000 C 
ENDROOT
BRANCH   2   4
ATOM      4  C   UNL     1      86.551  71.383  86.114  0.00  0.00    +0.000 A 
ATOM      5  C   UNL     1      86.478  71.352  87.522  0.00  0.00    +0.000 A 
ATOM      6  C   UNL     1      85.367  71.853  88.207  0.00  0.00    +0.000 A 
ATOM      7  C   UNL     1      84.300  72.397  87.501  0.00  0.00    +0.000 A 
ATOM      8  C   UNL     1      84.345  72.438  86.112  0.00  0.00    +0.000 A 
ATOM      9  C   UNL     1      85.456  71.938  85.426  0.00  0.00    +0.000 A 
ENDBRANCH   2   4
BRANCH   2  10
ATOM     10  S   UNL     1      89.147  70.395  86.595  0.00  0.00    +0.000 S 
BRANCH  10  11
ATOM     11  C   UNL     1      88.968  68.629  86.763  0.00  0.00    +0.000 A 
ATOM     12  C   UNL     1      89.963  67.785  86.260  0.00  0.00    +0.000 A 
ATOM     13  C   UNL     1      89.852  66.400  86.398  0.00  0.00    +0.000 A 
ATOM     14  C   UNL     1      88.750  65.851  87.053  0.00  0.00    +0.000 A 
ATOM     15  C   UNL     1      87.765  66.687  87.575  0.00  0.00    +0.000 A 
ATOM     16  C   UNL     1      87.878  68.073  87.439  0.00  0.00    +0.000 A 
ENDBRANCH  10  11
ENDBRANCH   2  10
TORSDOF 3
ENDMDL
