REMARK  Name = *****
REMARK  3 active torsions:
REMARK  status: ('A' for Active; 'I' for Inactive)
REMARK    1  A    between atoms: C_5  and  C_7
REMARK    2  A    between atoms: C_7  and  S_9
REMARK    3  A    between atoms: S_9  and  C_10
REMARK                            x       y       z     vdW  Elec       q    Type
REMARK                         _______ _______ _______ _____ _____    ______ ____
ROOT
ATOM      1  C   UNL     1       0.796  -2.692   0.034  0.00  0.00    +0.000 C 
ATOM      2  O   UNL     1       0.108  -3.646   0.379  0.00  0.00    +0.000 OA
ENDROOT
BRANCH   1   7
ATOM      3  C   UNL     1      -1.718   0.091  -0.273  0.00  0.00    +0.000 A 
ATOM      4  C   UNL     1      -0.955   1.212   0.053  0.00  0.00    +0.000 A 
ATOM      5  C   UNL     1       0.390   1.065   0.390  0.00  0.00    +0.000 A 
ATOM      6  C   UNL     1       0.973  -0.201   0.390  0.00  0.00    +0.000 A 
ATOM      7  C   UNL     1       0.227  -1.328   0.044  0.00  0.00    +0.000 A 
ATOM      8  C   UNL     1      -1.132  -1.177  -0.271  0.00  0.00    +0.000 A 
ATOM      9  F   UNL     1       2.255  -0.302   0.769  0.00  0.00    +0.000 F 
ENDBRANCH   1   7
BRANCH   1  10
ATOM     10  S   UNL     1       2.406  -2.900  -0.644  0.00  0.00    +0.000 S 
BRANCH  10  11
ATOM     11  C   UNL     1       3.128  -4.026   0.531  0.00  0.00    +0.000 A 
ATOM     12  C   UNL     1       2.737  -5.368   0.581  0.00  0.00    +0.000 A 
ATOM     13  C   UNL     1       3.331  -6.245   1.492  0.00  0.00    +0.000 A 
ATOM     14  C   UNL     1       4.326  -5.780   2.350  0.00  0.00    +0.000 A 
ATOM     15  C   UNL     1       4.731  -4.448   2.304  0.00  0.00    +0.000 A 
ATOM     16  C   UNL     1       4.134  -3.572   1.392  0.00  0.00    +0.000 A 
ATOM     17 CL   UNL     1       5.061  -6.859   3.471  0.00  0.00    +0.000 Cl
ENDBRANCH  10  11
ENDBRANCH   1  10
TORSDOF 3
