MODEL 1
REMARK VINA RESULT:      -3.8      0.000      0.000
REMARK  Name = *****
REMARK  4 active torsions:
REMARK  status: ('A' for Active; 'I' for Inactive)
REMARK    1  A    between atoms: C_5  and  C_7
REMARK    2  A    between atoms: C_7  and  O_8
REMARK    3  A    between atoms: O_8  and  C_9
REMARK    4  A    between atoms: C_9  and  C_10
REMARK                            x       y       z     vdW  Elec       q    Type
REMARK                         _______ _______ _______ _____ _____    ______ ____
ROOT
ATOM      1  O   UNL     1      87.518  63.090  87.039  0.00  0.00    +0.000 OA
ENDROOT
BRANCH   1   2
ATOM      2  C   UNL     1      87.891  64.470  87.081  0.00  0.00    +0.000 C 
BRANCH   2   7
ATOM      3  C   UNL     1      88.832  63.937  90.801  0.00  0.00    +0.000 C 
ATOM      4  C   UNL     1      87.421  64.165  91.349  0.00  0.00    +0.000 C 
ATOM      5  C   UNL     1      86.598  65.068  90.480  0.00  0.00    +0.000 C 
ATOM      6  C   UNL     1      86.946  65.401  89.228  0.00  0.00    +0.000 C 
ATOM      7  C   UNL     1      88.188  64.878  88.535  0.00  0.00    +0.000 C 
ATOM      8  C   UNL     1      88.805  63.689  89.295  0.00  0.00    +0.000 C 
ENDBRANCH   2   7
ENDBRANCH   1   2
BRANCH   1   9
ATOM      9  C   UNL     1      86.116  62.931  86.820  0.00  0.00    +0.000 C 
BRANCH   9  10
ATOM     10  C   UNL     1      85.452  62.414  88.072  0.00  0.00    +0.000 A 
ATOM     11  C   UNL     1      86.128  61.550  88.946  0.00  0.00    +0.000 A 
ATOM     12  C   UNL     1      85.521  61.108  90.123  0.00  0.00    +0.000 A 
ATOM     13  C   UNL     1      84.234  61.533  90.445  0.00  0.00    +0.000 A 
ATOM     14  C   UNL     1      83.554  62.400  89.593  0.00  0.00    +0.000 A 
ATOM     15  C   UNL     1      84.161  62.843  88.415  0.00  0.00    +0.000 A 
ENDBRANCH   9  10
ENDBRANCH   1   9
TORSDOF 4
ENDMDL
