MODEL 1
REMARK VINA RESULT:      -4.2      0.000      0.000
REMARK  Name = *****
REMARK  5 active torsions:
REMARK  status: ('A' for Active; 'I' for Inactive)
REMARK    1  A    between atoms: C_1  and  C_2
REMARK    2  A    between atoms: C_6  and  C_17
REMARK    3  A    between atoms: N_7  and  N_8
REMARK    4  A    between atoms: N_8  and  C_9
REMARK    5  A    between atoms: C_9  and  C_10
REMARK                            x       y       z     vdW  Elec       q    Type
REMARK                         _______ _______ _______ _____ _____    ______ ____
ROOT
ATOM      1  N   UNL     1      96.135 117.599  81.930  0.00  0.00    +0.000 NA
ENDROOT
BRANCH   1   8
ATOM      2  C   UNL     1      99.175 119.089  83.422  0.00  0.00    +0.000 C 
ATOM      3  C   UNL     1      98.243 118.685  82.275  0.00  0.00    +0.000 C 
ATOM      4  C   UNL     1      98.262 119.700  81.119  0.00  0.00    +0.000 C 
ATOM      5  C   UNL     1      97.512 120.986  81.450  0.00  0.00    +0.000 C 
ATOM      6  C   UNL     1      96.118 120.677  81.985  0.00  0.00    +0.000 C 
ATOM      7  C   UNL     1      96.178 119.672  83.145  0.00  0.00    +0.000 C 
ATOM      8  N   UNL     1      96.861 118.408  82.756  0.00  0.00    +0.000 NA
ATOM      9  C   UNL     1      94.774 119.397  83.697  0.00  0.00    +0.000 C 
ENDBRANCH   1   8
BRANCH   1  10
ATOM     10  C   UNL     1      96.779 116.528  81.587  0.00  0.00    +0.000 C 
BRANCH  10  11
ATOM     11  C   UNL     1      96.738 116.004  80.208  0.00  0.00    +0.000 A 
ATOM     12  C   UNL     1      95.895 114.940  79.870  0.00  0.00    +0.000 A 
ATOM     13  C   UNL     1      95.872 114.460  78.558  0.00  0.00    +0.000 A 
ATOM     14  C   UNL     1      96.691 115.045  77.593  0.00  0.00    +0.000 A 
ATOM     15  C   UNL     1      97.533 116.107  77.927  0.00  0.00    +0.000 A 
ATOM     16  C   UNL     1      97.559 116.589  79.239  0.00  0.00    +0.000 A 
ATOM     17 CL   UNL     1      96.664 114.456  75.977  0.00  0.00    +0.000 Cl
ENDBRANCH  10  11
ENDBRANCH   1  10
TORSDOF 3
ENDMDL
