MODEL 1
REMARK VINA RESULT:      -4.9      0.000      0.000
REMARK  Name = *****
REMARK  2 active torsions:
REMARK  status: ('A' for Active; 'I' for Inactive)
REMARK    1  A    between atoms: C_1  and  C_2
REMARK    2  A    between atoms: C_10  and  C_12
REMARK                            x       y       z     vdW  Elec       q    Type
REMARK                         _______ _______ _______ _____ _____    ______ ____
ROOT
ATOM      1  C   UNL     1     103.729 129.251  83.627  0.00  0.00    +0.000 C 
ATOM      2  C   UNL     1     102.880 127.986  83.631  0.00  0.00    +0.000 C 
ATOM      3  C   UNL     1     101.478 128.201  83.064  0.00  0.00    +0.000 C 
ATOM      4  C   UNL     1     100.621 129.175  83.880  0.00  0.00    +0.000 C 
ATOM      5  C   UNL     1      99.194 129.249  83.338  0.00  0.00    +0.000 C 
ATOM      6  C   UNL     1      98.549 127.869  83.241  0.00  0.00    +0.000 C 
ATOM      7  C   UNL     1      99.412 126.898  82.442  0.00  0.00    +0.000 C 
ATOM      8  C   UNL     1     100.830 126.819  83.012  0.00  0.00    +0.000 C 
ATOM      9  N   UNL     1     101.617 125.915  82.180  0.00  0.00    +0.000 NA
ATOM     10  C   UNL     1     102.895 126.059  82.175  0.00  0.00    +0.000 C 
ATOM     11  O   UNL     1     103.592 127.008  82.844  0.00  0.00    +0.000 OA
ENDROOT
BRANCH  10  12
ATOM     12  C   UNL     1     103.804 125.187  81.387  0.00  0.00    +0.000 A 
ATOM     13  C   UNL     1     104.099 123.904  81.870  0.00  0.00    +0.000 A 
ATOM     14  C   UNL     1     104.950 123.058  81.157  0.00  0.00    +0.000 A 
ATOM     15  C   UNL     1     105.516 123.488  79.958  0.00  0.00    +0.000 A 
ATOM     16  C   UNL     1     105.232 124.763  79.470  0.00  0.00    +0.000 A 
ATOM     17  C   UNL     1     104.379 125.611  80.180  0.00  0.00    +0.000 A 
ENDBRANCH  10  12
TORSDOF 1
ENDMDL
