MODEL 1
REMARK VINA RESULT:      -4.6      0.000      0.000
REMARK  Name = *****
REMARK  3 active torsions:
REMARK  status: ('A' for Active; 'I' for Inactive)
REMARK    1  A    between atoms: C_4  and  C_7
REMARK    2  A    between atoms: C_7  and  S_8
REMARK    3  A    between atoms: S_8  and  C_9
REMARK                            x       y       z     vdW  Elec       q    Type
REMARK                         _______ _______ _______ _____ _____    ______ ____
ROOT
ATOM      1  S   UNL     1     103.609 126.677  81.713  0.00  0.00    +0.000 S 
ENDROOT
BRANCH   1   2
ATOM      2  C   UNL     1     104.347 125.330  80.910  0.00  0.00    +0.000 A 
ATOM      3  C   UNL     1     104.160 124.074  81.349  0.00  0.00    +0.000 A 
ATOM      4  C   UNL     1     104.810 122.943  80.631  0.00  0.00    +0.000 A 
ATOM      5  S   UNL     1     104.681 121.338  81.080  0.00  0.00    +0.000 S 
ATOM      6  N   UNL     1     105.566 123.282  79.531  0.00  0.00    +0.000 N 
ATOM      7  C   UNL     1     105.731 124.568  79.085  0.00  0.00    +0.000 A 
ATOM      8  C   UNL     1     105.150 125.586  79.732  0.00  0.00    +0.000 A 
ATOM      9  H   UNL     1     106.015 122.559  79.036  0.00  0.00    +0.000 HD
ENDBRANCH   1   2
BRANCH   1  10
ATOM     10  C   UNL     1     102.068 125.890  82.278  0.00  0.00    +0.000 C 
BRANCH  10  14
ATOM     11  C   UNL     1      99.090 128.832  83.318  0.00  0.00    +0.000 A 
ATOM     12  C   UNL     1      98.713 127.657  82.672  0.00  0.00    +0.000 A 
ATOM     13  C   UNL     1      99.675 126.703  82.336  0.00  0.00    +0.000 A 
ATOM     14  C   UNL     1     101.026 126.914  82.648  0.00  0.00    +0.000 A 
ATOM     15  C   UNL     1     101.394 128.106  83.291  0.00  0.00    +0.000 A 
ATOM     16  C   UNL     1     100.430 129.057  83.626  0.00  0.00    +0.000 A 
ENDBRANCH  10  14
ENDBRANCH   1  10
TORSDOF 3
ENDMDL
