MODEL 1
REMARK VINA RESULT:      -4.3      0.000      0.000
REMARK  Name = *****
REMARK  3 active torsions:
REMARK  status: ('A' for Active; 'I' for Inactive)
REMARK    1  A    between atoms: C_4  and  S_7
REMARK    2  A    between atoms: S_7  and  C_8
REMARK    3  A    between atoms: C_8  and  C_9
REMARK                            x       y       z     vdW  Elec       q    Type
REMARK                         _______ _______ _______ _____ _____    ______ ____
ROOT
ATOM      1  C   UNL     1     103.101 125.676  83.913  0.00  0.00    +0.000 C 
ENDROOT
BRANCH   1   2
ATOM      2  C   UNL     1     103.663 124.793  82.825  0.00  0.00    +0.000 A 
ATOM      3  C   UNL     1     104.199 123.532  83.139  0.00  0.00    +0.000 A 
ATOM      4  C   UNL     1     104.727 122.720  82.134  0.00  0.00    +0.000 A 
ATOM      5  C   UNL     1     104.727 123.168  80.819  0.00  0.00    +0.000 A 
ATOM      6  C   UNL     1     104.211 124.415  80.488  0.00  0.00    +0.000 A 
ATOM      7  C   UNL     1     103.681 125.229  81.490  0.00  0.00    +0.000 A 
ATOM      8  F   UNL     1     105.234 122.387  79.856  0.00  0.00    +0.000 F 
ENDBRANCH   1   2
BRANCH   1   9
ATOM      9  S   UNL     1     103.022 127.415  83.375  0.00  0.00    +0.000 S 
BRANCH   9  13
ATOM     10  C   UNL     1      98.496 127.992  82.776  0.00  0.00    +0.000 A 
ATOM     11  C   UNL     1      99.226 129.021  83.367  0.00  0.00    +0.000 A 
ATOM     12  C   UNL     1     100.604 128.884  83.567  0.00  0.00    +0.000 A 
ATOM     13  C   UNL     1     101.269 127.717  83.180  0.00  0.00    +0.000 A 
ATOM     14  C   UNL     1     100.520 126.690  82.585  0.00  0.00    +0.000 A 
ATOM     15  C   UNL     1      99.144 126.825  82.384  0.00  0.00    +0.000 A 
ENDBRANCH   9  13
ENDBRANCH   1   9
TORSDOF 3
ENDMDL
