MODEL 1
REMARK VINA RESULT:      -4.2      0.000      0.000
REMARK  Name = *****
REMARK  4 active torsions:
REMARK  status: ('A' for Active; 'I' for Inactive)
REMARK    1  A    between atoms: C_1  and  C_2
REMARK    2  A    between atoms: C_7  and  N_8
REMARK    3  A    between atoms: N_8  and  S_9
REMARK    4  A    between atoms: S_9  and  C_10
REMARK                            x       y       z     vdW  Elec       q    Type
REMARK                         _______ _______ _______ _____ _____    ______ ____
ROOT
ATOM      1  N   UNL     1      89.223  63.688  87.742  0.00  0.00    +0.000 N 
ATOM      2  H   UNL     1      90.083  63.522  88.190  0.00  0.00    +0.000 HD
ENDROOT
BRANCH   1   9
ATOM      3  C   UNL     1      88.982  63.962  90.630  0.00  0.00    +0.000 C 
ATOM      4  C   UNL     1      87.879  63.399  89.772  0.00  0.00    +0.000 A 
ATOM      5  C   UNL     1      86.679  63.015  90.399  0.00  0.00    +0.000 A 
ATOM      6  C   UNL     1      85.614  62.512  89.656  0.00  0.00    +0.000 A 
ATOM      7  C   UNL     1      85.732  62.398  88.278  0.00  0.00    +0.000 A 
ATOM      8  C   UNL     1      86.921  62.770  87.645  0.00  0.00    +0.000 A 
ATOM      9  C   UNL     1      88.029  63.242  88.372  0.00  0.00    +0.000 A 
ENDBRANCH   1   9
BRANCH   1  10
ATOM     10  S   UNL     1      89.228  64.482  86.274  0.00  0.00    +0.000 S 
BRANCH  10  11
ATOM     11  C   UNL     1      89.105  66.202  86.902  0.00  0.00    +0.000 C 
ATOM     12  C   UNL     1      87.652  66.620  87.160  0.00  0.00    +0.000 C 
ATOM     13  C   UNL     1      87.581  68.041  87.722  0.00  0.00    +0.000 C 
ATOM     14  C   UNL     1      88.307  69.039  86.823  0.00  0.00    +0.000 C 
ATOM     15  C   UNL     1      89.750  68.618  86.562  0.00  0.00    +0.000 C 
ATOM     16  C   UNL     1      89.830  67.202  85.993  0.00  0.00    +0.000 C 
ENDBRANCH  10  11
ENDBRANCH   1  10
TORSDOF 3
ENDMDL
