MODEL 1
REMARK VINA RESULT:      -4.8      0.000      0.000
REMARK  Name = *****
REMARK  7 active torsions:
REMARK  status: ('A' for Active; 'I' for Inactive)
REMARK    1  A    between atoms: C_1  and  C_2
REMARK    2  A    between atoms: C_4  and  O_8
REMARK    3  A    between atoms: O_8  and  P_9
REMARK    4  A    between atoms: P_9  and  N_10
REMARK    5  A    between atoms: P_9  and  O_11
REMARK    6  A    between atoms: O_11  and  C_12
REMARK    7  A    between atoms: C_16  and  C_18
REMARK                            x       y       z     vdW  Elec       q    Type
REMARK                         _______ _______ _______ _____ _____    ______ ____
ROOT
ATOM      1  P   UNL     1      87.840  63.527  88.741  0.00  0.00    +0.000 P 
ATOM      2  H   UNL     1      87.165  64.489  89.467  0.00  0.00    +0.000 HD
ENDROOT
BRANCH   1   3
ATOM      3  N   UNL     1      89.407  63.307  89.378  0.00  0.00    +0.000 NA
ATOM      4  H   UNL     1      89.762  64.198  89.725  0.00  0.00    +0.000 HD
ENDBRANCH   1   3
BRANCH   1   5
ATOM      5  O   UNL     1      87.135  62.074  88.697  0.00  0.00    +0.000 OA
BRANCH   5   9
ATOM      6  C   UNL     1      83.896  59.416  91.322  0.00  0.00    +0.000 C 
ATOM      7  C   UNL     1      84.238  60.594  90.460  0.00  0.00    +0.000 A 
ATOM      8  C   UNL     1      85.554  60.770  90.004  0.00  0.00    +0.000 A 
ATOM      9  C   UNL     1      85.873  61.836  89.167  0.00  0.00    +0.000 A 
ATOM     10  C   UNL     1      84.878  62.722  88.758  0.00  0.00    +0.000 A 
ATOM     11  C   UNL     1      83.564  62.551  89.194  0.00  0.00    +0.000 A 
ATOM     12  C   UNL     1      83.244  61.487  90.040  0.00  0.00    +0.000 A 
ENDBRANCH   5   9
ENDBRANCH   1   5
BRANCH   1  13
ATOM     13  O   UNL     1      88.006  63.840  87.165  0.00  0.00    +0.000 OA
BRANCH  13  14
ATOM     14  C   UNL     1      88.970  64.670  86.662  0.00  0.00    +0.000 A 
ATOM     15  C   UNL     1      89.023  66.034  86.924  0.00  0.00    +0.000 A 
ATOM     16  C   UNL     1      90.043  66.811  86.372  0.00  0.00    +0.000 A 
ATOM     17  C   UNL     1      91.009  66.221  85.553  0.00  0.00    +0.000 A 
ATOM     18  C   UNL     1      90.959  64.849  85.277  0.00  0.00    +0.000 A 
ATOM     19  C   UNL     1      89.940  64.077  85.852  0.00  0.00    +0.000 A 
ATOM     20  C   UNL     1      92.017  64.200  84.438  0.00  0.00    +0.000 C 
ENDBRANCH  13  14
ENDBRANCH   1  13
TORSDOF 5
ENDMDL
