REMARK  Name = *****
REMARK  5 active torsions:
REMARK  status: ('A' for Active; 'I' for Inactive)
REMARK    1  A    between atoms: C_1  and  O_2
REMARK    2  A    between atoms: O_2  and  C_3
REMARK    3  A    between atoms: C_8  and  N_9
REMARK    4  A    between atoms: N_9  and  S_10
REMARK    5  A    between atoms: S_10  and  C_12
REMARK                            x       y       z     vdW  Elec       q    Type
REMARK                         _______ _______ _______ _____ _____    ______ ____
ROOT
ATOM      1  N   UNL     1       4.488  -0.831   1.641  0.00  0.00    +0.000 N 
ATOM      2  H   UNL     1       3.732  -0.742   2.266  0.00  0.00    +0.000 HD
ENDROOT
BRANCH   1   8
ATOM      3  C   UNL     1       3.165  -1.213  -0.378  0.00  0.00    +0.000 A 
ATOM      4  C   UNL     1       2.945  -1.888  -1.582  0.00  0.00    +0.000 A 
ATOM      5  C   UNL     1       3.852  -2.855  -2.019  0.00  0.00    +0.000 A 
ATOM      6  C   UNL     1       4.976  -3.158  -1.254  0.00  0.00    +0.000 A 
ATOM      7  C   UNL     1       5.203  -2.488  -0.051  0.00  0.00    +0.000 A 
ATOM      8  C   UNL     1       4.318  -1.496   0.392  0.00  0.00    +0.000 A 
BRANCH   3  10
ATOM      9  C   UNL     1       1.180   0.092  -0.599  0.00  0.00    +0.000 C 
ATOM     10  O   UNL     1       2.342  -0.245   0.148  0.00  0.00    +0.000 OA
ENDBRANCH   3  10
ENDBRANCH   1   8
BRANCH   1  11
ATOM     11  S   UNL     1       5.996  -0.201   2.032  0.00  0.00    +0.000 S 
ATOM     12  O   UNL     1       5.785   1.179   2.581  0.00  0.00    +0.000 OA
BRANCH  11  13
ATOM     13  C   UNL     1       6.158  -1.259   3.497  0.00  0.00    +0.000 A 
ATOM     14  C   UNL     1       7.026  -2.356   3.463  0.00  0.00    +0.000 A 
ATOM     15  C   UNL     1       7.169  -3.174   4.586  0.00  0.00    +0.000 A 
ATOM     16  C   UNL     1       6.449  -2.896   5.748  0.00  0.00    +0.000 A 
ATOM     17  C   UNL     1       5.588  -1.799   5.791  0.00  0.00    +0.000 A 
ATOM     18  C   UNL     1       5.445  -0.980   4.670  0.00  0.00    +0.000 A 
ENDBRANCH  11  13
ENDBRANCH   1  11
TORSDOF 4
