MODEL 1
REMARK VINA RESULT:      -4.6      0.000      0.000
REMARK  Name = *****
REMARK  4 active torsions:
REMARK  status: ('A' for Active; 'I' for Inactive)
REMARK    1  A    between atoms: C_1  and  P_2
REMARK    2  A    between atoms: P_2  and  C_3
REMARK    3  A    between atoms: P_2  and  C_9
REMARK    4  A    between atoms: C_9  and  C_11
REMARK                            x       y       z     vdW  Elec       q    Type
REMARK                         _______ _______ _______ _____ _____    ______ ____
ROOT
ATOM      1  C   UNL     1     103.795 129.062  83.253  0.00  0.00    +0.000 C 
ATOM      2  P   UNL     1     103.088 127.375  83.340  0.00  0.00    +0.000 P 
ENDROOT
BRANCH   2   3
ATOM      3  C   UNL     1     101.306 127.671  83.149  0.00  0.00    +0.000 A 
ATOM      4  C   UNL     1     100.513 126.664  82.577  0.00  0.00    +0.000 A 
ATOM      5  C   UNL     1      99.137 126.844  82.413  0.00  0.00    +0.000 A 
ATOM      6  C   UNL     1      98.535 128.031  82.821  0.00  0.00    +0.000 A 
ATOM      7  C   UNL     1      99.308 129.039  83.390  0.00  0.00    +0.000 A 
ATOM      8  C   UNL     1     100.684 128.860  83.554  0.00  0.00    +0.000 A 
ENDBRANCH   2   3
BRANCH   2   9
ATOM      9  C   UNL     1     103.573 126.650  81.753  0.00  0.00    +0.000 C 
ATOM     10  C   UNL     1     103.453 127.341  80.609  0.00  0.00    +0.000 C 
BRANCH   9  11
ATOM     11  C   UNL     1     104.002 125.243  81.683  0.00  0.00    +0.000 A 
ATOM     12  C   UNL     1     104.408 124.686  80.462  0.00  0.00    +0.000 A 
ATOM     13  C   UNL     1     104.807 123.349  80.392  0.00  0.00    +0.000 A 
ATOM     14  C   UNL     1     104.799 122.559  81.540  0.00  0.00    +0.000 A 
ATOM     15  C   UNL     1     104.390 123.100  82.758  0.00  0.00    +0.000 A 
ATOM     16  C   UNL     1     103.991 124.437  82.829  0.00  0.00    +0.000 A 
ENDBRANCH   9  11
ENDBRANCH   2   9
TORSDOF 3
ENDMDL
