REMARK  Name = *****
REMARK  4 active torsions:
REMARK  status: ('A' for Active; 'I' for Inactive)
REMARK    1  A    between atoms: C_1  and  C_2
REMARK    2  A    between atoms: C_5  and  O_8
REMARK    3  A    between atoms: O_8  and  C_9
REMARK    4  A    between atoms: C_9  and  C_11
REMARK                            x       y       z     vdW  Elec       q    Type
REMARK                         _______ _______ _______ _____ _____    ______ ____
ROOT
ATOM      1  O   UNL     1      -3.258   0.295   0.125  0.00  0.00    +0.000 OA
ENDROOT
BRANCH   1   6
ATOM      2  C   UNL     1       2.418  -0.176   0.009  0.00  0.00    +0.000 C 
ATOM      3  C   UNL     1       0.925  -0.020   0.020  0.00  0.00    +0.000 A 
ATOM      4  C   UNL     1       0.335   1.240   0.191  0.00  0.00    +0.000 A 
ATOM      5  C   UNL     1      -1.055   1.375   0.217  0.00  0.00    +0.000 A 
ATOM      6  C   UNL     1      -1.854   0.246   0.055  0.00  0.00    +0.000 A 
ATOM      7  C   UNL     1      -1.285  -1.018  -0.089  0.00  0.00    +0.000 A 
ATOM      8  C   UNL     1       0.104  -1.149  -0.110  0.00  0.00    +0.000 A 
ENDBRANCH   1   6
BRANCH   1   9
ATOM      9  C   UNL     1      -3.958   1.278  -0.581  0.00  0.00    +0.000 C 
ATOM     10  O   UNL     1      -3.445   2.124  -1.304  0.00  0.00    +0.000 OA
BRANCH   9  11
ATOM     11  C   UNL     1      -5.380   1.120  -0.319  0.00  0.00    +0.000 A 
ATOM     12  C   UNL     1      -6.040   0.159   0.428  0.00  0.00    +0.000 A 
ATOM     13  C   UNL     1      -7.453   0.349   0.441  0.00  0.00    +0.000 A 
ATOM     14  C   UNL     1      -7.830   1.450  -0.294  0.00  0.00    +0.000 A 
ATOM     15  S   UNL     1      -6.488   2.242  -0.995  0.00  0.00    +0.000 S 
ENDBRANCH   9  11
ENDBRANCH   1   9
TORSDOF 3
