REMARK  Name = *****
REMARK  1 active torsions:
REMARK  status: ('A' for Active; 'I' for Inactive)
REMARK    1  A    between atoms: C_5  and  C_8
REMARK                            x       y       z     vdW  Elec       q    Type
REMARK                         _______ _______ _______ _____ _____    ______ ____
ROOT
ATOM      1  C   UNL     1      -2.135   2.169  -0.529  0.00  0.00    +0.000 A 
ATOM      2  N   UNL     1      -3.381   1.958  -0.949  0.00  0.00    +0.000 NA
ATOM      3  C   UNL     1      -3.851   3.186  -1.331  0.00  0.00    +0.000 A 
ATOM      4  C   UNL     1      -5.090   3.582  -1.851  0.00  0.00    +0.000 A 
ATOM      5  C   UNL     1      -5.275   4.940  -2.153  0.00  0.00    +0.000 A 
ATOM      6  C   UNL     1      -4.253   5.875  -1.941  0.00  0.00    +0.000 A 
ATOM      7  C   UNL     1      -3.010   5.490  -1.422  0.00  0.00    +0.000 A 
ATOM      8  C   UNL     1      -2.871   4.137  -1.138  0.00  0.00    +0.000 A 
ATOM      9  O   UNL     1      -1.778   3.509  -0.630  0.00  0.00    +0.000 OA
ENDROOT
BRANCH   1  14
ATOM     10  C   UNL     1       1.569  -0.564   0.021  0.00  0.00    +0.000 C 
ATOM     11  C   UNL     1       0.434  -1.526  -0.323  0.00  0.00    +0.000 C 
ATOM     12  C   UNL     1      -0.847  -1.286   0.473  0.00  0.00    +0.000 C 
ATOM     13  C   UNL     1      -1.639  -0.102   0.004  0.00  0.00    +0.000 C 
ATOM     14  C   UNL     1      -1.213   1.179  -0.022  0.00  0.00    +0.000 C 
ATOM     15  C   UNL     1       0.175   1.538   0.472  0.00  0.00    +0.000 C 
ATOM     16  C   UNL     1       1.305   0.898  -0.336  0.00  0.00    +0.000 C 
ENDBRANCH   1  14
TORSDOF 1
