MODEL 1
REMARK VINA RESULT:      -4.6      0.000      0.000
REMARK  Name = *****
REMARK  2 active torsions:
REMARK  status: ('A' for Active; 'I' for Inactive)
REMARK    1  A    between atoms: C_4  and  C_7
REMARK    2  A    between atoms: C_8  and  C_9
REMARK                            x       y       z     vdW  Elec       q    Type
REMARK                         _______ _______ _______ _____ _____    ______ ____
ROOT
ATOM      1  C   UNL     1     102.936 125.611  81.427  0.00  0.00    +0.000 C 
ATOM      2  C   UNL     1     102.058 126.268  81.916  0.00  0.00    +0.000 C 
ENDROOT
BRANCH   1   6
ATOM      3  C   UNL     1     106.080 123.382  79.699  0.00  0.00    +0.000 A 
ATOM      4  C   UNL     1     105.330 122.836  80.741  0.00  0.00    +0.000 A 
ATOM      5  C   UNL     1     104.287 123.569  81.311  0.00  0.00    +0.000 A 
ATOM      6  C   UNL     1     103.996 124.851  80.839  0.00  0.00    +0.000 A 
ATOM      7  C   UNL     1     104.747 125.395  79.795  0.00  0.00    +0.000 A 
ATOM      8  C   UNL     1     105.789 124.661  79.225  0.00  0.00    +0.000 A 
ENDBRANCH   1   6
BRANCH   2   9
ATOM      9  C   UNL     1     101.026 127.072  82.494  0.00  0.00    +0.000 A 
ATOM     10  C   UNL     1      99.685 126.735  82.292  0.00  0.00    +0.000 A 
ATOM     11  C   UNL     1      98.674 127.523  82.844  0.00  0.00    +0.000 A 
ATOM     12  C   UNL     1      99.002 128.650  83.599  0.00  0.00    +0.000 A 
ATOM     13  C   UNL     1     100.340 128.987  83.803  0.00  0.00    +0.000 A 
ATOM     14  C   UNL     1     101.352 128.199  83.251  0.00  0.00    +0.000 A 
ENDBRANCH   2   9
TORSDOF 2
ENDMDL
