REMARK  Name = *****
REMARK  4 active torsions:
REMARK  status: ('A' for Active; 'I' for Inactive)
REMARK    1  A    between atoms: C_1  and  C_2
REMARK    2  A    between atoms: C_4  and  O_9
REMARK    3  A    between atoms: O_9  and  C_10
REMARK    4  A    between atoms: C_10  and  C_11
REMARK                            x       y       z     vdW  Elec       q    Type
REMARK                         _______ _______ _______ _____ _____    ______ ____
ROOT
ATOM      1  C   UNL     1       1.055  -0.101   0.191  0.00  0.00    +0.000 C 
ATOM      2  C   UNL     1       2.548  -0.058   0.074  0.00  0.00    +0.000 A 
ATOM      3  C   UNL     1       3.307  -1.228   0.039  0.00  0.00    +0.000 A 
ATOM      4  C   UNL     1       4.685  -1.125  -0.081  0.00  0.00    +0.000 A 
ATOM      5  N   UNL     1       5.349   0.045  -0.158  0.00  0.00    +0.000 NA
ATOM      6  C   UNL     1       4.599   1.166  -0.114  0.00  0.00    +0.000 A 
ATOM      7  C   UNL     1       3.215   1.167  -0.002  0.00  0.00    +0.000 A 
ATOM      8 BR   UNL     1       5.505   2.831  -0.208  0.00  0.00    +0.000 Br
ENDROOT
BRANCH   4   9
ATOM      9  O   UNL     1       5.385  -2.313  -0.094  0.00  0.00    +0.000 OA
BRANCH   9  10
ATOM     10  C   UNL     1       6.765  -2.138  -0.416  0.00  0.00    +0.000 C 
BRANCH  10  11
ATOM     11  C   UNL     1       7.387  -3.503  -0.367  0.00  0.00    +0.000 A 
ATOM     12  C   UNL     1       8.139  -4.062   0.648  0.00  0.00    +0.000 A 
ATOM     13  C   UNL     1       8.571  -5.383   0.340  0.00  0.00    +0.000 A 
ATOM     14  C   UNL     1       8.133  -5.792  -0.900  0.00  0.00    +0.000 A 
ATOM     15  S   UNL     1       7.213  -4.584  -1.686  0.00  0.00    +0.000 S 
ENDBRANCH  10  11
ENDBRANCH   9  10
ENDBRANCH   4   9
TORSDOF 3
