MODEL 1
REMARK VINA RESULT:      -3.6      0.000      0.000
REMARK  Name = *****
REMARK  4 active torsions:
REMARK  status: ('A' for Active; 'I' for Inactive)
REMARK    1  A    between atoms: C_4  and  C_7
REMARK    2  A    between atoms: C_7  and  C_8
REMARK    3  A    between atoms: C_8  and  C_9
REMARK    4  A    between atoms: C_9  and  C_11
REMARK                            x       y       z     vdW  Elec       q    Type
REMARK                         _______ _______ _______ _____ _____    ______ ____
ROOT
ATOM      1  C   UNL     1      89.039  68.418  85.525  0.00  0.00    +0.000 C 
ENDROOT
BRANCH   1   2
ATOM      2  C   UNL     1      89.489  67.234  86.380  0.00  0.00    +0.000 C 
ATOM      3  O   UNL     1      90.674  66.892  86.395  0.00  0.00    +0.000 OA
BRANCH   2   4
ATOM      4  C   UNL     1      88.485  66.519  87.166  0.00  0.00    +0.000 A 
ATOM      5  C   UNL     1      87.393  67.082  87.804  0.00  0.00    +0.000 A 
ATOM      6  C   UNL     1      86.599  66.120  88.494  0.00  0.00    +0.000 A 
ATOM      7  C   UNL     1      87.108  64.850  88.361  0.00  0.00    +0.000 A 
ATOM      8  S   UNL     1      88.530  64.824  87.415  0.00  0.00    +0.000 S 
ENDBRANCH   2   4
ENDBRANCH   1   2
BRANCH   1   9
ATOM      9  C   UNL     1      89.696  69.733  85.954  0.00  0.00    +0.000 C 
BRANCH   9  13
ATOM     10  C   UNL     1      86.459  71.017  88.622  0.00  0.00    +0.000 C 
ATOM     11  C   UNL     1      87.891  71.158  89.126  0.00  0.00    +0.000 C 
ATOM     12  C   UNL     1      88.869  70.319  88.303  0.00  0.00    +0.000 C 
ATOM     13  C   UNL     1      88.777  70.635  86.801  0.00  0.00    +0.000 C 
ATOM     14  C   UNL     1      87.324  70.499  86.311  0.00  0.00    +0.000 C 
ATOM     15  C   UNL     1      86.359  71.344  87.137  0.00  0.00    +0.000 C 
ENDBRANCH   9  13
ENDBRANCH   1   9
TORSDOF 4
ENDMDL
