MODEL 1
REMARK VINA RESULT:      -4.7      0.000      0.000
REMARK  Name = *****
REMARK  4 active torsions:
REMARK  status: ('A' for Active; 'I' for Inactive)
REMARK    1  A    between atoms: C_1  and  C_2
REMARK    2  A    between atoms: C_7  and  N_8
REMARK    3  A    between atoms: N_9  and  C_11
REMARK    4  A    between atoms: C_16  and  C_17
REMARK                            x       y       z     vdW  Elec       q    Type
REMARK                         _______ _______ _______ _____ _____    ______ ____
ROOT
ATOM      1  N   UNL     1     102.710 126.682  82.710  0.00  0.00    +0.000 N 
ATOM      2  N   UNL     1     102.802 125.322  82.700  0.00  0.00    +0.000 N 
ATOM      3  O   UNL     1     103.269 126.028  83.791  0.00  0.00    +0.000 OA
ENDROOT
BRANCH   1  10
ATOM      4  C   UNL     1     102.309 129.423  84.108  0.00  0.00    +0.000 C 
ATOM      5  C   UNL     1     101.219 128.568  83.517  0.00  0.00    +0.000 A 
ATOM      6  C   UNL     1      99.898 129.052  83.606  0.00  0.00    +0.000 A 
ATOM      7  C   UNL     1      98.822 128.330  83.088  0.00  0.00    +0.000 A 
ATOM      8  C   UNL     1      99.046 127.107  82.473  0.00  0.00    +0.000 A 
ATOM      9  C   UNL     1     100.347 126.613  82.377  0.00  0.00    +0.000 A 
ATOM     10  C   UNL     1     101.454 127.322  82.891  0.00  0.00    +0.000 A 
ENDBRANCH   1  10
BRANCH   2  11
ATOM     11  C   UNL     1     103.753 124.665  81.871  0.00  0.00    +0.000 A 
ATOM     12  C   UNL     1     103.958 125.266  80.611  0.00  0.00    +0.000 A 
ATOM     13  C   UNL     1     104.857 124.741  79.682  0.00  0.00    +0.000 A 
ATOM     14  C   UNL     1     105.574 123.596  79.996  0.00  0.00    +0.000 A 
ATOM     15  C   UNL     1     105.392 122.981  81.234  0.00  0.00    +0.000 A 
ATOM     16  C   UNL     1     104.487 123.498  82.185  0.00  0.00    +0.000 A 
ATOM     17  C   UNL     1     104.365 122.761  83.492  0.00  0.00    +0.000 C 
ENDBRANCH   2  11
TORSDOF 2
ENDMDL
