MODEL 1
REMARK VINA RESULT:      -3.6      0.000      0.000
REMARK  Name = *****
REMARK  2 active torsions:
REMARK  status: ('A' for Active; 'I' for Inactive)
REMARK    1  A    between atoms: C_4  and  C_6
REMARK    2  A    between atoms: C_7  and  C_8
REMARK                            x       y       z     vdW  Elec       q    Type
REMARK                         _______ _______ _______ _____ _____    ______ ____
ROOT
ATOM      1  C   UNL     1     102.649 126.227  81.622  0.00  0.00    +0.000 C 
ATOM      2  C   UNL     1     101.588 126.004  82.416  0.00  0.00    +0.000 C 
ENDROOT
BRANCH   1   6
ATOM      3  C   UNL     1     105.140 123.771  80.269  0.00  0.00    +0.000 A 
ATOM      4  C   UNL     1     105.167 123.288  81.556  0.00  0.00    +0.000 A 
ATOM      5  S   UNL     1     104.121 124.157  82.586  0.00  0.00    +0.000 S 
ATOM      6  C   UNL     1     103.604 125.210  81.315  0.00  0.00    +0.000 A 
ATOM      7  C   UNL     1     104.243 124.872  80.132  0.00  0.00    +0.000 A 
ENDBRANCH   1   6
BRANCH   2   8
ATOM      8  C   UNL     1     100.630 127.018  82.721  0.00  0.00    +0.000 A 
ATOM      9  C   UNL     1      99.265 127.094  82.483  0.00  0.00    +0.000 A 
ATOM     10  C   UNL     1      98.673 128.300  82.959  0.00  0.00    +0.000 A 
ATOM     11  C   UNL     1      99.598 129.127  83.552  0.00  0.00    +0.000 A 
ATOM     12  S   UNL     1     101.163 128.449  83.533  0.00  0.00    +0.000 S 
ENDBRANCH   2   8
TORSDOF 2
ENDMDL
