REMARK  Name = *****
REMARK  6 active torsions:
REMARK  status: ('A' for Active; 'I' for Inactive)
REMARK    1  A    between atoms: C_1  and  C_2
REMARK    2  A    between atoms: C_3  and  C_10
REMARK    3  A    between atoms: C_4  and  C_8
REMARK    4  A    between atoms: C_4  and  C_9
REMARK    5  A    between atoms: C_10  and  S_12
REMARK    6  A    between atoms: S_12  and  C_13
REMARK                            x       y       z     vdW  Elec       q    Type
REMARK                         _______ _______ _______ _____ _____    ______ ____
ROOT
ATOM      1  C   UNL     1       2.770  -0.603  -0.964  0.00  0.00    +0.000 C 
ATOM      2  C   UNL     1       1.425  -0.112  -0.489  0.00  0.00    +0.000 C 
ATOM      3  C   UNL     1       0.324  -0.886  -0.325  0.00  0.00    +0.000 C 
ATOM      4  C   UNL     1      -1.059  -0.339   0.049  0.00  0.00    +0.000 C 
ATOM      5  C   UNL     1      -1.089   1.210  -0.076  0.00  0.00    +0.000 C 
ATOM      6  C   UNL     1       0.155   1.862   0.508  0.00  0.00    +0.000 C 
ATOM      7  C   UNL     1       1.403   1.377  -0.222  0.00  0.00    +0.000 C 
ATOM      8  C   UNL     1      -2.172  -0.880  -0.874  0.00  0.00    +0.000 C 
ATOM      9  C   UNL     1      -1.401  -0.736   1.501  0.00  0.00    +0.000 C 
ENDROOT
BRANCH   3  10
ATOM     10  C   UNL     1       0.429  -2.365  -0.536  0.00  0.00    +0.000 C 
ATOM     11  O   UNL     1      -0.034  -2.917  -1.524  0.00  0.00    +0.000 OA
BRANCH  10  12
ATOM     12  S   UNL     1       1.200  -3.208   0.799  0.00  0.00    +0.000 S 
BRANCH  12  13
ATOM     13  C   UNL     1       2.025  -4.614   0.074  0.00  0.00    +0.000 A 
ATOM     14  C   UNL     1       2.398  -4.713  -1.270  0.00  0.00    +0.000 A 
ATOM     15  C   UNL     1       3.087  -5.835  -1.742  0.00  0.00    +0.000 A 
ATOM     16  C   UNL     1       3.425  -6.867  -0.872  0.00  0.00    +0.000 A 
ATOM     17  C   UNL     1       3.071  -6.780   0.471  0.00  0.00    +0.000 A 
ATOM     18  C   UNL     1       2.377  -5.661   0.940  0.00  0.00    +0.000 A 
ENDBRANCH  12  13
ENDBRANCH  10  12
ENDBRANCH   3  10
TORSDOF 3
