MODEL 1
REMARK VINA RESULT:      -4.2      0.000      0.000
REMARK  Name = *****
REMARK  5 active torsions:
REMARK  status: ('A' for Active; 'I' for Inactive)
REMARK    1  A    between atoms: C_1  and  O_2
REMARK    2  A    between atoms: O_2  and  C_3
REMARK    3  A    between atoms: C_3  and  C_4
REMARK    4  A    between atoms: C_4  and  C_12
REMARK    5  A    between atoms: C_5  and  C_6
REMARK                            x       y       z     vdW  Elec       q    Type
REMARK                         _______ _______ _______ _____ _____    ______ ____
ROOT
ATOM      1  C   UNL     1      89.529  68.777  85.531  0.00  0.00    +0.000 C 
ATOM      2  C   UNL     1      89.937  67.835  86.410  0.00  0.00    +0.000 C 
ENDROOT
BRANCH   2   3
ATOM      3  C   UNL     1      90.145  66.416  86.107  0.00  0.00    +0.000 A 
ATOM      4  C   UNL     1      91.308  66.010  85.447  0.00  0.00    +0.000 A 
ATOM      5  C   UNL     1      91.518  64.660  85.159  0.00  0.00    +0.000 A 
ATOM      6  C   UNL     1      90.570  63.709  85.538  0.00  0.00    +0.000 A 
ATOM      7  C   UNL     1      89.411  64.107  86.203  0.00  0.00    +0.000 A 
ATOM      8  C   UNL     1      89.199  65.457  86.489  0.00  0.00    +0.000 A 
ENDBRANCH   2   3
BRANCH   1   9
ATOM      9  C   UNL     1      89.338  70.206  86.018  0.00  0.00    +0.000 C 
ATOM     10  C   UNL     1      89.273  70.396  87.544  0.00  0.00    +0.000 C 
ATOM     11  C   UNL     1      87.798  70.609  87.891  0.00  0.00    +0.000 C 
ATOM     12  C   UNL     1      87.203  71.033  86.587  0.00  0.00    +0.000 C 
ATOM     13  C   UNL     1      88.037  70.808  85.565  0.00  0.00    +0.000 C 
ENDBRANCH   1   9
BRANCH   1  14
ATOM     14  C   UNL     1      89.291  68.489  84.065  0.00  0.00    +0.000 C 
BRANCH  14  16
ATOM     15  C   UNL     1      89.919  69.900  82.290  0.00  0.00    +0.000 C 
ATOM     16  O   UNL     1      90.377  69.021  83.308  0.00  0.00    +0.000 OA
ENDBRANCH  14  16
ENDBRANCH   1  14
TORSDOF 4
ENDMDL
