MODEL 1
REMARK VINA RESULT:      -4.6      0.000      0.000
REMARK  Name = *****
REMARK  5 active torsions:
REMARK  status: ('A' for Active; 'I' for Inactive)
REMARK    1  A    between atoms: C_1  and  C_2
REMARK    2  A    between atoms: C_4  and  C_11
REMARK    3  A    between atoms: C_9  and  C_10
REMARK    4  A    between atoms: C_11  and  S_12
REMARK    5  A    between atoms: S_12  and  C_13
REMARK                            x       y       z     vdW  Elec       q    Type
REMARK                         _______ _______ _______ _____ _____    ______ ____
ROOT
ATOM      1  C   UNL     1     104.385 123.575  81.910  0.00  0.00    +0.000 C 
ATOM      2  C   UNL     1     104.485 124.269  80.547  0.00  0.00    +0.000 C 
ATOM      3  C   UNL     1     103.455 125.394  80.372  0.00  0.00    +0.000 C 
ATOM      4  C   UNL     1     103.627 126.724  81.122  0.00  0.00    +0.000 C 
ATOM      5  C   UNL     1     104.745 127.575  80.561  0.00  0.00    +0.000 C 
ATOM      6  O   UNL     1     104.506 128.679  80.070  0.00  0.00    +0.000 OA
ATOM      7  O   UNL     1     106.012 127.122  80.577  0.00  0.00    +0.000 OA
ATOM      8  C   UNL     1     106.461 125.838  81.034  0.00  0.00    +0.000 C 
ATOM      9  C   UNL     1     105.939 124.661  80.209  0.00  0.00    +0.000 C 
ATOM     10  C   UNL     1     106.122 124.913  78.707  0.00  0.00    +0.000 C 
ENDROOT
BRANCH   4  11
ATOM     11  C   UNL     1     103.617 126.646  82.649  0.00  0.00    +0.000 C 
BRANCH  11  12
ATOM     12  S   UNL     1     103.032 128.205  83.414  0.00  0.00    +0.000 S 
BRANCH  12  13
ATOM     13  C   UNL     1     101.272 128.023  83.183  0.00  0.00    +0.000 A 
ATOM     14  C   UNL     1     100.426 129.064  83.577  0.00  0.00    +0.000 A 
ATOM     15  C   UNL     1      99.044 128.954  83.400  0.00  0.00    +0.000 A 
ATOM     16  C   UNL     1      98.503 127.808  82.821  0.00  0.00    +0.000 A 
ATOM     17  C   UNL     1      99.343 126.774  82.412  0.00  0.00    +0.000 A 
ATOM     18  C   UNL     1     100.725 126.882  82.588  0.00  0.00    +0.000 A 
ENDBRANCH  12  13
ENDBRANCH  11  12
ENDBRANCH   4  11
TORSDOF 3
ENDMDL
