MODEL 1
REMARK VINA RESULT:      -4.5      0.000      0.000
REMARK  Name = *****
REMARK  4 active torsions:
REMARK  status: ('A' for Active; 'I' for Inactive)
REMARK    1  A    between atoms: C_1  and  C_2
REMARK    2  A    between atoms: C_5  and  S_8
REMARK    3  A    between atoms: S_8  and  C_9
REMARK    4  A    between atoms: C_9  and  C_11
REMARK                            x       y       z     vdW  Elec       q    Type
REMARK                         _______ _______ _______ _____ _____    ______ ____
ROOT
ATOM      1  S   UNL     1      89.174  70.359  86.667  0.00  0.00    +0.000 S 
ENDROOT
BRANCH   1   6
ATOM      2  C   UNL     1      88.773  64.294  87.137  0.00  0.00    +0.000 C 
ATOM      3  C   UNL     1      88.860  65.782  86.975  0.00  0.00    +0.000 A 
ATOM      4  C   UNL     1      89.973  66.366  86.362  0.00  0.00    +0.000 A 
ATOM      5  C   UNL     1      90.072  67.756  86.246  0.00  0.00    +0.000 A 
ATOM      6  C   UNL     1      89.057  68.583  86.734  0.00  0.00    +0.000 A 
ATOM      7  C   UNL     1      87.955  68.001  87.369  0.00  0.00    +0.000 A 
ATOM      8  C   UNL     1      87.858  66.611  87.491  0.00  0.00    +0.000 A 
ENDBRANCH   1   6
BRANCH   1   9
ATOM      9  C   UNL     1      87.801  70.834  85.668  0.00  0.00    +0.000 C 
ATOM     10  O   UNL     1      87.820  70.768  84.444  0.00  0.00    +0.000 OA
BRANCH   9  11
ATOM     11  C   UNL     1      86.597  71.380  86.366  0.00  0.00    +0.000 A 
ATOM     12  C   UNL     1      85.564  71.899  85.569  0.00  0.00    +0.000 A 
ATOM     13  C   UNL     1      84.411  72.427  86.154  0.00  0.00    +0.000 A 
ATOM     14  C   UNL     1      84.275  72.435  87.541  0.00  0.00    +0.000 A 
ATOM     15  C   UNL     1      85.288  71.912  88.342  0.00  0.00    +0.000 A 
ATOM     16  C   UNL     1      86.445  71.384  87.760  0.00  0.00    +0.000 A 
ENDBRANCH   9  11
ENDBRANCH   1   9
TORSDOF 3
ENDMDL
