REMARK  Name = *****
REMARK  4 active torsions:
REMARK  status: ('A' for Active; 'I' for Inactive)
REMARK    1  A    between atoms: C_1  and  C_2
REMARK    2  A    between atoms: C_5  and  S_8
REMARK    3  A    between atoms: S_8  and  O_10
REMARK    4  A    between atoms: O_10  and  C_11
REMARK                            x       y       z     vdW  Elec       q    Type
REMARK                         _______ _______ _______ _____ _____    ______ ____
ROOT
ATOM      1  S   UNL     1      -3.680  -0.435   0.191  0.00  0.00    +0.000 S 
ATOM      2  O   UNL     1      -4.244   0.940   0.405  0.00  0.00    +0.000 OA
ENDROOT
BRANCH   1   7
ATOM      3  C   UNL     1       2.391   0.237  -0.255  0.00  0.00    +0.000 C 
ATOM      4  C   UNL     1       0.901   0.081  -0.178  0.00  0.00    +0.000 A 
ATOM      5  C   UNL     1       0.085   1.191   0.070  0.00  0.00    +0.000 A 
ATOM      6  C   UNL     1      -1.300   1.044   0.175  0.00  0.00    +0.000 A 
ATOM      7  C   UNL     1      -1.888  -0.218   0.038  0.00  0.00    +0.000 A 
ATOM      8  C   UNL     1      -1.072  -1.332  -0.189  0.00  0.00    +0.000 A 
ATOM      9  C   UNL     1       0.313  -1.184  -0.293  0.00  0.00    +0.000 A 
ENDBRANCH   1   7
BRANCH   1  10
ATOM     10  O   UNL     1      -3.848  -0.788  -1.376  0.00  0.00    +0.000 OA
BRANCH  10  11
ATOM     11  C   UNL     1      -4.955  -1.535  -1.685  0.00  0.00    +0.000 A 
ATOM     12  C   UNL     1      -6.251  -1.040  -1.510  0.00  0.00    +0.000 A 
ATOM     13  C   UNL     1      -7.347  -1.823  -1.877  0.00  0.00    +0.000 A 
ATOM     14  C   UNL     1      -7.140  -3.085  -2.434  0.00  0.00    +0.000 A 
ATOM     15  C   UNL     1      -5.847  -3.570  -2.634  0.00  0.00    +0.000 A 
ATOM     16  C   UNL     1      -4.750  -2.787  -2.267  0.00  0.00    +0.000 A 
ATOM     17 BR   UNL     1      -8.624  -4.145  -2.933  0.00  0.00    +0.000 Br
ENDBRANCH  10  11
ENDBRANCH   1  10
TORSDOF 3
