MODEL 1
REMARK VINA RESULT:      -4.8      0.000      0.000
REMARK  Name = *****
REMARK  4 active torsions:
REMARK  status: ('A' for Active; 'I' for Inactive)
REMARK    1  A    between atoms: C_1  and  C_2
REMARK    2  A    between atoms: C_6  and  O_8
REMARK    3  A    between atoms: O_8  and  C_9
REMARK    4  A    between atoms: C_9  and  C_11
REMARK                            x       y       z     vdW  Elec       q    Type
REMARK                         _______ _______ _______ _____ _____    ______ ____
ROOT
ATOM      1  O   UNL     1      88.554  70.073  87.041  0.00  0.00    +0.000 OA
ENDROOT
BRANCH   1   7
ATOM      2  C   UNL     1      91.043  66.054  85.593  0.00  0.00    +0.000 C 
ATOM      3  C   UNL     1      89.874  66.684  86.297  0.00  0.00    +0.000 A 
ATOM      4  C   UNL     1      88.886  65.914  86.936  0.00  0.00    +0.000 A 
ATOM      5  C   UNL     1      87.809  66.527  87.587  0.00  0.00    +0.000 A 
ATOM      6  C   UNL     1      87.699  67.917  87.602  0.00  0.00    +0.000 A 
ATOM      7  C   UNL     1      88.664  68.681  86.954  0.00  0.00    +0.000 A 
ATOM      8  C   UNL     1      89.756  68.083  86.322  0.00  0.00    +0.000 A 
ATOM      9 CL   UNL     1      88.962  64.188  86.956  0.00  0.00    +0.000 Cl
ENDBRANCH   1   7
BRANCH   1  10
ATOM     10  C   UNL     1      87.815  70.676  86.038  0.00  0.00    +0.000 C 
ATOM     11  O   UNL     1      88.089  70.722  84.848  0.00  0.00    +0.000 OA
BRANCH  10  12
ATOM     12  C   UNL     1      86.586  71.289  86.615  0.00  0.00    +0.000 A 
ATOM     13  C   UNL     1      86.353  71.366  87.996  0.00  0.00    +0.000 A 
ATOM     14  C   UNL     1      85.181  71.952  88.479  0.00  0.00    +0.000 A 
ATOM     15  C   UNL     1      84.236  72.463  87.590  0.00  0.00    +0.000 A 
ATOM     16  C   UNL     1      84.459  72.391  86.216  0.00  0.00    +0.000 A 
ATOM     17  C   UNL     1      85.629  71.805  85.729  0.00  0.00    +0.000 A 
ENDBRANCH  10  12
ENDBRANCH   1  10
TORSDOF 3
ENDMDL
