MODEL 1
REMARK VINA RESULT:      -4.6      0.000      0.000
REMARK  Name = *****
REMARK  5 active torsions:
REMARK  status: ('A' for Active; 'I' for Inactive)
REMARK    1  A    between atoms: C_1  and  N_2
REMARK    2  A    between atoms: N_2  and  C_3
REMARK    3  A    between atoms: N_2  and  C_4
REMARK    4  A    between atoms: C_5  and  C_11
REMARK    5  A    between atoms: C_12  and  C_13
REMARK                            x       y       z     vdW  Elec       q    Type
REMARK                         _______ _______ _______ _____ _____    ______ ____
ROOT
ATOM      1  C   UNL     1     104.811 123.821  81.961  0.00  0.00    +0.000 A 
ATOM      2  C   UNL     1     104.176 124.802  81.157  0.00  0.00    +0.000 A 
ATOM      3  C   UNL     1     104.580 125.015  79.833  0.00  0.00    +0.000 A 
ATOM      4  C   UNL     1     105.614 124.259  79.301  0.00  0.00    +0.000 A 
ATOM      5  C   UNL     1     106.256 123.293  80.061  0.00  0.00    +0.000 A 
ATOM      6  C   UNL     1     105.858 123.076  81.382  0.00  0.00    +0.000 A 
ATOM      7  F   UNL     1     106.000 124.466  78.035  0.00  0.00    +0.000 F 
ENDROOT
BRANCH   1   9
ATOM      8  C   UNL     1     104.301 122.235  83.749  0.00  0.00    +0.000 C 
ATOM      9  N   UNL     1     104.413 123.622  83.301  0.00  0.00    +0.000 N 
ATOM     10  C   UNL     1     105.146 124.498  84.220  0.00  0.00    +0.000 C 
ENDBRANCH   1   9
BRANCH   2  11
ATOM     11  C   UNL     1     103.083 125.588  81.655  0.00  0.00    +0.000 C 
ATOM     12  C   UNL     1     102.168 126.248  82.067  0.00  0.00    +0.000 C 
BRANCH  12  13
ATOM     13  C   UNL     1     101.084 127.041  82.560  0.00  0.00    +0.000 A 
ATOM     14  C   UNL     1     101.341 128.201  83.294  0.00  0.00    +0.000 A 
ATOM     15  C   UNL     1     100.281 128.972  83.777  0.00  0.00    +0.000 A 
ATOM     16  C   UNL     1      98.965 128.583  83.527  0.00  0.00    +0.000 A 
ATOM     17  C   UNL     1      98.706 127.425  82.794  0.00  0.00    +0.000 A 
ATOM     18  C   UNL     1      99.765 126.654  82.310  0.00  0.00    +0.000 A 
ENDBRANCH  12  13
ENDBRANCH   2  11
TORSDOF 3
ENDMDL
