REMARK  Name = *****
REMARK  0 active torsions:
REMARK  status: ('A' for Active; 'I' for Inactive)
REMARK                            x       y       z     vdW  Elec       q    Type
REMARK                         _______ _______ _______ _____ _____    ______ ____
ROOT
ATOM      1  C   UNL     1       0.761   0.352   0.321  0.00  0.00    +0.000 C 
ATOM      2  C   UNL     1       1.071  -1.009  -0.291  0.00  0.00    +0.000 C 
ATOM      3  C   UNL     1       0.037  -2.055   0.134  0.00  0.00    +0.000 C 
ATOM      4  C   UNL     1      -1.379  -1.547   0.076  0.00  0.00    +0.000 C 
ATOM      5  C   UNL     1      -1.680  -0.221  -0.049  0.00  0.00    +0.000 C 
ATOM      6  C   UNL     1      -0.623   0.848  -0.106  0.00  0.00    +0.000 C 
ATOM      7  C   UNL     1      -3.072   0.152  -0.111  0.00  0.00    +0.000 C 
ATOM      8  C   UNL     1      -4.246  -0.115  -0.110  0.00  0.00    +0.000 C 
ATOM      9  C   UNL     1      -5.341  -1.053  -0.045  0.00  0.00    +0.000 C 
ATOM     10  C   UNL     1      -5.039  -2.379   0.082  0.00  0.00    +0.000 C 
ATOM     11  C   UNL     1      -6.097  -3.448   0.146  0.00  0.00    +0.000 C 
ATOM     12  C   UNL     1      -7.482  -2.953  -0.278  0.00  0.00    +0.000 C 
ATOM     13  C   UNL     1      -7.789  -1.589   0.330  0.00  0.00    +0.000 C 
ATOM     14  C   UNL     1      -6.756  -0.545  -0.102  0.00  0.00    +0.000 C 
ATOM     15  C   UNL     1      -3.647  -2.752   0.143  0.00  0.00    +0.000 C 
ATOM     16  C   UNL     1      -2.473  -2.485   0.141  0.00  0.00    +0.000 C 
ENDROOT
TORSDOF 0
