MODEL 1
REMARK VINA RESULT:      -4.7      0.000      0.000
REMARK  Name = *****
REMARK  1 active torsions:
REMARK  status: ('A' for Active; 'I' for Inactive)
REMARK    1  A    between atoms: C_4  and  C_7
REMARK                            x       y       z     vdW  Elec       q    Type
REMARK                         _______ _______ _______ _____ _____    ______ ____
ROOT
ATOM      1  C   UNL     1     102.023 126.027  82.779  0.00  0.00    +0.000 A 
ATOM      2  N   UNL     1     102.568 125.271  83.718  0.00  0.00    +0.000 NA
ATOM      3  C   UNL     1     103.527 124.556  83.051  0.00  0.00    +0.000 A 
ATOM      4  C   UNL     1     103.530 124.909  81.711  0.00  0.00    +0.000 A 
ATOM      5  O   UNL     1     102.565 125.855  81.529  0.00  0.00    +0.000 OA
ATOM      6  C   UNL     1     104.376 124.375  80.749  0.00  0.00    +0.000 A 
ATOM      7  C   UNL     1     105.276 123.412  81.216  0.00  0.00    +0.000 A 
ATOM      8  C   UNL     1     105.312 123.021  82.562  0.00  0.00    +0.000 A 
ATOM      9  C   UNL     1     104.436 123.590  83.500  0.00  0.00    +0.000 A 
ATOM     10 CL   UNL     1     106.372 122.684  80.103  0.00  0.00    +0.000 Cl
ENDROOT
BRANCH   1  14
ATOM     11  C   UNL     1      98.892 128.912  83.157  0.00  0.00    +0.000 A 
ATOM     12  C   UNL     1     100.171 129.194  83.628  0.00  0.00    +0.000 A 
ATOM     13  C   UNL     1     101.188 128.244  83.499  0.00  0.00    +0.000 A 
ATOM     14  C   UNL     1     100.940 127.000  82.898  0.00  0.00    +0.000 A 
ATOM     15  C   UNL     1      99.645 126.733  82.427  0.00  0.00    +0.000 A 
ATOM     16  C   UNL     1      98.627 127.683  82.556  0.00  0.00    +0.000 A 
ENDBRANCH   1  14
TORSDOF 1
ENDMDL
