MODEL 1
REMARK VINA RESULT:      -4.8      0.000      0.000
REMARK  Name = *****
REMARK  3 active torsions:
REMARK  status: ('A' for Active; 'I' for Inactive)
REMARK    1  A    between atoms: C_1  and  C_2
REMARK    2  A    between atoms: C_2  and  C_11
REMARK    3  A    between atoms: N_3  and  C_4
REMARK                            x       y       z     vdW  Elec       q    Type
REMARK                         _______ _______ _______ _____ _____    ______ ____
ROOT
ATOM      1  C   UNL     1     103.149 127.280  80.825  0.00  0.00    +0.000 C 
ATOM      2  C   UNL     1     102.907 126.004  81.613  0.00  0.00    +0.000 C 
ATOM      3  N   UNL     1     101.947 125.857  82.482  0.00  0.00    +0.000 NA
ENDROOT
BRANCH   3   4
ATOM      4  C   UNL     1     101.071 126.914  82.755  0.00  0.00    +0.000 A 
ATOM      5  C   UNL     1     101.516 128.046  83.440  0.00  0.00    +0.000 A 
ATOM      6  C   UNL     1     100.627 129.078  83.728  0.00  0.00    +0.000 A 
ATOM      7  C   UNL     1      99.287 128.987  83.350  0.00  0.00    +0.000 A 
ATOM      8  C   UNL     1      98.833 127.848  82.685  0.00  0.00    +0.000 A 
ATOM      9  C   UNL     1      99.724 126.813  82.396  0.00  0.00    +0.000 A 
ATOM     10 CL   UNL     1     101.184 130.480  84.557  0.00  0.00    +0.000 Cl
ENDBRANCH   3   4
BRANCH   2  11
ATOM     11  C   UNL     1     103.837 124.854  81.386  0.00  0.00    +0.000 A 
ATOM     12  C   UNL     1     104.478 124.734  80.146  0.00  0.00    +0.000 A 
ATOM     13  C   UNL     1     105.349 123.670  79.902  0.00  0.00    +0.000 A 
ATOM     14  C   UNL     1     105.577 122.716  80.891  0.00  0.00    +0.000 A 
ATOM     15  C   UNL     1     104.931 122.821  82.123  0.00  0.00    +0.000 A 
ATOM     16  C   UNL     1     104.060 123.885  82.371  0.00  0.00    +0.000 A 
ENDBRANCH   2  11
TORSDOF 2
ENDMDL
