MODEL 1
REMARK VINA RESULT:      -4.5      0.000      0.000
REMARK  Name = *****
REMARK  2 active torsions:
REMARK  status: ('A' for Active; 'I' for Inactive)
REMARK    1  A    between atoms: C_2  and  C_11
REMARK    2  A    between atoms: N_3  and  C_4
REMARK                            x       y       z     vdW  Elec       q    Type
REMARK                         _______ _______ _______ _____ _____    ______ ____
ROOT
ATOM      1  C   UNL     1     103.283 125.666  83.594  0.00  0.00    +0.000 C 
ATOM      2  C   UNL     1     102.758 126.694  82.601  0.00  0.00    +0.000 C 
ATOM      3  N   UNL     1     102.866 125.273  82.258  0.00  0.00    +0.000 N 
ENDROOT
BRANCH   3   4
ATOM      4  C   UNL     1     103.842 124.853  81.322  0.00  0.00    +0.000 A 
ATOM      5  C   UNL     1     104.365 125.761  80.389  0.00  0.00    +0.000 A 
ATOM      6  C   UNL     1     105.356 125.365  79.488  0.00  0.00    +0.000 A 
ATOM      7  C   UNL     1     105.839 124.063  79.531  0.00  0.00    +0.000 A 
ATOM      8  C   UNL     1     105.358 123.154  80.464  0.00  0.00    +0.000 A 
ATOM      9  C   UNL     1     104.367 123.552  81.364  0.00  0.00    +0.000 A 
ATOM     10  F   UNL     1     106.791 123.684  78.669  0.00  0.00    +0.000 F 
ENDBRANCH   3   4
BRANCH   2  11
ATOM     11  C   UNL     1     101.384 127.277  82.794  0.00  0.00    +0.000 A 
ATOM     12  C   UNL     1     101.211 128.528  83.411  0.00  0.00    +0.000 A 
ATOM     13  C   UNL     1      99.943 129.089  83.582  0.00  0.00    +0.000 A 
ATOM     14  C   UNL     1      98.815 128.409  83.134  0.00  0.00    +0.000 A 
ATOM     15  C   UNL     1      98.957 127.170  82.515  0.00  0.00    +0.000 A 
ATOM     16  C   UNL     1     100.228 126.615  82.346  0.00  0.00    +0.000 A 
ENDBRANCH   2  11
TORSDOF 2
ENDMDL
