MODEL 1
REMARK VINA RESULT:      -4.4      0.000      0.000
REMARK  Name = *****
REMARK  4 active torsions:
REMARK  status: ('A' for Active; 'I' for Inactive)
REMARK    1  A    between atoms: C_1  and  C_2
REMARK    2  A    between atoms: C_6  and  O_7
REMARK    3  A    between atoms: O_7  and  C_8
REMARK    4  A    between atoms: C_8  and  C_10
REMARK                            x       y       z     vdW  Elec       q    Type
REMARK                         _______ _______ _______ _____ _____    ______ ____
ROOT
ATOM      1  C   UNL     1     101.908 125.853  83.180  0.00  0.00    +0.000 C 
ATOM      2  O   UNL     1     102.289 125.288  84.195  0.00  0.00    +0.000 OA
ENDROOT
BRANCH   1   3
ATOM      3  C   UNL     1     100.953 126.993  83.182  0.00  0.00    +0.000 A 
ATOM      4  C   UNL     1      99.686 126.796  82.614  0.00  0.00    +0.000 A 
ATOM      5  C   UNL     1      98.753 127.834  82.594  0.00  0.00    +0.000 A 
ATOM      6  C   UNL     1      99.079 129.075  83.141  0.00  0.00    +0.000 A 
ATOM      7  C   UNL     1     100.337 129.280  83.707  0.00  0.00    +0.000 A 
ATOM      8  C   UNL     1     101.273 128.243  83.728  0.00  0.00    +0.000 A 
ENDBRANCH   1   3
BRANCH   1   9
ATOM      9  O   UNL     1     102.281 125.548  81.914  0.00  0.00    +0.000 OA
BRANCH   9  15
ATOM     10  C   UNL     1     103.608 127.561  80.175  0.00  0.00    +0.000 C 
ATOM     11  C   UNL     1     104.061 126.170  80.442  0.00  0.00    +0.000 C 
ATOM     12  C   UNL     1     104.862 125.426  79.668  0.00  0.00    +0.000 C 
ATOM     13  C   UNL     1     105.151 124.099  80.288  0.00  0.00    +0.000 C 
ATOM     14  C   UNL     1     104.114 124.012  81.406  0.00  0.00    +0.000 C 
ATOM     15  C   UNL     1     103.691 125.454  81.711  0.00  0.00    +0.000 C 
ENDBRANCH   9  15
ENDBRANCH   1   9
TORSDOF 3
ENDMDL
