REMARK  Name = *****
REMARK  2 active torsions:
REMARK  status: ('A' for Active; 'I' for Inactive)
REMARK    1  A    between atoms: C_4  and  P_7
REMARK    2  A    between atoms: P_7  and  C_9
REMARK                            x       y       z     vdW  Elec       q    Type
REMARK                         _______ _______ _______ _____ _____    ______ ____
ROOT
ATOM      1  P   UNL     1       3.140  -0.659  -0.694  0.00  0.00    +0.000 P 
ATOM      2  S   UNL     1       4.408   0.591  -0.038  0.00  0.00    +0.000 S 
ENDROOT
BRANCH   1   6
ATOM      3  C   UNL     1      -1.393   0.448  -0.027  0.00  0.00    +0.000 C 
ATOM      4  C   UNL     1      -0.897  -0.884   0.518  0.00  0.00    +0.000 C 
ATOM      5  C   UNL     1       0.454  -1.274  -0.082  0.00  0.00    +0.000 C 
ATOM      6  C   UNL     1       1.521  -0.180   0.128  0.00  0.00    +0.000 C 
ATOM      7  C   UNL     1       0.994   1.159  -0.436  0.00  0.00    +0.000 C 
ATOM      8  C   UNL     1      -0.355   1.545   0.169  0.00  0.00    +0.000 C 
ENDBRANCH   1   6
BRANCH   1   9
ATOM      9  C   UNL     1       3.570  -2.294   0.104  0.00  0.00    +0.000 C 
ATOM     10  C   UNL     1       3.604  -2.309   1.640  0.00  0.00    +0.000 C 
ATOM     11  C   UNL     1       3.891  -3.711   2.180  0.00  0.00    +0.000 C 
ATOM     12  C   UNL     1       5.176  -4.289   1.597  0.00  0.00    +0.000 C 
ATOM     13  C   UNL     1       5.151  -4.281   0.072  0.00  0.00    +0.000 C 
ATOM     14  C   UNL     1       4.870  -2.884  -0.480  0.00  0.00    +0.000 C 
ENDBRANCH   1   9
TORSDOF 2
