REMARK  Name = *****
REMARK  3 active torsions:
REMARK  status: ('A' for Active; 'I' for Inactive)
REMARK    1  A    between atoms: C_6  and  C_7
REMARK    2  A    between atoms: C_8  and  C_9
REMARK    3  A    between atoms: C_9  and  C_11
REMARK                            x       y       z     vdW  Elec       q    Type
REMARK                         _______ _______ _______ _____ _____    ______ ____
ROOT
ATOM      1  C   UNL     1       6.041   1.263   0.246  0.00  0.00    +0.000 C 
ATOM      2  O   UNL     1       6.666   0.253  -0.064  0.00  0.00    +0.000 OA
ENDROOT
BRANCH   1   3
ATOM      3  C   UNL     1       6.783   2.491   0.620  0.00  0.00    +0.000 A 
ATOM      4  C   UNL     1       6.279   3.439   1.516  0.00  0.00    +0.000 A 
ATOM      5  C   UNL     1       7.019   4.569   1.855  0.00  0.00    +0.000 A 
ATOM      6  C   UNL     1       8.279   4.746   1.298  0.00  0.00    +0.000 A 
ATOM      7  C   UNL     1       8.811   3.811   0.416  0.00  0.00    +0.000 A 
ATOM      8  C   UNL     1       8.066   2.679   0.080  0.00  0.00    +0.000 A 
ATOM      9  F   UNL     1       8.996   5.829   1.622  0.00  0.00    +0.000 F 
ATOM     10  F   UNL     1       5.082   3.279   2.098  0.00  0.00    +0.000 F 
ENDBRANCH   1   3
BRANCH   1  12
ATOM     11  C   UNL     1       3.860   0.171   0.062  0.00  0.00    +0.000 C 
ATOM     12  C   UNL     1       4.555   1.311   0.200  0.00  0.00    +0.000 C 
BRANCH  11  18
ATOM     13  C   UNL     1       1.557   0.990   0.674  0.00  0.00    +0.000 A 
ATOM     14  C   UNL     1       0.166   0.858   0.605  0.00  0.00    +0.000 A 
ATOM     15  C   UNL     1      -0.397  -0.180  -0.132  0.00  0.00    +0.000 A 
ATOM     16  C   UNL     1       0.419  -1.090  -0.798  0.00  0.00    +0.000 A 
ATOM     17  C   UNL     1       1.810  -0.956  -0.730  0.00  0.00    +0.000 A 
ATOM     18  C   UNL     1       2.394   0.093  -0.005  0.00  0.00    +0.000 A 
ATOM     19 CL   UNL     1      -2.107  -0.343  -0.214  0.00  0.00    +0.000 Cl
ENDBRANCH  11  18
ENDBRANCH   1  12
TORSDOF 3
