MODEL 1
REMARK VINA RESULT:      -5.3      0.000      0.000
REMARK  Name = *****
REMARK  2 active torsions:
REMARK  status: ('A' for Active; 'I' for Inactive)
REMARK    1  A    between atoms: C_1  and  C_2
REMARK    2  A    between atoms: C_6  and  C_12
REMARK                            x       y       z     vdW  Elec       q    Type
REMARK                         _______ _______ _______ _____ _____    ______ ____
ROOT
ATOM      1  C   UNL     1     101.005 130.417  84.532  0.00  0.00    +0.000 C 
ATOM      2  C   UNL     1     100.457 129.198  83.841  0.00  0.00    +0.000 A 
ATOM      3  C   UNL     1     101.306 128.234  83.247  0.00  0.00    +0.000 A 
ATOM      4  C   UNL     1     102.808 128.431  83.260  0.00  0.00    +0.000 C 
ATOM      5  C   UNL     1     103.604 127.174  82.913  0.00  0.00    +0.000 C 
ATOM      6  C   UNL     1     103.026 126.513  81.656  0.00  0.00    +0.000 C 
ATOM      7  C   UNL     1     101.587 126.055  81.936  0.00  0.00    +0.000 C 
ATOM      8  C   UNL     1     100.736 127.124  82.588  0.00  0.00    +0.000 A 
ATOM      9  C   UNL     1      99.343 126.959  82.575  0.00  0.00    +0.000 A 
ATOM     10  C   UNL     1      98.513 127.897  83.181  0.00  0.00    +0.000 A 
ATOM     11  C   UNL     1      99.066 129.009  83.808  0.00  0.00    +0.000 A 
ENDROOT
BRANCH   6  12
ATOM     12  C   UNL     1     103.891 125.371  81.152  0.00  0.00    +0.000 A 
ATOM     13  C   UNL     1     104.630 125.470  79.964  0.00  0.00    +0.000 A 
ATOM     14  C   UNL     1     105.422 124.406  79.525  0.00  0.00    +0.000 A 
ATOM     15  C   UNL     1     105.486 123.230  80.268  0.00  0.00    +0.000 A 
ATOM     16  C   UNL     1     104.760 123.117  81.451  0.00  0.00    +0.000 A 
ATOM     17  C   UNL     1     103.968 124.180  81.891  0.00  0.00    +0.000 A 
ENDBRANCH   6  12
TORSDOF 1
ENDMDL
