REMARK  Name = *****
REMARK  1 active torsions:
REMARK  status: ('A' for Active; 'I' for Inactive)
REMARK    1  A    between atoms: C_8  and  C_10
REMARK                            x       y       z     vdW  Elec       q    Type
REMARK                         _______ _______ _______ _____ _____    ______ ____
ROOT
ATOM      1  C   UNL     1      -2.236  -0.781  -0.333  0.00  0.00    +0.000 C 
ATOM      2  C   UNL     1      -2.362   0.587   0.315  0.00  0.00    +0.000 C 
ATOM      3  C   UNL     1      -0.956   0.898   0.827  0.00  0.00    +0.000 C 
ATOM      4  C   UNL     1       0.003   0.075  -0.058  0.00  0.00    +0.000 C 
ATOM      5  C   UNL     1      -0.891  -0.697  -1.042  0.00  0.00    +0.000 C 
ATOM      6  C   UNL     1       1.044   0.917  -0.750  0.00  0.00    +0.000 C 
ATOM      7  C   UNL     1       2.272   0.534  -0.369  0.00  0.00    +0.000 C 
ATOM      8  C   UNL     1       2.181  -0.565   0.577  0.00  0.00    +0.000 C 
ATOM      9  C   UNL     1       0.877  -0.847   0.765  0.00  0.00    +0.000 C 
ENDROOT
BRANCH   8  10
ATOM     10  C   UNL     1       3.293  -1.277   1.222  0.00  0.00    +0.000 A 
ATOM     11  C   UNL     1       4.473  -1.538   0.512  0.00  0.00    +0.000 A 
ATOM     12  C   UNL     1       5.541  -2.206   1.118  0.00  0.00    +0.000 A 
ATOM     13  C   UNL     1       5.441  -2.621   2.444  0.00  0.00    +0.000 A 
ATOM     14  C   UNL     1       4.276  -2.369   3.164  0.00  0.00    +0.000 A 
ATOM     15  C   UNL     1       3.210  -1.699   2.557  0.00  0.00    +0.000 A 
ENDBRANCH   8  10
TORSDOF 1
