MODEL 1
REMARK VINA RESULT:      -4.7      0.000      0.000
REMARK  Name = *****
REMARK  3 active torsions:
REMARK  status: ('A' for Active; 'I' for Inactive)
REMARK    1  A    between atoms: C_1  and  N_2
REMARK    2  A    between atoms: C_3  and  C_9
REMARK    3  A    between atoms: C_10  and  C_11
REMARK                            x       y       z     vdW  Elec       q    Type
REMARK                         _______ _______ _______ _____ _____    ______ ____
ROOT
ATOM      1  C   UNL     1     100.595 127.101  82.714  0.00  0.00    +0.000 C 
ATOM      2  C   UNL     1     101.901 127.415  82.723  0.00  0.00    +0.000 C 
ATOM      3 CL   UNL     1     102.570 128.606  83.784  0.00  0.00    +0.000 Cl
ENDROOT
BRANCH   1   6
ATOM      4  C   UNL     1      99.672 126.048  85.332  0.00  0.00    +0.000 C 
ATOM      5  N   UNL     1      99.208 127.351  84.749  0.00  0.00    +0.000 NA
ATOM      6  C   UNL     1      99.596 127.780  83.584  0.00  0.00    +0.000 C 
ATOM      7  C   UNL     1      98.984 129.059  83.039  0.00  0.00    +0.000 C 
ATOM      8  C   UNL     1      99.478 130.302  83.774  0.00  0.00    +0.000 C 
ATOM      9  C   UNL     1      98.747 130.552  85.089  0.00  0.00    +0.000 C 
ATOM     10  C   UNL     1      98.876 129.417  86.104  0.00  0.00    +0.000 C 
ATOM     11  C   UNL     1      98.251 128.111  85.633  0.00  0.00    +0.000 C 
ENDBRANCH   1   6
BRANCH   2  12
ATOM     12  C   UNL     1     102.845 126.748  81.812  0.00  0.00    +0.000 A 
ATOM     13  C   UNL     1     103.030 125.357  81.866  0.00  0.00    +0.000 A 
ATOM     14  C   UNL     1     103.934 124.727  81.006  0.00  0.00    +0.000 A 
ATOM     15  C   UNL     1     104.655 125.482  80.085  0.00  0.00    +0.000 A 
ATOM     16  C   UNL     1     104.480 126.861  80.013  0.00  0.00    +0.000 A 
ATOM     17  C   UNL     1     103.577 127.493  80.873  0.00  0.00    +0.000 A 
ATOM     18 BR   UNL     1     105.877 124.629  78.922  0.00  0.00    +0.000 Br
ENDBRANCH   2  12
TORSDOF 2
ENDMDL
