REMARK  Name = *****
REMARK  6 active torsions:
REMARK  status: ('A' for Active; 'I' for Inactive)
REMARK    1  A    between atoms: C_1  and  C_2
REMARK    2  A    between atoms: C_3  and  O_9
REMARK    3  A    between atoms: C_4  and  C_8
REMARK    4  A    between atoms: O_9  and  C_10
REMARK    5  A    between atoms: C_10  and  C_11
REMARK    6  A    between atoms: C_10  and  C_12
REMARK                            x       y       z     vdW  Elec       q    Type
REMARK                         _______ _______ _______ _____ _____    ______ ____
ROOT
ATOM      1  O   UNL     1       0.247   1.944   1.017  0.00  0.00    +0.000 OA
ENDROOT
BRANCH   1   4
ATOM      2  C   UNL     1       2.575   0.196   1.056  0.00  0.00    +0.000 C 
ATOM      3  C   UNL     1       1.296  -0.123   0.336  0.00  0.00    +0.000 A 
ATOM      4  C   UNL     1       0.191   0.748   0.344  0.00  0.00    +0.000 A 
ATOM      5  C   UNL     1      -1.026   0.373  -0.249  0.00  0.00    +0.000 A 
ATOM      6  C   UNL     1      -1.088  -0.834  -0.960  0.00  0.00    +0.000 A 
ATOM      7  C   UNL     1       0.022  -1.672  -1.035  0.00  0.00    +0.000 A 
ATOM      8  C   UNL     1       1.204  -1.323  -0.385  0.00  0.00    +0.000 A 
ATOM      9  C   UNL     1      -2.252   1.237  -0.181  0.00  0.00    +0.000 C 
ENDBRANCH   1   4
BRANCH   1  10
ATOM     10  C   UNL     1       0.995   2.950   0.305  0.00  0.00    +0.000 C 
ATOM     11  C   UNL     1       0.024   3.979  -0.274  0.00  0.00    +0.000 C 
BRANCH  10  12
ATOM     12  C   UNL     1       1.954   3.638   1.265  0.00  0.00    +0.000 A 
ATOM     13  C   UNL     1       1.588   3.912   2.593  0.00  0.00    +0.000 A 
ATOM     14  C   UNL     1       2.473   4.560   3.456  0.00  0.00    +0.000 A 
ATOM     15  C   UNL     1       3.731   4.949   3.002  0.00  0.00    +0.000 A 
ATOM     16  C   UNL     1       4.106   4.691   1.686  0.00  0.00    +0.000 A 
ATOM     17  C   UNL     1       3.223   4.042   0.821  0.00  0.00    +0.000 A 
ENDBRANCH  10  12
ENDBRANCH   1  10
TORSDOF 3
