MODEL 1
REMARK VINA RESULT:      -4.4      0.000      0.000
REMARK  Name = *****
REMARK  6 active torsions:
REMARK  status: ('A' for Active; 'I' for Inactive)
REMARK    1  A    between atoms: C_1  and  C_2
REMARK    2  A    between atoms: C_2  and  O_4
REMARK    3  A    between atoms: O_4  and  C_5
REMARK    4  A    between atoms: C_5  and  C_6
REMARK    5  A    between atoms: C_5  and  C_13
REMARK    6  A    between atoms: C_6  and  C_7
REMARK                            x       y       z     vdW  Elec       q    Type
REMARK                         _______ _______ _______ _____ _____    ______ ____
ROOT
ATOM      1  C   UNL     1      88.068  70.551  85.662  0.00  0.00    +0.000 C 
ENDROOT
BRANCH   1   2
ATOM      2  C   UNL     1      86.781  71.205  86.134  0.00  0.00    +0.000 A 
ATOM      3  C   UNL     1      86.487  71.269  87.505  0.00  0.00    +0.000 A 
ATOM      4  C   UNL     1      85.313  71.879  87.952  0.00  0.00    +0.000 A 
ATOM      5  C   UNL     1      84.418  72.428  87.037  0.00  0.00    +0.000 A 
ATOM      6  C   UNL     1      84.693  72.368  85.673  0.00  0.00    +0.000 A 
ATOM      7  C   UNL     1      85.867  71.759  85.222  0.00  0.00    +0.000 A 
ENDBRANCH   1   2
BRANCH   1   8
ATOM      8  O   UNL     1      88.857  71.547  84.981  0.00  0.00    +0.000 OA
BRANCH   8  10
ATOM      9  C   UNL     1      89.258  70.094  83.195  0.00  0.00    +0.000 C 
ATOM     10  C   UNL     1      89.838  71.074  84.168  0.00  0.00    +0.000 C 
ATOM     11  O   UNL     1      91.022  71.380  84.211  0.00  0.00    +0.000 OA
ENDBRANCH   8  10
ENDBRANCH   1   8
BRANCH   1  12
ATOM     12  C   UNL     1      88.881  70.012  86.857  0.00  0.00    +0.000 C 
BRANCH  12  13
ATOM     13  C   UNL     1      88.961  68.501  86.861  0.00  0.00    +0.000 A 
ATOM     14  C   UNL     1      90.055  67.847  86.276  0.00  0.00    +0.000 A 
ATOM     15  C   UNL     1      90.117  66.453  86.259  0.00  0.00    +0.000 A 
ATOM     16  C   UNL     1      89.089  65.701  86.822  0.00  0.00    +0.000 A 
ATOM     17  C   UNL     1      87.995  66.341  87.402  0.00  0.00    +0.000 A 
ATOM     18  C   UNL     1      87.931  67.735  87.423  0.00  0.00    +0.000 A 
ENDBRANCH  12  13
ENDBRANCH   1  12
TORSDOF 5
ENDMDL
