MODEL 1
REMARK VINA RESULT:      -4.3      0.000      0.000
REMARK  Name = *****
REMARK  3 active torsions:
REMARK  status: ('A' for Active; 'I' for Inactive)
REMARK    1  A    between atoms: C_1  and  C_2
REMARK    2  A    between atoms: C_2  and  C_11
REMARK    3  A    between atoms: N_3  and  C_4
REMARK                            x       y       z     vdW  Elec       q    Type
REMARK                         _______ _______ _______ _____ _____    ______ ____
ROOT
ATOM      1  C   UNL     1     103.519 127.344  80.196  0.00  0.00    +0.000 C 
ATOM      2  C   UNL     1     103.565 126.068  81.011  0.00  0.00    +0.000 C 
ATOM      3  N   UNL     1     102.856 125.841  82.080  0.00  0.00    +0.000 NA
ENDROOT
BRANCH   3   4
ATOM      4  C   UNL     1     101.969 126.807  82.561  0.00  0.00    +0.000 A 
ATOM      5  C   UNL     1     100.589 126.655  82.386  0.00  0.00    +0.000 A 
ATOM      6  C   UNL     1      99.704 127.610  82.891  0.00  0.00    +0.000 A 
ATOM      7  C   UNL     1     100.200 128.711  83.586  0.00  0.00    +0.000 A 
ATOM      8  C   UNL     1     101.571 128.862  83.786  0.00  0.00    +0.000 A 
ATOM      9  C   UNL     1     102.453 127.904  83.278  0.00  0.00    +0.000 A 
ATOM     10 CL   UNL     1      99.112 129.890  84.209  0.00  0.00    +0.000 Cl
ENDBRANCH   3   4
BRANCH   2  11
ATOM     11  C   UNL     1     104.426 124.963  80.562  0.00  0.00    +0.000 A 
ATOM     12  C   UNL     1     104.384 123.693  81.115  0.00  0.00    +0.000 A 
ATOM     13  S   UNL     1     105.494 122.606  80.403  0.00  0.00    +0.000 S 
ATOM     14  C   UNL     1     106.055 123.806  79.327  0.00  0.00    +0.000 A 
ATOM     15  C   UNL     1     105.409 125.009  79.513  0.00  0.00    +0.000 A 
ENDBRANCH   2  11
TORSDOF 2
ENDMDL
