MODEL 1
REMARK VINA RESULT:      -4.6      0.000      0.000
REMARK  Name = *****
REMARK  3 active torsions:
REMARK  status: ('A' for Active; 'I' for Inactive)
REMARK    1  A    between atoms: C_3  and  C_8
REMARK    2  A    between atoms: C_8  and  N_10
REMARK    3  A    between atoms: N_10  and  C_11
REMARK                            x       y       z     vdW  Elec       q    Type
REMARK                         _______ _______ _______ _____ _____    ______ ____
ROOT
ATOM      1  C   UNL     1      87.716  63.376  85.833  0.00  0.00    +0.000 C 
ATOM      2  S   UNL     1      86.553  63.406  84.625  0.00  0.00    +0.000 S 
ENDROOT
BRANCH   1   5
ATOM      3  C   UNL     1      91.293  64.388  85.158  0.00  0.00    +0.000 A 
ATOM      4  C   UNL     1      90.134  63.620  85.276  0.00  0.00    +0.000 A 
ATOM      5  C   UNL     1      88.938  64.223  85.692  0.00  0.00    +0.000 A 
ATOM      6  C   UNL     1      88.901  65.587  85.998  0.00  0.00    +0.000 A 
ATOM      7  C   UNL     1      90.065  66.343  85.875  0.00  0.00    +0.000 A 
ATOM      8  C   UNL     1      91.259  65.751  85.458  0.00  0.00    +0.000 A 
ATOM      9 CL   UNL     1      90.035  68.022  86.250  0.00  0.00    +0.000 Cl
ENDBRANCH   1   5
BRANCH   1  10
ATOM     10  N   UNL     1      87.713  62.684  87.038  0.00  0.00    +0.000 N 
ATOM     11  H   UNL     1      87.790  61.708  86.935  0.00  0.00    +0.000 HD
BRANCH  10  12
ATOM     12  C   UNL     1      87.618  63.109  88.385  0.00  0.00    +0.000 A 
ATOM     13  C   UNL     1      88.694  63.439  89.206  0.00  0.00    +0.000 A 
ATOM     14  C   UNL     1      88.469  63.870  90.513  0.00  0.00    +0.000 A 
ATOM     15  C   UNL     1      87.184  63.987  91.027  0.00  0.00    +0.000 A 
ATOM     16  C   UNL     1      86.100  63.676  90.216  0.00  0.00    +0.000 A 
ATOM     17  C   UNL     1      86.319  63.246  88.903  0.00  0.00    +0.000 A 
ATOM     18  F   UNL     1      89.513  64.190  91.289  0.00  0.00    +0.000 F 
ENDBRANCH  10  12
ENDBRANCH   1  10
TORSDOF 3
ENDMDL
