MODEL 1
REMARK VINA RESULT:      -4.8      0.000      0.000
REMARK  Name = *****
REMARK  4 active torsions:
REMARK  status: ('A' for Active; 'I' for Inactive)
REMARK    1  A    between atoms: C_1  and  C_2
REMARK    2  A    between atoms: C_4  and  O_10
REMARK    3  A    between atoms: C_6  and  C_9
REMARK    4  A    between atoms: O_10  and  C_11
REMARK                            x       y       z     vdW  Elec       q    Type
REMARK                         _______ _______ _______ _____ _____    ______ ____
ROOT
ATOM      1  C   UNL     1     102.543 129.709  84.339  0.00  0.00    +0.000 C 
ATOM      2  C   UNL     1     101.735 128.649  83.643  0.00  0.00    +0.000 A 
ATOM      3  C   UNL     1     102.404 127.622  82.963  0.00  0.00    +0.000 A 
ATOM      4  C   UNL     1     101.677 126.619  82.327  0.00  0.00    +0.000 A 
ATOM      5  C   UNL     1     100.285 126.637  82.314  0.00  0.00    +0.000 A 
ATOM      6  C   UNL     1      99.590 127.656  82.981  0.00  0.00    +0.000 A 
ATOM      7  C   UNL     1     100.323 128.660  83.648  0.00  0.00    +0.000 A 
ATOM      8 CL   UNL     1      99.479 129.934  84.473  0.00  0.00    +0.000 Cl
ATOM      9  C   UNL     1      98.086 127.652  82.955  0.00  0.00    +0.000 C 
ENDROOT
BRANCH   4  10
ATOM     10  O   UNL     1     102.309 125.613  81.576  0.00  0.00    +0.000 OA
BRANCH  10  11
ATOM     11  C   UNL     1     103.331 125.983  80.700  0.00  0.00    +0.000 C 
ATOM     12  O   UNL     1     103.346 127.033  80.066  0.00  0.00    +0.000 OA
ATOM     13  N   UNL     1     104.333 125.022  80.617  0.00  0.00    +0.000 N 
ATOM     14  C   UNL     1     105.530 125.328  79.844  0.00  0.00    +0.000 C 
ATOM     15  C   UNL     1     106.076 124.089  79.139  0.00  0.00    +0.000 C 
ATOM     16  C   UNL     1     106.265 122.932  80.114  0.00  0.00    +0.000 C 
ATOM     17  C   UNL     1     104.967 122.646  80.863  0.00  0.00    +0.000 C 
ATOM     18  C   UNL     1     104.427 123.899  81.547  0.00  0.00    +0.000 C 
ENDBRANCH  10  11
ENDBRANCH   4  10
TORSDOF 2
ENDMDL
