REMARK  Name = *****
REMARK  3 active torsions:
REMARK  status: ('A' for Active; 'I' for Inactive)
REMARK    1  A    between atoms: C_4  and  C_7
REMARK    2  A    between atoms: C_8  and  S_9
REMARK    3  A    between atoms: S_9  and  C_10
REMARK                            x       y       z     vdW  Elec       q    Type
REMARK                         _______ _______ _______ _____ _____    ______ ____
ROOT
ATOM      1  C   UNL     1      -2.530   0.853  -0.824  0.00  0.00    +0.000 C 
ATOM      2  C   UNL     1      -3.477   0.096  -1.398  0.00  0.00    +0.000 C 
ENDROOT
BRANCH   1   6
ATOM      3  C   UNL     1       1.087  -0.606   0.933  0.00  0.00    +0.000 A 
ATOM      4  C   UNL     1       0.593  -1.211  -0.221  0.00  0.00    +0.000 A 
ATOM      5  C   UNL     1      -0.591  -0.750  -0.802  0.00  0.00    +0.000 A 
ATOM      6  C   UNL     1      -1.299   0.315  -0.228  0.00  0.00    +0.000 A 
ATOM      7  C   UNL     1      -0.782   0.926   0.922  0.00  0.00    +0.000 A 
ATOM      8  C   UNL     1       0.402   0.464   1.503  0.00  0.00    +0.000 A 
ENDBRANCH   1   6
BRANCH   2   9
ATOM      9  S   UNL     1      -4.906   0.812  -2.070  0.00  0.00    +0.000 S 
BRANCH   9  10
ATOM     10  C   UNL     1      -5.635  -0.641  -2.801  0.00  0.00    +0.000 A 
ATOM     11  C   UNL     1      -5.265  -1.042  -4.091  0.00  0.00    +0.000 A 
ATOM     12  C   UNL     1      -5.841  -2.177  -4.664  0.00  0.00    +0.000 A 
ATOM     13  C   UNL     1      -6.787  -2.902  -3.948  0.00  0.00    +0.000 A 
ATOM     14  C   UNL     1      -7.170  -2.512  -2.670  0.00  0.00    +0.000 A 
ATOM     15  C   UNL     1      -6.595  -1.376  -2.095  0.00  0.00    +0.000 A 
ATOM     16  F   UNL     1      -7.339  -3.991  -4.498  0.00  0.00    +0.000 F 
ENDBRANCH   9  10
ENDBRANCH   2   9
TORSDOF 3
