MODEL 1
REMARK VINA RESULT:      -4.7      0.000      0.000
REMARK  Name = *****
REMARK  6 active torsions:
REMARK  status: ('A' for Active; 'I' for Inactive)
REMARK    1  A    between atoms: C_1  and  C_2
REMARK    2  A    between atoms: C_4  and  C_20
REMARK    3  A    between atoms: C_5  and  C_8
REMARK    4  A    between atoms: C_8  and  C_9
REMARK    5  A    between atoms: C_9  and  C_10
REMARK    6  A    between atoms: C_10  and  C_12
REMARK                            x       y       z     vdW  Elec       q    Type
REMARK                         _______ _______ _______ _____ _____    ______ ____
ROOT
ATOM      1  C   UNL     1      89.517  68.475  86.744  0.00  0.00    +0.000 C 
ENDROOT
BRANCH   1   2
ATOM      2  C   UNL     1      88.337  67.580  86.435  0.00  0.00    +0.000 C 
ATOM      3  O   UNL     1      87.699  67.633  85.388  0.00  0.00    +0.000 OA
BRANCH   2   4
ATOM      4  C   UNL     1      88.034  66.494  87.387  0.00  0.00    +0.000 A 
ATOM      5  C   UNL     1      87.010  66.593  88.335  0.00  0.00    +0.000 A 
ATOM      6  C   UNL     1      86.778  65.532  89.213  0.00  0.00    +0.000 A 
ATOM      7  C   UNL     1      87.563  64.386  89.127  0.00  0.00    +0.000 A 
ATOM      8  C   UNL     1      88.570  64.272  88.175  0.00  0.00    +0.000 A 
ATOM      9  C   UNL     1      88.806  65.327  87.295  0.00  0.00    +0.000 A 
ATOM     10  F   UNL     1      87.337  63.372  89.971  0.00  0.00    +0.000 F 
ATOM     11 CL   UNL     1      85.975  67.969  88.443  0.00  0.00    +0.000 Cl
ENDBRANCH   2   4
ENDBRANCH   1   2
BRANCH   1  12
ATOM     12  C   UNL     1      89.213  69.924  86.371  0.00  0.00    +0.000 C 
BRANCH  12  17
ATOM     13  C   UNL     1      85.463  72.167  90.238  0.00  0.00    +0.000 C 
ATOM     14  C   UNL     1      86.431  71.627  89.227  0.00  0.00    +0.000 A 
ATOM     15  C   UNL     1      86.082  71.561  87.874  0.00  0.00    +0.000 A 
ATOM     16  C   UNL     1      86.961  71.028  86.914  0.00  0.00    +0.000 A 
ATOM     17  C   UNL     1      88.218  70.544  87.329  0.00  0.00    +0.000 A 
ATOM     18  C   UNL     1      88.555  70.597  88.692  0.00  0.00    +0.000 A 
ATOM     19  C   UNL     1      87.671  71.129  89.631  0.00  0.00    +0.000 A 
ATOM     20  C   UNL     1      86.528  70.992  85.475  0.00  0.00    +0.000 C 
ENDBRANCH  12  17
ENDBRANCH   1  12
TORSDOF 4
ENDMDL
