REMARK  Name = *****
REMARK  4 active torsions:
REMARK  status: ('A' for Active; 'I' for Inactive)
REMARK    1  A    between atoms: C_1  and  C_2
REMARK    2  A    between atoms: C_3  and  C_4
REMARK    3  A    between atoms: C_3  and  S_10
REMARK    4  A    between atoms: S_10  and  C_11
REMARK                            x       y       z     vdW  Elec       q    Type
REMARK                         _______ _______ _______ _____ _____    ______ ____
ROOT
ATOM      1  C   UNL     1       1.062   0.153  -0.090  0.00  0.00    +0.000 C 
ATOM      2  C   UNL     1       2.550  -0.003  -0.101  0.00  0.00    +0.000 C 
ATOM      3  C   UNL     1       3.289  -0.803   0.688  0.00  0.00    +0.000 C 
ENDROOT
BRANCH   3   4
ATOM      4  C   UNL     1       2.713  -1.691   1.711  0.00  0.00    +0.000 A 
ATOM      5  C   UNL     1       2.535  -3.056   1.448  0.00  0.00    +0.000 A 
ATOM      6  C   UNL     1       1.977  -3.894   2.414  0.00  0.00    +0.000 A 
ATOM      7  C   UNL     1       1.590  -3.375   3.649  0.00  0.00    +0.000 A 
ATOM      8  C   UNL     1       1.758  -2.018   3.919  0.00  0.00    +0.000 A 
ATOM      9  C   UNL     1       2.315  -1.178   2.954  0.00  0.00    +0.000 A 
ENDBRANCH   3   4
BRANCH   3  10
ATOM     10  S   UNL     1       5.017  -0.892   0.488  0.00  0.00    +0.000 S 
BRANCH  10  11
ATOM     11  C   UNL     1       5.515   0.054   1.917  0.00  0.00    +0.000 A 
ATOM     12  C   UNL     1       5.952  -0.602   3.073  0.00  0.00    +0.000 A 
ATOM     13  C   UNL     1       6.346   0.132   4.193  0.00  0.00    +0.000 A 
ATOM     14  C   UNL     1       6.312   1.526   4.161  0.00  0.00    +0.000 A 
ATOM     15  C   UNL     1       5.887   2.186   3.009  0.00  0.00    +0.000 A 
ATOM     16  C   UNL     1       5.492   1.452   1.888  0.00  0.00    +0.000 A 
ENDBRANCH  10  11
ENDBRANCH   3  10
TORSDOF 3
