REMARK  Name = *****
REMARK  2 active torsions:
REMARK  status: ('A' for Active; 'I' for Inactive)
REMARK    1  A    between atoms: C_5  and  C_6
REMARK    2  A    between atoms: C_6  and  C_8
REMARK                            x       y       z     vdW  Elec       q    Type
REMARK                         _______ _______ _______ _____ _____    ______ ____
ROOT
ATOM      1  C   UNL     1      -1.551   3.133   0.074  0.00  0.00    +0.000 C 
ATOM      2  O   UNL     1      -2.678   2.767   0.379  0.00  0.00    +0.000 OA
ENDROOT
BRANCH   1   3
ATOM      3  C   UNL     1      -1.322   4.560  -0.249  0.00  0.00    +0.000 A 
ATOM      4  C   UNL     1      -2.235   5.161  -1.128  0.00  0.00    +0.000 A 
ATOM      5  C   UNL     1      -2.085   6.499  -1.494  0.00  0.00    +0.000 A 
ATOM      6  C   UNL     1      -1.030   7.247  -0.974  0.00  0.00    +0.000 A 
ATOM      7  C   UNL     1      -0.133   6.660  -0.079  0.00  0.00    +0.000 A 
ATOM      8  C   UNL     1      -0.277   5.319   0.293  0.00  0.00    +0.000 A 
ATOM      9 CL   UNL     1       0.836   4.696   1.458  0.00  0.00    +0.000 Cl
ENDBRANCH   1   3
BRANCH   1  14
ATOM     10  C   UNL     1       0.969  -1.190   1.262  0.00  0.00    +0.000 C 
ATOM     11  C   UNL     1      -0.520  -1.389   1.476  0.00  0.00    +0.000 C 
ATOM     12  S   UNL     1      -1.284   0.255   1.561  0.00  0.00    +0.000 S 
ATOM     13  C   UNL     1      -0.237   0.996   0.389  0.00  0.00    +0.000 C 
ATOM     14  C   UNL     1      -0.410   2.206  -0.162  0.00  0.00    +0.000 C 
ATOM     15  S   UNL     1       1.179   0.061  -0.043  0.00  0.00    +0.000 S 
ENDBRANCH   1  14
TORSDOF 2
