REMARK  Name = *****
REMARK  3 active torsions:
REMARK  status: ('A' for Active; 'I' for Inactive)
REMARK    1  A    between atoms: C_5  and  C_7
REMARK    2  A    between atoms: C_8  and  C_9
REMARK    3  A    between atoms: C_12  and  C_15
REMARK                            x       y       z     vdW  Elec       q    Type
REMARK                         _______ _______ _______ _____ _____    ______ ____
ROOT
ATOM      1  C   UNL     1       0.947  -2.455  -0.001  0.00  0.00    +0.000 C 
ATOM      2  C   UNL     1       2.285  -2.566  -0.011  0.00  0.00    +0.000 C 
ENDROOT
BRANCH   1   7
ATOM      3  C   UNL     1      -1.725   0.079   0.784  0.00  0.00    +0.000 A 
ATOM      4  C   UNL     1      -1.278   1.211   0.104  0.00  0.00    +0.000 A 
ATOM      5  C   UNL     1      -0.090   1.156  -0.621  0.00  0.00    +0.000 A 
ATOM      6  C   UNL     1       0.647  -0.027  -0.659  0.00  0.00    +0.000 A 
ATOM      7  C   UNL     1       0.225  -1.172   0.030  0.00  0.00    +0.000 A 
ATOM      8  C   UNL     1      -0.982  -1.106   0.743  0.00  0.00    +0.000 A 
ATOM      9  F   UNL     1       1.773  -0.041  -1.389  0.00  0.00    +0.000 F 
ENDBRANCH   1   7
BRANCH   2  10
ATOM     10  C   UNL     1       3.000  -3.850  -0.021  0.00  0.00    +0.000 A 
ATOM     11  C   UNL     1       2.561  -4.943  -0.781  0.00  0.00    +0.000 A 
ATOM     12  C   UNL     1       3.285  -6.141  -0.789  0.00  0.00    +0.000 A 
ATOM     13  C   UNL     1       4.462  -6.255  -0.045  0.00  0.00    +0.000 A 
ATOM     14  C   UNL     1       4.915  -5.164   0.702  0.00  0.00    +0.000 A 
ATOM     15  C   UNL     1       4.190  -3.968   0.708  0.00  0.00    +0.000 A 
BRANCH  13  16
ATOM     16  C   UNL     1       5.204  -7.481  -0.053  0.00  0.00    +0.000 C 
ATOM     17  N   UNL     1       5.804  -8.475  -0.058  0.00  0.00    +0.000 NA
ENDBRANCH  13  16
ENDBRANCH   2  10
TORSDOF 3
