MODEL 1
REMARK VINA RESULT:      -4.5      0.000      0.000
REMARK  Name = *****
REMARK  3 active torsions:
REMARK  status: ('A' for Active; 'I' for Inactive)
REMARK    1  A    between atoms: C_6  and  C_7
REMARK    2  A    between atoms: C_7  and  O_9
REMARK    3  A    between atoms: O_9  and  C_10
REMARK                            x       y       z     vdW  Elec       q    Type
REMARK                         _______ _______ _______ _____ _____    ______ ____
ROOT
ATOM      1  C   UNL     1      88.106  70.480  87.831  0.00  0.00    +0.000 C 
ATOM      2  O   UNL     1      88.760  70.499  88.862  0.00  0.00    +0.000 OA
ENDROOT
BRANCH   1   8
ATOM      3  C   UNL     1      86.004  71.529  88.798  0.00  0.00    +0.000 A 
ATOM      4  C   UNL     1      84.774  72.168  88.606  0.00  0.00    +0.000 A 
ATOM      5  C   UNL     1      84.326  72.444  87.315  0.00  0.00    +0.000 A 
ATOM      6  C   UNL     1      85.096  72.086  86.211  0.00  0.00    +0.000 A 
ATOM      7  C   UNL     1      86.325  71.447  86.399  0.00  0.00    +0.000 A 
ATOM      8  C   UNL     1      86.788  71.164  87.693  0.00  0.00    +0.000 A 
ATOM      9 CL   UNL     1      82.814  73.230  87.085  0.00  0.00    +0.000 Cl
ENDBRANCH   1   8
BRANCH   1  10
ATOM     10  O   UNL     1      88.435  69.856  86.641  0.00  0.00    +0.000 OA
BRANCH  10  11
ATOM     11  C   UNL     1      88.684  68.484  86.747  0.00  0.00    +0.000 A 
ATOM     12  C   UNL     1      87.713  67.618  87.255  0.00  0.00    +0.000 A 
ATOM     13  C   UNL     1      87.976  66.250  87.292  0.00  0.00    +0.000 A 
ATOM     14  C   UNL     1      89.190  65.770  86.806  0.00  0.00    +0.000 A 
ATOM     15  C   UNL     1      90.148  66.633  86.278  0.00  0.00    +0.000 A 
ATOM     16  C   UNL     1      89.892  68.003  86.241  0.00  0.00    +0.000 A 
ATOM     17  F   UNL     1      89.437  64.454  86.837  0.00  0.00    +0.000 F 
ENDBRANCH  10  11
ENDBRANCH   1  10
TORSDOF 3
ENDMDL
