MODEL 1
REMARK VINA RESULT:      -4.7      0.000      0.000
REMARK  Name = *****
REMARK  1 active torsions:
REMARK  status: ('A' for Active; 'I' for Inactive)
REMARK    1  A    between atoms: C_16  and  C_17
REMARK                            x       y       z     vdW  Elec       q    Type
REMARK                         _______ _______ _______ _____ _____    ______ ____
ROOT
ATOM      1  C   UNL     1     101.992 125.922  83.195  0.00  0.00    +0.000 C 
ATOM      2  C   UNL     1     101.770 127.331  82.620  0.00  0.00    +0.000 C 
ATOM      3  C   UNL     1     103.024 128.157  82.495  0.00  0.00    +0.000 A 
ATOM      4  C   UNL     1     103.385 128.987  83.572  0.00  0.00    +0.000 A 
ATOM      5  C   UNL     1     104.534 129.774  83.519  0.00  0.00    +0.000 A 
ATOM      6  C   UNL     1     105.339 129.741  82.389  0.00  0.00    +0.000 A 
ATOM      7  C   UNL     1     104.999 128.916  81.316  0.00  0.00    +0.000 A 
ATOM      8  C   UNL     1     103.852 128.100  81.354  0.00  0.00    +0.000 A 
ATOM      9  C   UNL     1     103.566 127.240  80.136  0.00  0.00    +0.000 C 
ATOM     10  C   UNL     1     103.033 125.811  80.344  0.00  0.00    +0.000 C 
ATOM     11  C   UNL     1     103.720 125.046  81.451  0.00  0.00    +0.000 A 
ATOM     12  C   UNL     1     103.210 125.109  82.773  0.00  0.00    +0.000 A 
ATOM     13  C   UNL     1     103.834 124.348  83.784  0.00  0.00    +0.000 A 
ATOM     14  C   UNL     1     104.958 123.572  83.521  0.00  0.00    +0.000 A 
ATOM     15  C   UNL     1     105.487 123.542  82.238  0.00  0.00    +0.000 A 
ATOM     16  C   UNL     1     104.884 124.276  81.207  0.00  0.00    +0.000 A 
ENDROOT
BRANCH  16  17
ATOM     17  C   UNL     1     105.536 124.207  79.874  0.00  0.00    +0.000 C 
ATOM     18  O   UNL     1     106.359 125.037  79.500  0.00  0.00    +0.000 OA
ENDBRANCH  16  17
TORSDOF 1
ENDMDL
