MODEL 1
REMARK VINA RESULT:      -4.7      0.000      0.000
REMARK  Name = *****
REMARK  1 active torsions:
REMARK  status: ('A' for Active; 'I' for Inactive)
REMARK    1  A    between atoms: N_8  and  C_13
REMARK                            x       y       z     vdW  Elec       q    Type
REMARK                         _______ _______ _______ _____ _____    ______ ____
ROOT
ATOM      1  C   UNL     1      86.446  64.451  90.079  0.00  0.00    +0.000 C 
ATOM      2  C   UNL     1      86.653  63.136  89.334  0.00  0.00    +0.000 C 
ATOM      3  C   UNL     1      87.937  63.152  88.512  0.00  0.00    +0.000 C 
ATOM      4  C   UNL     1      87.981  64.349  87.565  0.00  0.00    +0.000 C 
ATOM      5  C   UNL     1      87.806  65.670  88.327  0.00  0.00    +0.000 C 
ATOM      6  C   UNL     1      86.504  65.653  89.138  0.00  0.00    +0.000 C 
ATOM      7  C   UNL     1      87.841  66.862  87.357  0.00  0.00    +0.000 C 
ATOM      8  N   UNL     1      89.140  66.932  86.675  0.00  0.00    +0.000 N 
ATOM      9  P   UNL     1      89.423  65.547  85.818  0.00  0.00    +0.000 P 
ATOM     10  O   UNL     1      88.625  65.242  84.581  0.00  0.00    +0.000 OA
ATOM     11  O   UNL     1      89.236  64.356  86.904  0.00  0.00    +0.000 OA
ATOM     12 CL   UNL     1      91.382  65.355  85.420  0.00  0.00    +0.000 Cl
ENDROOT
BRANCH   8  13
ATOM     13  C   UNL     1      89.410  68.218  86.152  0.00  0.00    +0.000 A 
ATOM     14  C   UNL     1      89.399  69.332  87.008  0.00  0.00    +0.000 A 
ATOM     15  C   UNL     1      89.681  70.617  86.534  0.00  0.00    +0.000 A 
ATOM     16  C   UNL     1      89.986  70.809  85.191  0.00  0.00    +0.000 A 
ATOM     17  C   UNL     1      90.013  69.718  84.327  0.00  0.00    +0.000 A 
ATOM     18  C   UNL     1      89.732  68.433  84.804  0.00  0.00    +0.000 A 
ENDBRANCH   8  13
TORSDOF 1
ENDMDL
