REMARK  Name = *****
REMARK  4 active torsions:
REMARK  status: ('A' for Active; 'I' for Inactive)
REMARK    1  A    between atoms: C_1  and  C_2
REMARK    2  A    between atoms: C_4  and  C_8
REMARK    3  A    between atoms: C_8  and  O_10
REMARK    4  A    between atoms: O_10  and  C_11
REMARK                            x       y       z     vdW  Elec       q    Type
REMARK                         _______ _______ _______ _____ _____    ______ ____
ROOT
ATOM      1  C   UNL     1      -2.050   2.503   0.117  0.00  0.00    +0.000 C 
ATOM      2  O   UNL     1      -3.265   2.471   0.234  0.00  0.00    +0.000 OA
ENDROOT
BRANCH   1   6
ATOM      3  C   UNL     1       2.455   0.226  -0.260  0.00  0.00    +0.000 C 
ATOM      4  C   UNL     1       0.962   0.171  -0.114  0.00  0.00    +0.000 A 
ATOM      5  C   UNL     1       0.198   1.346  -0.072  0.00  0.00    +0.000 A 
ATOM      6  C   UNL     1      -1.197   1.285   0.068  0.00  0.00    +0.000 A 
ATOM      7  C   UNL     1      -1.825   0.036   0.165  0.00  0.00    +0.000 A 
ATOM      8  C   UNL     1      -1.069  -1.136   0.125  0.00  0.00    +0.000 A 
ATOM      9  C   UNL     1       0.317  -1.068  -0.014  0.00  0.00    +0.000 A 
ENDBRANCH   1   6
BRANCH   1  10
ATOM     10  O   UNL     1      -1.291   3.623   0.015  0.00  0.00    +0.000 OA
BRANCH  10  11
ATOM     11  C   UNL     1      -2.013   4.855   0.043  0.00  0.00    +0.000 C 
ATOM     12  C   UNL     1      -2.644   5.186  -1.305  0.00  0.00    +0.000 C 
ATOM     13  C   UNL     1      -2.811   6.701  -1.288  0.00  0.00    +0.000 C 
ATOM     14  C   UNL     1      -1.824   7.227  -0.245  0.00  0.00    +0.000 C 
ATOM     15  C   UNL     1      -1.042   6.013   0.233  0.00  0.00    +0.000 C 
ENDBRANCH  10  11
ENDBRANCH   1  10
TORSDOF 3
