MODEL 1
REMARK VINA RESULT:      -4.4      0.000      0.000
REMARK  Name = *****
REMARK  4 active torsions:
REMARK  status: ('A' for Active; 'I' for Inactive)
REMARK    1  A    between atoms: C_5  and  C_7
REMARK    2  A    between atoms: C_7  and  C_8
REMARK    3  A    between atoms: C_8  and  C_9
REMARK    4  A    between atoms: C_9  and  C_10
REMARK                            x       y       z     vdW  Elec       q    Type
REMARK                         _______ _______ _______ _____ _____    ______ ____
ROOT
ATOM      1  C   UNL     1      87.691  69.845  88.311  0.00  0.00    +0.000 C 
ENDROOT
BRANCH   1   2
ATOM      2  C   UNL     1      89.173  70.087  88.011  0.00  0.00    +0.000 C 
BRANCH   2   7
ATOM      3  C   UNL     1      90.104  70.746  84.271  0.00  0.00    +0.000 C 
ATOM      4  C   UNL     1      90.082  69.323  83.795  0.00  0.00    +0.000 C 
ATOM      5  C   UNL     1      89.816  68.284  84.601  0.00  0.00    +0.000 C 
ATOM      6  C   UNL     1      89.515  68.432  86.067  0.00  0.00    +0.000 C 
ATOM      7  C   UNL     1      89.519  69.866  86.556  0.00  0.00    +0.000 C 
ATOM      8  C   UNL     1      89.782  70.898  85.731  0.00  0.00    +0.000 C 
ENDBRANCH   2   7
ENDBRANCH   1   2
BRANCH   1   9
ATOM      9  C   UNL     1      87.006  71.137  88.764  0.00  0.00    +0.000 C 
BRANCH   9  10
ATOM     10  C   UNL     1      85.978  71.605  87.764  0.00  0.00    +0.000 A 
ATOM     11  C   UNL     1      86.227  71.500  86.389  0.00  0.00    +0.000 A 
ATOM     12  C   UNL     1      85.283  71.948  85.464  0.00  0.00    +0.000 A 
ATOM     13  C   UNL     1      84.085  72.509  85.904  0.00  0.00    +0.000 A 
ATOM     14  C   UNL     1      83.831  72.624  87.269  0.00  0.00    +0.000 A 
ATOM     15  C   UNL     1      84.774  72.177  88.197  0.00  0.00    +0.000 A 
ENDBRANCH   9  10
ENDBRANCH   1   9
TORSDOF 4
ENDMDL
