MODEL 1
REMARK VINA RESULT:      -4.1      0.000      0.000
REMARK  Name = *****
REMARK  3 active torsions:
REMARK  status: ('A' for Active; 'I' for Inactive)
REMARK    1  A    between atoms: C_4  and  O_6
REMARK    2  A    between atoms: O_6  and  C_7
REMARK    3  A    between atoms: C_7  and  C_9
REMARK                            x       y       z     vdW  Elec       q    Type
REMARK                         _______ _______ _______ _____ _____    ______ ____
ROOT
ATOM      1  C   UNL     1     101.669 126.055  83.496  0.00  0.00    +0.000 C 
ATOM      2  O   UNL     1     101.911 125.366  84.475  0.00  0.00    +0.000 OA
ENDROOT
BRANCH   1   3
ATOM      3  C   UNL     1     100.995 127.381  83.573  0.00  0.00    +0.000 A 
ATOM      4  C   UNL     1      99.717 127.508  83.006  0.00  0.00    +0.000 A 
ATOM      5  C   UNL     1      99.046 128.732  83.053  0.00  0.00    +0.000 A 
ATOM      6  C   UNL     1      99.651 129.823  83.666  0.00  0.00    +0.000 A 
ATOM      7  C   UNL     1     100.916 129.715  84.233  0.00  0.00    +0.000 A 
ATOM      8  C   UNL     1     101.592 128.493  84.188  0.00  0.00    +0.000 A 
ATOM      9  F   UNL     1      99.007 130.996  83.712  0.00  0.00    +0.000 F 
ENDBRANCH   1   3
BRANCH   1  10
ATOM     10  O   UNL     1     101.963 125.746  82.210  0.00  0.00    +0.000 OA
BRANCH  10  14
ATOM     11  C   UNL     1     103.589 126.991  80.073  0.00  0.00    +0.000 C 
ATOM     12  C   UNL     1     104.025 127.718  81.344  0.00  0.00    +0.000 C 
ATOM     13  C   UNL     1     104.224 126.637  82.405  0.00  0.00    +0.000 C 
ATOM     14  C   UNL     1     103.348 125.480  81.938  0.00  0.00    +0.000 C 
ATOM     15  C   UNL     1     103.550 125.506  80.427  0.00  0.00    +0.000 C 
ENDBRANCH  10  14
ENDBRANCH   1  10
TORSDOF 3
ENDMDL
