MODEL 1
REMARK VINA RESULT:      -4.4      0.000      0.000
REMARK  Name = *****
REMARK  5 active torsions:
REMARK  status: ('A' for Active; 'I' for Inactive)
REMARK    1  A    between atoms: C_1  and  N_2
REMARK    2  A    between atoms: N_2  and  C_3
REMARK    3  A    between atoms: N_2  and  C_4
REMARK    4  A    between atoms: C_9  and  C_10
REMARK    5  A    between atoms: C_11  and  C_12
REMARK                            x       y       z     vdW  Elec       q    Type
REMARK                         _______ _______ _______ _____ _____    ______ ____
ROOT
ATOM      1  C   UNL     1      89.484  68.664  85.596  0.00  0.00    +0.000 A 
ATOM      2  C   UNL     1      89.749  68.544  84.218  0.00  0.00    +0.000 A 
ATOM      3  C   UNL     1      90.128  69.647  83.450  0.00  0.00    +0.000 A 
ATOM      4  C   UNL     1      90.248  70.900  84.042  0.00  0.00    +0.000 A 
ATOM      5  C   UNL     1      89.994  71.047  85.404  0.00  0.00    +0.000 A 
ATOM      6  C   UNL     1      89.627  69.944  86.195  0.00  0.00    +0.000 A 
ENDROOT
BRANCH   1   8
ATOM      7  C   UNL     1      90.125  66.478  86.274  0.00  0.00    +0.000 C 
ATOM      8  N   UNL     1      89.122  67.543  86.384  0.00  0.00    +0.000 N 
ATOM      9  C   UNL     1      87.741  67.083  86.257  0.00  0.00    +0.000 C 
ENDBRANCH   1   8
BRANCH   6  10
ATOM     10  C   UNL     1      89.300  70.146  87.621  0.00  0.00    +0.000 C 
ATOM     11  C   UNL     1      88.125  70.623  88.065  0.00  0.00    +0.000 C 
BRANCH  11  12
ATOM     12  C   UNL     1      87.842  70.846  89.492  0.00  0.00    +0.000 A 
ATOM     13  C   UNL     1      88.542  71.848  90.185  0.00  0.00    +0.000 A 
ATOM     14  C   UNL     1      88.320  72.068  91.547  0.00  0.00    +0.000 A 
ATOM     15  C   UNL     1      87.400  71.286  92.239  0.00  0.00    +0.000 A 
ATOM     16  C   UNL     1      86.703  70.279  91.570  0.00  0.00    +0.000 A 
ATOM     17  C   UNL     1      86.924  70.057  90.206  0.00  0.00    +0.000 A 
ATOM     18 CL   UNL     1      86.014  68.794  89.448  0.00  0.00    +0.000 Cl
ENDBRANCH  11  12
ENDBRANCH   6  10
TORSDOF 3
ENDMDL
