MODEL 1
REMARK VINA RESULT:      -5.2      0.000      0.000
REMARK  Name = *****
REMARK  3 active torsions:
REMARK  status: ('A' for Active; 'I' for Inactive)
REMARK    1  A    between atoms: C_4  and  C_7
REMARK    2  A    between atoms: C_8  and  C_9
REMARK    3  A    between atoms: C_11  and  C_15
REMARK                            x       y       z     vdW  Elec       q    Type
REMARK                         _______ _______ _______ _____ _____    ______ ____
ROOT
ATOM      1  C   UNL     1     103.874 124.965  80.916  0.00  0.00    +0.000 A 
ATOM      2  C   UNL     1     104.165 123.684  81.393  0.00  0.00    +0.000 A 
ATOM      3  C   UNL     1     105.197 122.925  80.816  0.00  0.00    +0.000 A 
ATOM      4  C   UNL     1     105.940 123.480  79.762  0.00  0.00    +0.000 A 
ATOM      5  C   UNL     1     105.648 124.760  79.286  0.00  0.00    +0.000 A 
ATOM      6  C   UNL     1     104.616 125.500  79.862  0.00  0.00    +0.000 A 
ENDROOT
BRANCH   3   7
ATOM      7  C   UNL     1     105.528 121.552  81.344  0.00  0.00    +0.000 C 
ATOM      8  F   UNL     1     106.641 121.010  80.776  0.00  0.00    +0.000 F 
ATOM      9  F   UNL     1     105.754 121.539  82.688  0.00  0.00    +0.000 F 
ATOM     10  F   UNL     1     104.524 120.658  81.126  0.00  0.00    +0.000 F 
ENDBRANCH   3   7
BRANCH   1  12
ATOM     11  C   UNL     1     101.934 126.367  82.007  0.00  0.00    +0.000 C 
ATOM     12  C   UNL     1     102.819 125.726  81.509  0.00  0.00    +0.000 C 
BRANCH  11  16
ATOM     13  C   UNL     1      98.797 128.482  84.053  0.00  0.00    +0.000 C 
ATOM     14  C   UNL     1     100.042 129.274  83.668  0.00  0.00    +0.000 C 
ATOM     15  C   UNL     1     101.232 128.343  83.420  0.00  0.00    +0.000 C 
ATOM     16  C   UNL     1     100.880 127.131  82.593  0.00  0.00    +0.000 C 
ATOM     17  C   UNL     1      99.606 126.760  82.382  0.00  0.00    +0.000 C 
ATOM     18  C   UNL     1      98.423 127.480  82.960  0.00  0.00    +0.000 C 
ENDBRANCH  11  16
ENDBRANCH   1  12
TORSDOF 3
ENDMDL
