MODEL 1
REMARK VINA RESULT:      -4.6      0.000      0.000
REMARK  Name = *****
REMARK  4 active torsions:
REMARK  status: ('A' for Active; 'I' for Inactive)
REMARK    1  A    between atoms: C_1  and  N_2
REMARK    2  A    between atoms: N_2  and  C_3
REMARK    3  A    between atoms: C_3  and  C_4
REMARK    4  A    between atoms: C_10  and  C_12
REMARK                            x       y       z     vdW  Elec       q    Type
REMARK                         _______ _______ _______ _____ _____    ______ ____
ROOT
ATOM      1  C   UNL     1      88.662  72.812  83.800  0.00  0.00    +0.000 C 
ATOM      2  N   UNL     1      88.582  71.431  84.247  0.00  0.00    +0.000 N 
ATOM      3  C   UNL     1      89.775  70.748  84.481  0.00  0.00    +0.000 C 
ATOM      4  O   UNL     1      90.892  71.230  84.316  0.00  0.00    +0.000 OA
ENDROOT
BRANCH   3   5
ATOM      5  C   UNL     1      89.715  69.346  84.930  0.00  0.00    +0.000 A 
ATOM      6  C   UNL     1      89.632  69.026  86.291  0.00  0.00    +0.000 A 
ATOM      7  C   UNL     1      89.578  67.687  86.683  0.00  0.00    +0.000 A 
ATOM      8  C   UNL     1      89.633  66.681  85.718  0.00  0.00    +0.000 A 
ATOM      9  C   UNL     1      89.752  66.996  84.364  0.00  0.00    +0.000 A 
ATOM     10  C   UNL     1      89.802  68.332  83.967  0.00  0.00    +0.000 A 
ATOM     11 CL   UNL     1      89.558  65.031  86.202  0.00  0.00    +0.000 Cl
ATOM     12 CL   UNL     1      89.584  70.232  87.526  0.00  0.00    +0.000 Cl
ENDBRANCH   3   5
BRANCH   2  13
ATOM     13  C   UNL     1      87.253  70.814  84.232  0.00  0.00    +0.000 C 
BRANCH  13  14
ATOM     14  C   UNL     1      86.284  71.399  85.231  0.00  0.00    +0.000 A 
ATOM     15  C   UNL     1      85.128  72.072  84.814  0.00  0.00    +0.000 A 
ATOM     16  C   UNL     1      84.238  72.601  85.751  0.00  0.00    +0.000 A 
ATOM     17  C   UNL     1      84.486  72.451  87.114  0.00  0.00    +0.000 A 
ATOM     18  C   UNL     1      85.621  71.768  87.542  0.00  0.00    +0.000 A 
ATOM     19  C   UNL     1      86.513  71.239  86.608  0.00  0.00    +0.000 A 
ENDBRANCH  13  14
ENDBRANCH   2  13
TORSDOF 3
ENDMDL
