MODEL 1
REMARK VINA RESULT:      -5.2      0.000      0.000
REMARK  Name = *****
REMARK  4 active torsions:
REMARK  status: ('A' for Active; 'I' for Inactive)
REMARK    1  A    between atoms: C_4  and  C_7
REMARK    2  A    between atoms: C_7  and  C_8
REMARK    3  A    between atoms: C_8  and  C_10
REMARK    4  A    between atoms: C_13  and  C_16
REMARK                            x       y       z     vdW  Elec       q    Type
REMARK                         _______ _______ _______ _____ _____    ______ ____
ROOT
ATOM      1  C   UNL     1     103.770 125.728  81.738  0.00  0.00    +0.000 A 
ATOM      2  C   UNL     1     103.837 124.915  82.875  0.00  0.00    +0.000 A 
ATOM      3  C   UNL     1     104.235 123.577  82.762  0.00  0.00    +0.000 A 
ATOM      4  C   UNL     1     104.569 123.028  81.515  0.00  0.00    +0.000 A 
ATOM      5  C   UNL     1     104.507 123.849  80.380  0.00  0.00    +0.000 A 
ATOM      6  C   UNL     1     104.112 125.186  80.492  0.00  0.00    +0.000 A 
ENDROOT
BRANCH   4   7
ATOM      7  C   UNL     1     105.004 121.588  81.383  0.00  0.00    +0.000 C 
ATOM      8  F   UNL     1     106.145 121.429  80.656  0.00  0.00    +0.000 F 
ATOM      9  F   UNL     1     105.247 121.005  82.590  0.00  0.00    +0.000 F 
ATOM     10  F   UNL     1     104.063 120.815  80.775  0.00  0.00    +0.000 F 
ENDBRANCH   4   7
BRANCH   1  11
ATOM     11  C   UNL     1     103.349 127.163  81.790  0.00  0.00    +0.000 C 
ATOM     12  O   UNL     1     103.510 127.870  80.794  0.00  0.00    +0.000 OA
BRANCH  11  13
ATOM     13  C   UNL     1     102.721 127.726  83.053  0.00  0.00    +0.000 C 
BRANCH  13  17
ATOM     14  C   UNL     1      98.409 127.875  82.911  0.00  0.00    +0.000 A 
ATOM     15  C   UNL     1      99.121 128.934  83.469  0.00  0.00    +0.000 A 
ATOM     16  C   UNL     1     100.516 128.890  83.521  0.00  0.00    +0.000 A 
ATOM     17  C   UNL     1     101.212 127.777  83.029  0.00  0.00    +0.000 A 
ATOM     18  C   UNL     1     100.485 126.727  82.450  0.00  0.00    +0.000 A 
ATOM     19  C   UNL     1      99.090 126.774  82.397  0.00  0.00    +0.000 A 
ENDBRANCH  13  17
ENDBRANCH  11  13
ENDBRANCH   1  11
TORSDOF 4
ENDMDL
