MODEL 1
REMARK VINA RESULT:      -4.4      0.000      0.000
REMARK  Name = *****
REMARK  2 active torsions:
REMARK  status: ('A' for Active; 'I' for Inactive)
REMARK    1  A    between atoms: N_9  and  C_10
REMARK    2  A    between atoms: C_10  and  C_11
REMARK                            x       y       z     vdW  Elec       q    Type
REMARK                         _______ _______ _______ _____ _____    ______ ____
ROOT
ATOM      1  C   UNL     1      89.549  65.764  86.351  0.00  0.00    +0.000 A 
ATOM      2  C   UNL     1      90.185  66.970  86.050  0.00  0.00    +0.000 A 
ATOM      3  C   UNL     1      89.661  68.196  86.473  0.00  0.00    +0.000 A 
ATOM      4  C   UNL     1      88.473  68.156  87.214  0.00  0.00    +0.000 A 
ATOM      5  C   UNL     1      87.820  66.966  87.520  0.00  0.00    +0.000 A 
ATOM      6  C   UNL     1      88.358  65.746  87.087  0.00  0.00    +0.000 A 
ATOM      7  N   UNL     1      86.685  67.233  88.235  0.00  0.00    +0.000 NA
ATOM      8  N   UNL     1      86.593  68.546  88.387  0.00  0.00    +0.000 NA
ATOM      9  N   UNL     1      87.673  69.104  87.799  0.00  0.00    +0.000 N 
ENDROOT
BRANCH   9  10
ATOM     10  C   UNL     1      87.824  70.549  87.777  0.00  0.00    +0.000 C 
BRANCH  10  11
ATOM     11  C   UNL     1      86.647  71.237  87.121  0.00  0.00    +0.000 A 
ATOM     12  C   UNL     1      85.599  71.780  87.890  0.00  0.00    +0.000 A 
ATOM     13  C   UNL     1      84.490  72.383  87.286  0.00  0.00    +0.000 A 
ATOM     14  C   UNL     1      84.399  72.454  85.900  0.00  0.00    +0.000 A 
ATOM     15  C   UNL     1      85.422  71.926  85.119  0.00  0.00    +0.000 A 
ATOM     16  C   UNL     1      86.534  71.324  85.719  0.00  0.00    +0.000 A 
ATOM     17 CL   UNL     1      87.754  70.720  84.652  0.00  0.00    +0.000 Cl
ATOM     18 CL   UNL     1      85.622  71.759  89.619  0.00  0.00    +0.000 Cl
ENDBRANCH  10  11
ENDBRANCH   9  10
TORSDOF 2
ENDMDL
