REMARK  Name = *****
REMARK  1 active torsions:
REMARK  status: ('A' for Active; 'I' for Inactive)
REMARK    1  A    between atoms: C_4  and  C_7
REMARK                            x       y       z     vdW  Elec       q    Type
REMARK                         _______ _______ _______ _____ _____    ______ ____
ROOT
ATOM      1  C   UNL     1      -3.060   0.425  -0.402  0.00  0.00    +0.000 A 
ATOM      2  C   UNL     1      -3.643   1.595  -0.691  0.00  0.00    +0.000 A 
ATOM      3  C   UNL     1      -5.081   1.842  -0.582  0.00  0.00    +0.000 A 
ATOM      4  C   UNL     1      -5.558   3.131  -0.877  0.00  0.00    +0.000 A 
ATOM      5  C   UNL     1      -6.920   3.428  -0.798  0.00  0.00    +0.000 A 
ATOM      6  C   UNL     1      -7.825   2.441  -0.425  0.00  0.00    +0.000 A 
ATOM      7  C   UNL     1      -7.366   1.158  -0.131  0.00  0.00    +0.000 A 
ATOM      8  C   UNL     1      -5.995   0.850  -0.206  0.00  0.00    +0.000 A 
ATOM      9  C   UNL     1      -5.581  -0.537   0.121  0.00  0.00    +0.000 A 
ATOM     10  O   UNL     1      -6.429  -1.382   0.390  0.00  0.00    +0.000 OA
ATOM     11  S   UNL     1      -3.888  -0.979   0.142  0.00  0.00    +0.000 S 
ENDROOT
BRANCH   1  15
ATOM     12  C   UNL     1       1.179   0.078  -0.824  0.00  0.00    +0.000 A 
ATOM     13  C   UNL     1       0.638   0.698   0.302  0.00  0.00    +0.000 A 
ATOM     14  C   UNL     1      -0.747   0.805   0.444  0.00  0.00    +0.000 A 
ATOM     15  C   UNL     1      -1.602   0.290  -0.541  0.00  0.00    +0.000 A 
ATOM     16  C   UNL     1      -1.048  -0.328  -1.671  0.00  0.00    +0.000 A 
ATOM     17  C   UNL     1       0.337  -0.434  -1.810  0.00  0.00    +0.000 A 
ENDBRANCH   1  15
TORSDOF 1
