MODEL 1
REMARK VINA RESULT:      -4.8      0.000      0.000
REMARK  Name = *****
REMARK  3 active torsions:
REMARK  status: ('A' for Active; 'I' for Inactive)
REMARK    1  A    between atoms: C_2  and  C_3
REMARK    2  A    between atoms: C_6  and  C_8
REMARK    3  A    between atoms: C_9  and  C_10
REMARK                            x       y       z     vdW  Elec       q    Type
REMARK                         _______ _______ _______ _____ _____    ______ ____
ROOT
ATOM      1  C   UNL     1      89.708  69.031  86.725  0.00  0.00    +0.000 C 
ATOM      2  C   UNL     1      89.022  67.879  86.795  0.00  0.00    +0.000 C 
ENDROOT
BRANCH   2   3
ATOM      3  C   UNL     1      89.573  66.572  86.414  0.00  0.00    +0.000 A 
ATOM      4  C   UNL     1      88.910  65.370  86.704  0.00  0.00    +0.000 A 
ATOM      5  C   UNL     1      89.451  64.146  86.299  0.00  0.00    +0.000 A 
ATOM      6  C   UNL     1      90.647  64.126  85.594  0.00  0.00    +0.000 A 
ATOM      7  C   UNL     1      91.312  65.305  85.282  0.00  0.00    +0.000 A 
ATOM      8  C   UNL     1      90.772  66.528  85.687  0.00  0.00    +0.000 A 
ATOM      9  F   UNL     1      91.164  62.953  85.204  0.00  0.00    +0.000 F 
ENDBRANCH   2   3
BRANCH   1  13
ATOM     10  C   UNL     1      86.727  70.752  86.908  0.00  0.00    +0.000 C 
ATOM     11  C   UNL     1      87.157  71.095  88.332  0.00  0.00    +0.000 C 
ATOM     12  C   UNL     1      88.454  70.313  88.493  0.00  0.00    +0.000 C 
ATOM     13  C   UNL     1      89.132  70.367  87.114  0.00  0.00    +0.000 C 
ATOM     14  C   UNL     1      88.044  70.840  86.130  0.00  0.00    +0.000 C 
BRANCH  10  16
ATOM     15  C   UNL     1      84.782  72.315  87.147  0.00  0.00    +0.000 C 
ATOM     16  C   UNL     1      85.667  71.671  86.376  0.00  0.00    +0.000 C 
ENDBRANCH  10  16
ENDBRANCH   1  13
TORSDOF 3
ENDMDL
