MODEL 1
REMARK VINA RESULT:      -4.0      0.000      0.000
REMARK  Name = *****
REMARK  3 active torsions:
REMARK  status: ('A' for Active; 'I' for Inactive)
REMARK    1  A    between atoms: C_4  and  C_7
REMARK    2  A    between atoms: C_7  and  C_8
REMARK    3  A    between atoms: C_9  and  N_10
REMARK                            x       y       z     vdW  Elec       q    Type
REMARK                         _______ _______ _______ _____ _____    ______ ____
ROOT
ATOM      1  C   UNL     1      88.879  66.051  86.946  0.00  0.00    +0.000 C 
ATOM      2  C   UNL     1      88.563  64.762  87.119  0.00  0.00    +0.000 C 
ENDROOT
BRANCH   2   3
ATOM      3  N   UNL     1      87.652  64.179  87.984  0.00  0.00    +0.000 N 
ATOM      4  C   UNL     1      87.394  64.758  89.313  0.00  0.00    +0.000 C 
ATOM      5  C   UNL     1      87.398  63.659  90.373  0.00  0.00    +0.000 C 
ATOM      6  C   UNL     1      86.407  62.552  90.025  0.00  0.00    +0.000 C 
ATOM      7  C   UNL     1      86.665  62.021  88.618  0.00  0.00    +0.000 C 
ATOM      8  C   UNL     1      86.680  63.151  87.588  0.00  0.00    +0.000 C 
ENDBRANCH   2   3
BRANCH   1   9
ATOM      9  C   UNL     1      89.885  66.534  85.937  0.00  0.00    +0.000 C 
BRANCH   9  13
ATOM     10  C   UNL     1      89.151  70.847  85.618  0.00  0.00    +0.000 C 
ATOM     11  C   UNL     1      89.342  70.258  87.010  0.00  0.00    +0.000 C 
ATOM     12  C   UNL     1      89.174  68.740  87.012  0.00  0.00    +0.000 C 
ATOM     13  C   UNL     1      90.105  68.059  85.992  0.00  0.00    +0.000 C 
ATOM     14  C   UNL     1      89.903  68.667  84.594  0.00  0.00    +0.000 C 
ATOM     15  C   UNL     1      90.072  70.184  84.601  0.00  0.00    +0.000 C 
ENDBRANCH   9  13
ENDBRANCH   1   9
TORSDOF 3
ENDMDL
