MODEL 1
REMARK VINA RESULT:      -5.1      0.000      0.000
REMARK  Name = *****
REMARK  5 active torsions:
REMARK  status: ('A' for Active; 'I' for Inactive)
REMARK    1  A    between atoms: C_1  and  C_2
REMARK    2  A    between atoms: C_2  and  C_3
REMARK    3  A    between atoms: C_2  and  C_9
REMARK    4  A    between atoms: C_9  and  C_10
REMARK    5  A    between atoms: C_9  and  C_11
REMARK                            x       y       z     vdW  Elec       q    Type
REMARK                         _______ _______ _______ _____ _____    ______ ____
ROOT
ATOM      1  C   UNL     1     103.575 128.590  82.865  0.00  0.00    +0.000 C 
ATOM      2  C   UNL     1     102.703 127.346  82.631  0.00  0.00    +0.000 C 
ENDROOT
BRANCH   2   3
ATOM      3  C   UNL     1     101.216 127.608  82.862  0.00  0.00    +0.000 A 
ATOM      4  C   UNL     1     100.738 128.751  83.520  0.00  0.00    +0.000 A 
ATOM      5  C   UNL     1      99.368 128.955  83.695  0.00  0.00    +0.000 A 
ATOM      6  C   UNL     1      98.453 128.022  83.212  0.00  0.00    +0.000 A 
ATOM      7  C   UNL     1      98.909 126.885  82.551  0.00  0.00    +0.000 A 
ATOM      8  C   UNL     1     100.279 126.680  82.376  0.00  0.00    +0.000 A 
ENDBRANCH   2   3
BRANCH   2   9
ATOM      9  C   UNL     1     102.946 126.642  81.257  0.00  0.00    +0.000 C 
ATOM     10  C   UNL     1     103.666 127.517  80.219  0.00  0.00    +0.000 C 
BRANCH   9  11
ATOM     11  C   UNL     1     103.604 125.277  81.446  0.00  0.00    +0.000 A 
ATOM     12  C   UNL     1     103.644 124.713  82.733  0.00  0.00    +0.000 A 
ATOM     13  C   UNL     1     104.248 123.474  82.955  0.00  0.00    +0.000 A 
ATOM     14  C   UNL     1     104.823 122.779  81.896  0.00  0.00    +0.000 A 
ATOM     15  C   UNL     1     104.798 123.325  80.615  0.00  0.00    +0.000 A 
ATOM     16  C   UNL     1     104.195 124.565  80.391  0.00  0.00    +0.000 A 
ENDBRANCH   9  11
ENDBRANCH   2   9
TORSDOF 3
ENDMDL
