MODEL 1
REMARK VINA RESULT:      -4.1      0.000      0.000
REMARK  Name = *****
REMARK  4 active torsions:
REMARK  status: ('A' for Active; 'I' for Inactive)
REMARK    1  A    between atoms: C_1  and  C_2
REMARK    2  A    between atoms: C_7  and  C_8
REMARK    3  A    between atoms: C_8  and  C_16
REMARK    4  A    between atoms: N_9  and  C_10
REMARK                            x       y       z     vdW  Elec       q    Type
REMARK                         _______ _______ _______ _____ _____    ______ ____
ROOT
ATOM      1  C   UNL     1     101.435 126.667  84.406  0.00  0.00    +0.000 C 
ATOM      2  N   UNL     1     102.485 126.234  83.773  0.00  0.00    +0.000 NA
ATOM      3  C   UNL     1     100.864 125.791  85.497  0.00  0.00    +0.000 C 
ENDROOT
BRANCH   1  10
ATOM      4  C   UNL     1      99.223 126.828  82.416  0.00  0.00    +0.000 C 
ATOM      5  C   UNL     1      99.681 128.020  83.205  0.00  0.00    +0.000 A 
ATOM      6  C   UNL     1      99.083 129.268  82.979  0.00  0.00    +0.000 A 
ATOM      7  C   UNL     1      99.496 130.399  83.687  0.00  0.00    +0.000 A 
ATOM      8  C   UNL     1     100.521 130.304  84.627  0.00  0.00    +0.000 A 
ATOM      9  C   UNL     1     101.139 129.076  84.856  0.00  0.00    +0.000 A 
ATOM     10  C   UNL     1     100.721 127.943  84.150  0.00  0.00    +0.000 A 
ENDBRANCH   1  10
BRANCH   2  11
ATOM     11  C   UNL     1     103.071 126.996  82.754  0.00  0.00    +0.000 A 
ATOM     12  C   UNL     1     103.930 128.061  83.045  0.00  0.00    +0.000 A 
ATOM     13  C   UNL     1     104.522 128.796  82.017  0.00  0.00    +0.000 A 
ATOM     14  C   UNL     1     104.273 128.458  80.687  0.00  0.00    +0.000 A 
ATOM     15  C   UNL     1     103.442 127.381  80.386  0.00  0.00    +0.000 A 
ATOM     16  C   UNL     1     102.850 126.649  81.419  0.00  0.00    +0.000 A 
ENDBRANCH   2  11
TORSDOF 2
ENDMDL
