MODEL 1
REMARK VINA RESULT:      -5.1      0.000      0.000
REMARK  Name = *****
REMARK  2 active torsions:
REMARK  status: ('A' for Active; 'I' for Inactive)
REMARK    1  A    between atoms: C_8  and  C_9
REMARK    2  A    between atoms: C_10  and  C_11
REMARK                            x       y       z     vdW  Elec       q    Type
REMARK                         _______ _______ _______ _____ _____    ______ ____
ROOT
ATOM      1  C   UNL     1     102.114 126.029  82.034  0.00  0.00    +0.000 C 
ATOM      2  C   UNL     1     103.121 126.246  81.172  0.00  0.00    +0.000 C 
ENDROOT
BRANCH   1  10
ATOM      3  C   UNL     1      99.139 128.816  83.430  0.00  0.00    +0.000 C 
ATOM      4  C   UNL     1      98.520 127.714  82.547  0.00  0.00    +0.000 C 
ATOM      5  C   UNL     1      97.539 127.186  83.585  0.00  0.00    +0.000 C 
ATOM      6  C   UNL     1      98.160 127.246  84.779  0.00  0.00    +0.000 C 
ATOM      7  C   UNL     1      99.551 127.814  84.526  0.00  0.00    +0.000 C 
ATOM      8  C   UNL     1     100.369 126.771  83.749  0.00  0.00    +0.000 C 
ATOM      9  C   UNL     1      99.669 126.702  82.407  0.00  0.00    +0.000 C 
ATOM     10  C   UNL     1     101.144 127.042  82.475  0.00  0.00    +0.000 C 
ENDBRANCH   1  10
BRANCH   2  11
ATOM     11  C   UNL     1     104.078 125.219  80.742  0.00  0.00    +0.000 A 
ATOM     12  C   UNL     1     104.938 125.412  79.652  0.00  0.00    +0.000 A 
ATOM     13  C   UNL     1     105.811 124.395  79.261  0.00  0.00    +0.000 A 
ATOM     14  C   UNL     1     105.834 123.178  79.939  0.00  0.00    +0.000 A 
ATOM     15  C   UNL     1     104.971 122.974  81.014  0.00  0.00    +0.000 A 
ATOM     16  C   UNL     1     104.094 123.987  81.409  0.00  0.00    +0.000 A 
ATOM     17 BR   UNL     1     106.970 124.670  77.792  0.00  0.00    +0.000 Br
ENDBRANCH   2  11
TORSDOF 2
ENDMDL
