MODEL 1
REMARK VINA RESULT:      -4.6      0.000      0.000
REMARK  Name = *****
REMARK  3 active torsions:
REMARK  status: ('A' for Active; 'I' for Inactive)
REMARK    1  A    between atoms: C_4  and  N_7
REMARK    2  A    between atoms: N_7  and  S_8
REMARK    3  A    between atoms: S_8  and  C_10
REMARK                            x       y       z     vdW  Elec       q    Type
REMARK                         _______ _______ _______ _____ _____    ______ ____
ROOT
ATOM      1  S   UNL     1      88.942  70.387  86.553  0.00  0.00    +0.000 S 
ATOM      2  O   UNL     1      90.148  70.774  85.754  0.00  0.00    +0.000 OA
ENDROOT
BRANCH   1   3
ATOM      3  C   UNL     1      88.972  68.582  86.670  0.00  0.00    +0.000 A 
ATOM      4  C   UNL     1      90.029  67.868  86.094  0.00  0.00    +0.000 A 
ATOM      5  C   UNL     1      90.060  66.471  86.177  0.00  0.00    +0.000 A 
ATOM      6  C   UNL     1      89.033  65.783  86.836  0.00  0.00    +0.000 A 
ATOM      7  C   UNL     1      87.980  66.498  87.414  0.00  0.00    +0.000 A 
ATOM      8  C   UNL     1      87.951  67.892  87.332  0.00  0.00    +0.000 A 
ATOM      9 CL   UNL     1      89.008  64.062  86.969  0.00  0.00    +0.000 Cl
ATOM     10 CL   UNL     1      91.391  65.658  85.436  0.00  0.00    +0.000 Cl
ENDBRANCH   1   3
BRANCH   1  11
ATOM     11  N   UNL     1      89.229  70.595  88.187  0.00  0.00    +0.000 N 
ATOM     12  H   UNL     1      90.099  70.310  88.550  0.00  0.00    +0.000 HD
BRANCH  11  16
ATOM     13  C   UNL     1      86.267  72.162  90.779  0.00  0.00    +0.000 A 
ATOM     14  C   UNL     1      87.582  72.066  91.227  0.00  0.00    +0.000 A 
ATOM     15  C   UNL     1      88.578  71.559  90.385  0.00  0.00    +0.000 A 
ATOM     16  C   UNL     1      88.285  71.160  89.074  0.00  0.00    +0.000 A 
ATOM     17  C   UNL     1      86.945  71.234  88.656  0.00  0.00    +0.000 A 
ATOM     18  C   UNL     1      85.947  71.740  89.494  0.00  0.00    +0.000 A 
ENDBRANCH  11  16
ENDBRANCH   1  11
TORSDOF 3
ENDMDL
