MODEL 1
REMARK VINA RESULT:      -4.5      0.000      0.000
REMARK  Name = *****
REMARK  4 active torsions:
REMARK  status: ('A' for Active; 'I' for Inactive)
REMARK    1  A    between atoms: C_4  and  C_7
REMARK    2  A    between atoms: C_7  and  N_8
REMARK    3  A    between atoms: N_8  and  C_9
REMARK    4  A    between atoms: N_8  and  N_16
REMARK                            x       y       z     vdW  Elec       q    Type
REMARK                         _______ _______ _______ _____ _____    ______ ____
ROOT
ATOM      1  N   UNL     1     103.393 126.766  81.665  0.00  0.00    +0.000 N 
ENDROOT
BRANCH   1   2
ATOM      2  C   UNL     1     103.840 125.407  81.645  0.00  0.00    +0.000 A 
ATOM      3  C   UNL     1     103.857 124.641  82.835  0.00  0.00    +0.000 A 
ATOM      4  C   UNL     1     104.283 123.307  82.862  0.00  0.00    +0.000 A 
ATOM      5  C   UNL     1     104.703 122.694  81.691  0.00  0.00    +0.000 A 
ATOM      6  C   UNL     1     104.696 123.405  80.498  0.00  0.00    +0.000 A 
ATOM      7  C   UNL     1     104.270 124.742  80.479  0.00  0.00    +0.000 A 
ATOM      8 CL   UNL     1     105.227 121.057  81.713  0.00  0.00    +0.000 Cl
ENDBRANCH   1   2
BRANCH   1   9
ATOM      9  N   UNL     1     103.368 127.486  80.504  0.00  0.00    +0.000 NA
ATOM     10  O   UNL     1     104.180 128.414  80.462  0.00  0.00    +0.000 OA
ENDBRANCH   1   9
BRANCH   1  11
ATOM     11  C   UNL     1     102.892 127.295  82.959  0.00  0.00    +0.000 C 
BRANCH  11  15
ATOM     12  C   UNL     1      98.625 128.035  82.936  0.00  0.00    +0.000 A 
ATOM     13  C   UNL     1      99.484 128.983  83.486  0.00  0.00    +0.000 A 
ATOM     14  C   UNL     1     100.862 128.754  83.504  0.00  0.00    +0.000 A 
ATOM     15  C   UNL     1     101.396 127.565  82.987  0.00  0.00    +0.000 A 
ATOM     16  C   UNL     1     100.517 126.628  82.416  0.00  0.00    +0.000 A 
ATOM     17  C   UNL     1      99.140 126.859  82.398  0.00  0.00    +0.000 A 
ENDBRANCH  11  15
ENDBRANCH   1  11
TORSDOF 4
ENDMDL
