MODEL 1
REMARK VINA RESULT:      -4.7      0.000      0.000
REMARK  Name = *****
REMARK  5 active torsions:
REMARK  status: ('A' for Active; 'I' for Inactive)
REMARK    1  A    between atoms: C_1  and  O_2
REMARK    2  A    between atoms: O_2  and  C_3
REMARK    3  A    between atoms: C_5  and  C_17
REMARK    4  A    between atoms: C_6  and  C_9
REMARK    5  A    between atoms: C_10  and  C_11
REMARK                            x       y       z     vdW  Elec       q    Type
REMARK                         _______ _______ _______ _____ _____    ______ ____
ROOT
ATOM      1  C   UNL     1      90.158  70.259  82.951  0.00  0.00    +0.000 A 
ATOM      2  C   UNL     1      90.211  69.567  84.162  0.00  0.00    +0.000 A 
ATOM      3  C   UNL     1      89.331  69.882  85.221  0.00  0.00    +0.000 A 
ATOM      4  C   UNL     1      88.392  70.917  85.050  0.00  0.00    +0.000 A 
ATOM      5  C   UNL     1      88.341  71.603  83.828  0.00  0.00    +0.000 A 
ATOM      6  C   UNL     1      89.219  71.276  82.793  0.00  0.00    +0.000 A 
ENDROOT
BRANCH   3   7
ATOM      7  C   UNL     1      89.429  69.116  86.519  0.00  0.00    +0.000 C 
ATOM      8  F   UNL     1      88.255  68.521  86.883  0.00  0.00    +0.000 F 
ATOM      9  F   UNL     1      90.345  68.109  86.479  0.00  0.00    +0.000 F 
ATOM     10  F   UNL     1      89.774  69.903  87.577  0.00  0.00    +0.000 F 
ENDBRANCH   3   7
BRANCH   1  12
ATOM     11  C   UNL     1      92.116  70.853  81.737  0.00  0.00    +0.000 C 
ATOM     12  O   UNL     1      90.955  70.041  81.863  0.00  0.00    +0.000 OA
ENDBRANCH   1  12
BRANCH   4  13
ATOM     13  C   UNL     1      87.442  71.281  86.109  0.00  0.00    +0.000 C 
ATOM     14  C   UNL     1      86.175  71.636  85.844  0.00  0.00    +0.000 C 
BRANCH  14  15
ATOM     15  C   UNL     1      85.209  72.012  86.883  0.00  0.00    +0.000 A 
ATOM     16  C   UNL     1      85.484  71.845  88.247  0.00  0.00    +0.000 A 
ATOM     17  C   UNL     1      84.554  72.242  89.212  0.00  0.00    +0.000 A 
ATOM     18  C   UNL     1      83.345  72.815  88.822  0.00  0.00    +0.000 A 
ATOM     19  C   UNL     1      83.068  73.000  87.469  0.00  0.00    +0.000 A 
ATOM     20  C   UNL     1      83.998  72.606  86.504  0.00  0.00    +0.000 A 
ENDBRANCH  14  15
ENDBRANCH   4  13
TORSDOF 4
ENDMDL
