MODEL 1
REMARK VINA RESULT:      -5.1      0.000      0.000
REMARK  Name = *****
REMARK  2 active torsions:
REMARK  status: ('A' for Active; 'I' for Inactive)
REMARK    1  A    between atoms: C_6  and  N_7
REMARK    2  A    between atoms: C_8  and  C_9
REMARK                            x       y       z     vdW  Elec       q    Type
REMARK                         _______ _______ _______ _____ _____    ______ ____
ROOT
ATOM      1  N   UNL     1     102.861 126.458  81.491  0.00  0.00    +0.000 NA
ATOM      2  C   UNL     1     101.866 126.182  82.275  0.00  0.00    +0.000 C 
ENDROOT
BRANCH   1   8
ATOM      3  C   UNL     1     103.838 124.304  82.018  0.00  0.00    +0.000 A 
ATOM      4  C   UNL     1     104.673 123.234  81.690  0.00  0.00    +0.000 A 
ATOM      5  C   UNL     1     105.362 123.253  80.483  0.00  0.00    +0.000 A 
ATOM      6  C   UNL     1     105.225 124.327  79.613  0.00  0.00    +0.000 A 
ATOM      7  C   UNL     1     104.394 125.396  79.935  0.00  0.00    +0.000 A 
ATOM      8  C   UNL     1     103.685 125.382  81.137  0.00  0.00    +0.000 A 
ATOM      9  F   UNL     1     105.895 124.344  78.452  0.00  0.00    +0.000 F 
ATOM     10  F   UNL     1     106.163 122.226  80.167  0.00  0.00    +0.000 F 
ENDBRANCH   1   8
BRANCH   2  11
ATOM     11  C   UNL     1     100.925 127.223  82.719  0.00  0.00    +0.000 A 
ATOM     12  C   UNL     1      99.565 127.060  82.454  0.00  0.00    +0.000 A 
ATOM     13  C   UNL     1      98.642 128.024  82.858  0.00  0.00    +0.000 A 
ATOM     14  C   UNL     1      99.087 129.159  83.534  0.00  0.00    +0.000 A 
ATOM     15  C   UNL     1     100.447 129.316  83.796  0.00  0.00    +0.000 A 
ATOM     16  C   UNL     1     101.373 128.360  83.396  0.00  0.00    +0.000 A 
ATOM     17  F   UNL     1     100.866 130.408  84.447  0.00  0.00    +0.000 F 
ATOM     18  F   UNL     1      99.121 125.974  81.805  0.00  0.00    +0.000 F 
ENDBRANCH   2  11
TORSDOF 2
ENDMDL
