REMARK  Name = *****
REMARK  4 active torsions:
REMARK  status: ('A' for Active; 'I' for Inactive)
REMARK    1  A    between atoms: C_1  and  C_2
REMARK    2  A    between atoms: C_5  and  O_8
REMARK    3  A    between atoms: O_8  and  C_9
REMARK    4  A    between atoms: C_9  and  C_10
REMARK                            x       y       z     vdW  Elec       q    Type
REMARK                         _______ _______ _______ _____ _____    ______ ____
ROOT
ATOM      1  O   UNL     1      -3.131   0.166  -0.011  0.00  0.00    +0.000 OA
ENDROOT
BRANCH   1   6
ATOM      2  C   UNL     1       2.381  -1.065   0.566  0.00  0.00    +0.000 C 
ATOM      3  C   UNL     1       0.936  -0.710   0.383  0.00  0.00    +0.000 A 
ATOM      4  C   UNL     1       0.552   0.617   0.160  0.00  0.00    +0.000 A 
ATOM      5  C   UNL     1      -0.799   0.957   0.018  0.00  0.00    +0.000 A 
ATOM      6  C   UNL     1      -1.782  -0.028   0.108  0.00  0.00    +0.000 A 
ATOM      7  C   UNL     1      -1.402  -1.349   0.354  0.00  0.00    +0.000 A 
ATOM      8  C   UNL     1      -0.055  -1.690   0.494  0.00  0.00    +0.000 A 
ENDBRANCH   1   6
BRANCH   1   9
ATOM      9  C   UNL     1      -3.566   1.465  -0.410  0.00  0.00    +0.000 C 
BRANCH   9  10
ATOM     10  C   UNL     1      -5.068   1.506  -0.618  0.00  0.00    +0.000 A 
ATOM     11  C   UNL     1      -5.856   0.344  -0.644  0.00  0.00    +0.000 A 
ATOM     12  C   UNL     1      -7.233   0.424  -0.859  0.00  0.00    +0.000 A 
ATOM     13  C   UNL     1      -7.826   1.664  -1.056  0.00  0.00    +0.000 A 
ATOM     14  C   UNL     1      -7.068   2.828  -1.043  0.00  0.00    +0.000 A 
ATOM     15  C   UNL     1      -5.691   2.750  -0.826  0.00  0.00    +0.000 A 
ATOM     16  F   UNL     1      -9.147   1.740  -1.266  0.00  0.00    +0.000 F 
ENDBRANCH   9  10
ENDBRANCH   1   9
TORSDOF 3
