MODEL 1
REMARK VINA RESULT:      -4.9      0.000      0.000
REMARK  Name = *****
REMARK  3 active torsions:
REMARK  status: ('A' for Active; 'I' for Inactive)
REMARK    1  A    between atoms: C_1  and  C_2
REMARK    2  A    between atoms: C_5  and  C_8
REMARK    3  A    between atoms: C_9  and  C_10
REMARK                            x       y       z     vdW  Elec       q    Type
REMARK                         _______ _______ _______ _____ _____    ______ ____
ROOT
ATOM      1  C   UNL     1      85.026  61.060  90.747  0.00  0.00    +0.000 C 
ATOM      2  C   UNL     1      85.115  59.721  90.674  0.00  0.00    +0.000 C 
ENDROOT
BRANCH   2   3
ATOM      3  C   UNL     1      84.230  58.706  91.369  0.00  0.00    +0.000 C 
ATOM      4  C   UNL     1      84.369  58.770  92.903  0.00  0.00    +0.000 C 
ATOM      5  C   UNL     1      85.740  58.435  93.482  0.00  0.00    +0.000 C 
ATOM      6  C   UNL     1      86.220  57.020  93.174  0.00  0.00    +0.000 C 
ATOM      7  C   UNL     1      86.703  56.860  91.742  0.00  0.00    +0.000 C 
ATOM      8  C   UNL     1      85.607  56.579  90.741  0.00  0.00    +0.000 C 
ATOM      9  O   UNL     1      85.809  55.781  89.819  0.00  0.00    +0.000 OA
ATOM     10  C   UNL     1      84.259  57.260  90.855  0.00  0.00    +0.000 C 
ENDBRANCH   2   3
BRANCH   1  15
ATOM     11  C   UNL     1      88.564  64.787  88.077  0.00  0.00    +0.000 C 
ATOM     12  C   UNL     1      87.629  63.827  88.752  0.00  0.00    +0.000 A 
ATOM     13  C   UNL     1      87.155  62.701  88.072  0.00  0.00    +0.000 A 
ATOM     14  C   UNL     1      86.309  61.789  88.712  0.00  0.00    +0.000 A 
ATOM     15  C   UNL     1      85.940  61.975  90.049  0.00  0.00    +0.000 A 
ATOM     16  C   UNL     1      86.414  63.106  90.726  0.00  0.00    +0.000 A 
ATOM     17  C   UNL     1      87.261  64.017  90.087  0.00  0.00    +0.000 A 
ENDBRANCH   1  15
TORSDOF 2
ENDMDL
