REMARK  Name = *****
REMARK  6 active torsions:
REMARK  status: ('A' for Active; 'I' for Inactive)
REMARK    1  A    between atoms: C_1  and  C_2
REMARK    2  A    between atoms: C_4  and  C_8
REMARK    3  A    between atoms: C_8  and  O_10
REMARK    4  A    between atoms: O_10  and  C_11
REMARK    5  A    between atoms: C_12  and  C_18
REMARK    6  A    between atoms: C_16  and  C_17
REMARK                            x       y       z     vdW  Elec       q    Type
REMARK                         _______ _______ _______ _____ _____    ______ ____
ROOT
ATOM      1  C   UNL     1      -0.072   3.951  -0.715  0.00  0.00    +0.000 C 
ATOM      2  O   UNL     1       0.638   4.573   0.060  0.00  0.00    +0.000 OA
ENDROOT
BRANCH   1   6
ATOM      3  C   UNL     1      -0.864   0.064  -3.854  0.00  0.00    +0.000 C 
ATOM      4  C   UNL     1       0.037   0.855  -2.951  0.00  0.00    +0.000 A 
ATOM      5  C   UNL     1      -0.450   1.986  -2.279  0.00  0.00    +0.000 A 
ATOM      6  C   UNL     1       0.396   2.747  -1.458  0.00  0.00    +0.000 A 
ATOM      7  C   UNL     1       1.739   2.372  -1.320  0.00  0.00    +0.000 A 
ATOM      8  C   UNL     1       2.232   1.258  -2.000  0.00  0.00    +0.000 A 
ATOM      9  C   UNL     1       1.386   0.507  -2.816  0.00  0.00    +0.000 A 
ENDBRANCH   1   6
BRANCH   1  10
ATOM     10  O   UNL     1      -1.383   4.224  -1.056  0.00  0.00    +0.000 OA
BRANCH  10  11
ATOM     11  C   UNL     1      -1.910   5.349  -0.405  0.00  0.00    +0.000 A 
ATOM     12  C   UNL     1      -1.786   6.609  -1.012  0.00  0.00    +0.000 A 
ATOM     13  C   UNL     1      -2.338   7.717  -0.358  0.00  0.00    +0.000 A 
ATOM     14  C   UNL     1      -3.021   7.560   0.849  0.00  0.00    +0.000 A 
ATOM     15  C   UNL     1      -3.163   6.294   1.420  0.00  0.00    +0.000 A 
ATOM     16  C   UNL     1      -2.622   5.166   0.791  0.00  0.00    +0.000 A 
ATOM     17  C   UNL     1      -2.764   3.811   1.419  0.00  0.00    +0.000 C 
ATOM     18  C   UNL     1      -1.037   6.791  -2.299  0.00  0.00    +0.000 C 
ENDBRANCH  10  11
ENDBRANCH   1  10
TORSDOF 3
