MODEL 1
REMARK VINA RESULT:      -4.4      0.000      0.000
REMARK  Name = *****
REMARK  6 active torsions:
REMARK  status: ('A' for Active; 'I' for Inactive)
REMARK    1  A    between atoms: C_1  and  C_2
REMARK    2  A    between atoms: C_5  and  C_16
REMARK    3  A    between atoms: N_6  and  C_7
REMARK    4  A    between atoms: C_7  and  C_8
REMARK    5  A    between atoms: C_8  and  C_9
REMARK    6  A    between atoms: C_9  and  C_10
REMARK                            x       y       z     vdW  Elec       q    Type
REMARK                         _______ _______ _______ _____ _____    ______ ____
ROOT
ATOM      1  C   UNL     1     104.312 125.268  82.862  0.00  0.00    +0.000 C 
ENDROOT
BRANCH   1   7
ATOM      2  C   UNL     1     104.485 122.574  84.283  0.00  0.00    +0.000 C 
ATOM      3  C   UNL     1     104.608 122.765  82.813  0.00  0.00    +0.000 A 
ATOM      4  C   UNL     1     104.813 121.815  81.831  0.00  0.00    +0.000 A 
ATOM      5  C   UNL     1     104.855 122.480  80.589  0.00  0.00    +0.000 A 
ATOM      6  C   UNL     1     104.677 123.829  80.824  0.00  0.00    +0.000 A 
ATOM      7  N   UNL     1     104.530 123.995  82.188  0.00  0.00    +0.000 N 
ATOM      8  C   UNL     1     104.640 124.949  79.845  0.00  0.00    +0.000 C 
ENDBRANCH   1   7
BRANCH   1   9
ATOM      9  C   UNL     1     102.864 125.444  83.316  0.00  0.00    +0.000 C 
BRANCH   9  10
ATOM     10  C   UNL     1     101.987 125.923  82.160  0.00  0.00    +0.000 C 
BRANCH  10  11
ATOM     11  C   UNL     1     100.987 126.958  82.610  0.00  0.00    +0.000 A 
ATOM     12  C   UNL     1      99.620 126.783  82.351  0.00  0.00    +0.000 A 
ATOM     13  C   UNL     1      98.697 127.750  82.752  0.00  0.00    +0.000 A 
ATOM     14  C   UNL     1      99.130 128.900  83.408  0.00  0.00    +0.000 A 
ATOM     15  C   UNL     1     100.487 129.086  83.664  0.00  0.00    +0.000 A 
ATOM     16  C   UNL     1     101.413 128.121  83.264  0.00  0.00    +0.000 A 
ENDBRANCH  10  11
ENDBRANCH   9  10
ENDBRANCH   1   9
TORSDOF 4
ENDMDL
