MODEL 1
REMARK VINA RESULT:      -4.5      0.000      0.000
REMARK  Name = *****
REMARK  4 active torsions:
REMARK  status: ('A' for Active; 'I' for Inactive)
REMARK    1  A    between atoms: C_1  and  C_2
REMARK    2  A    between atoms: C_4  and  C_9
REMARK    3  A    between atoms: C_5  and  C_8
REMARK    4  A    between atoms: C_11  and  C_12
REMARK                            x       y       z     vdW  Elec       q    Type
REMARK                         _______ _______ _______ _____ _____    ______ ____
ROOT
ATOM      1  C   UNL     1      89.254  70.177  86.940  0.00  0.00    +0.000 C 
ATOM      2  C   UNL     1      89.754  69.758  85.576  0.00  0.00    +0.000 C 
ATOM      3  C   UNL     1      89.525  68.709  86.626  0.00  0.00    +0.000 C 
ENDROOT
BRANCH   1   7
ATOM      4  C   UNL     1      85.159  72.138  84.723  0.00  0.00    +0.000 C 
ATOM      5  C   UNL     1      85.875  71.754  85.983  0.00  0.00    +0.000 A 
ATOM      6  C   UNL     1      87.150  71.173  85.921  0.00  0.00    +0.000 A 
ATOM      7  C   UNL     1      87.869  70.790  87.071  0.00  0.00    +0.000 A 
ATOM      8  C   UNL     1      87.215  70.937  88.318  0.00  0.00    +0.000 A 
ATOM      9  C   UNL     1      85.935  71.516  88.383  0.00  0.00    +0.000 A 
ATOM     10  C   UNL     1      85.270  71.918  87.226  0.00  0.00    +0.000 A 
ATOM     11  C   UNL     1      87.867  70.510  89.606  0.00  0.00    +0.000 C 
ENDBRANCH   1   7
BRANCH   3  12
ATOM     12  C   UNL     1      88.424  67.670  86.538  0.00  0.00    +0.000 A 
ATOM     13  C   UNL     1      87.805  67.081  87.653  0.00  0.00    +0.000 A 
ATOM     14  C   UNL     1      86.788  66.129  87.512  0.00  0.00    +0.000 A 
ATOM     15  C   UNL     1      86.360  65.745  86.246  0.00  0.00    +0.000 A 
ATOM     16  C   UNL     1      86.946  66.314  85.122  0.00  0.00    +0.000 A 
ATOM     17  C   UNL     1      87.961  67.264  85.270  0.00  0.00    +0.000 A 
ENDBRANCH   3  12
TORSDOF 2
ENDMDL
