REMARK  Name = *****
REMARK  3 active torsions:
REMARK  status: ('A' for Active; 'I' for Inactive)
REMARK    1  A    between atoms: C_1  and  C_2
REMARK    2  A    between atoms: C_5  and  N_8
REMARK    3  A    between atoms: C_10  and  C_11
REMARK                            x       y       z     vdW  Elec       q    Type
REMARK                         _______ _______ _______ _____ _____    ______ ____
ROOT
ATOM      1  N   UNL     1      -3.166   0.432   0.477  0.00  0.00    +0.000 N 
ATOM      2  C   UNL     1      -3.986   0.400  -0.732  0.00  0.00    +0.000 C 
ATOM      3  C   UNL     1      -3.774   1.693   0.005  0.00  0.00    +0.000 C 
ENDROOT
BRANCH   1   8
ATOM      4  C   UNL     1       2.454  -0.789   0.540  0.00  0.00    +0.000 C 
ATOM      5  C   UNL     1       0.997  -0.436   0.499  0.00  0.00    +0.000 A 
ATOM      6  C   UNL     1       0.187  -0.646   1.617  0.00  0.00    +0.000 A 
ATOM      7  C   UNL     1      -1.177  -0.342   1.567  0.00  0.00    +0.000 A 
ATOM      8  C   UNL     1      -1.774   0.172   0.405  0.00  0.00    +0.000 A 
ATOM      9  C   UNL     1      -0.955   0.356  -0.715  0.00  0.00    +0.000 A 
ATOM     10  C   UNL     1       0.413   0.055  -0.671  0.00  0.00    +0.000 A 
ENDBRANCH   1   8
BRANCH   3  11
ATOM     11  C   UNL     1      -2.983   2.831  -0.587  0.00  0.00    +0.000 A 
ATOM     12  C   UNL     1      -3.210   3.281  -1.899  0.00  0.00    +0.000 A 
ATOM     13  C   UNL     1      -2.493   4.354  -2.438  0.00  0.00    +0.000 A 
ATOM     14  C   UNL     1      -1.537   5.009  -1.668  0.00  0.00    +0.000 A 
ATOM     15  C   UNL     1      -1.302   4.595  -0.361  0.00  0.00    +0.000 A 
ATOM     16  C   UNL     1      -2.024   3.524   0.173  0.00  0.00    +0.000 A 
ENDBRANCH   3  11
TORSDOF 2
