MODEL 1
REMARK VINA RESULT:      -5.0      0.000      0.000
REMARK  Name = *****
REMARK  2 active torsions:
REMARK  status: ('A' for Active; 'I' for Inactive)
REMARK    1  A    between atoms: C_3  and  N_9
REMARK    2  A    between atoms: C_10  and  C_11
REMARK                            x       y       z     vdW  Elec       q    Type
REMARK                         _______ _______ _______ _____ _____    ______ ____
ROOT
ATOM      1  N   UNL     1     102.828 126.085  82.212  0.00  0.00    +0.000 NA
ATOM      2  C   UNL     1     101.752 126.066  82.933  0.00  0.00    +0.000 C 
ENDROOT
BRANCH   1   5
ATOM      3  C   UNL     1     104.512 122.967  83.280  0.00  0.00    +0.000 A 
ATOM      4  C   UNL     1     103.799 124.171  83.299  0.00  0.00    +0.000 A 
ATOM      5  C   UNL     1     103.580 124.899  82.123  0.00  0.00    +0.000 A 
ATOM      6  C   UNL     1     104.070 124.379  80.917  0.00  0.00    +0.000 A 
ATOM      7  C   UNL     1     104.779 123.182  80.899  0.00  0.00    +0.000 A 
ATOM      8  C   UNL     1     105.006 122.473  82.075  0.00  0.00    +0.000 A 
ATOM      9  F   UNL     1     105.253 122.699  79.743  0.00  0.00    +0.000 F 
ATOM     10  F   UNL     1     103.865 125.038  79.765  0.00  0.00    +0.000 F 
ENDBRANCH   1   5
BRANCH   2  11
ATOM     11  C   UNL     1     100.896 127.248  83.115  0.00  0.00    +0.000 A 
ATOM     12  C   UNL     1      99.603 127.209  82.595  0.00  0.00    +0.000 A 
ATOM     13  C   UNL     1      98.737 128.294  82.734  0.00  0.00    +0.000 A 
ATOM     14  C   UNL     1      99.165 129.439  83.402  0.00  0.00    +0.000 A 
ATOM     15  C   UNL     1     100.457 129.490  83.924  0.00  0.00    +0.000 A 
ATOM     16  C   UNL     1     101.316 128.398  83.779  0.00  0.00    +0.000 A 
ATOM     17  F   UNL     1     102.547 128.503  84.299  0.00  0.00    +0.000 F 
ATOM     18  F   UNL     1      99.161 126.122  81.943  0.00  0.00    +0.000 F 
ENDBRANCH   2  11
TORSDOF 2
ENDMDL
