MODEL 1
REMARK VINA RESULT:      -4.4      0.000      0.000
REMARK  Name = *****
REMARK  3 active torsions:
REMARK  status: ('A' for Active; 'I' for Inactive)
REMARK    1  A    between atoms: N_2  and  C_3
REMARK    2  A    between atoms: C_6  and  C_9
REMARK    3  A    between atoms: N_10  and  C_11
REMARK                            x       y       z     vdW  Elec       q    Type
REMARK                         _______ _______ _______ _____ _____    ______ ____
ROOT
ATOM      1  C   UNL     1     105.430 122.815  81.409  0.00  0.00    +0.000 A 
ATOM      2  C   UNL     1     105.047 123.553  80.290  0.00  0.00    +0.000 A 
ATOM      3  C   UNL     1     104.113 124.579  80.442  0.00  0.00    +0.000 A 
ATOM      4  C   UNL     1     103.570 124.848  81.705  0.00  0.00    +0.000 A 
ATOM      5  C   UNL     1     103.959 124.097  82.820  0.00  0.00    +0.000 A 
ATOM      6  C   UNL     1     104.899 123.075  82.673  0.00  0.00    +0.000 A 
ENDROOT
BRANCH   1   8
ATOM      7  C   UNL     1     107.148 120.936  81.138  0.00  0.00    +0.000 C 
ATOM      8  N   UNL     1     106.363 121.797  81.262  0.00  0.00    +0.000 NA
ENDBRANCH   1   8
BRANCH   4   9
ATOM      9  C   UNL     1     102.578 125.928  81.881  0.00  0.00    +0.000 C 
ATOM     10  N   UNL     1     101.760 125.938  82.884  0.00  0.00    +0.000 NA
BRANCH  10  11
ATOM     11  C   UNL     1     100.850 127.004  82.973  0.00  0.00    +0.000 A 
ATOM     12  C   UNL     1      99.520 126.893  82.551  0.00  0.00    +0.000 A 
ATOM     13  C   UNL     1      98.639 127.969  82.686  0.00  0.00    +0.000 A 
ATOM     14  C   UNL     1      99.078 129.161  83.261  0.00  0.00    +0.000 A 
ATOM     15  C   UNL     1     100.393 129.274  83.706  0.00  0.00    +0.000 A 
ATOM     16  C   UNL     1     101.272 128.197  83.563  0.00  0.00    +0.000 A 
ENDBRANCH  10  11
ENDBRANCH   4   9
TORSDOF 3
ENDMDL
