MODEL 1
REMARK VINA RESULT:      -5.1      0.000      0.000
REMARK  Name = *****
REMARK  3 active torsions:
REMARK  status: ('A' for Active; 'I' for Inactive)
REMARK    1  A    between atoms: C_1  and  C_2
REMARK    2  A    between atoms: C_5  and  C_8
REMARK    3  A    between atoms: C_15  and  C_17
REMARK                            x       y       z     vdW  Elec       q    Type
REMARK                         _______ _______ _______ _____ _____    ______ ____
ROOT
ATOM      1  C   UNL     1     102.398 126.221  82.342  0.00  0.00    +0.000 A 
ATOM      2  N   UNL     1     102.610 127.325  83.039  0.00  0.00    +0.000 NA
ATOM      3  C   UNL     1     101.356 127.847  83.221  0.00  0.00    +0.000 A 
ATOM      4  C   UNL     1     100.416 127.028  82.620  0.00  0.00    +0.000 A 
ATOM      5  O   UNL     1     101.076 125.980  82.053  0.00  0.00    +0.000 OA
ATOM      6  C   UNL     1      99.050 127.265  82.616  0.00  0.00    +0.000 A 
ATOM      7  C   UNL     1      98.637 128.429  83.280  0.00  0.00    +0.000 A 
ATOM      8  C   UNL     1      99.556 129.298  83.909  0.00  0.00    +0.000 A 
ATOM      9  C   UNL     1     100.934 129.009  83.882  0.00  0.00    +0.000 A 
ENDROOT
BRANCH   1  14
ATOM     10  C   UNL     1     106.224 122.298  80.481  0.00  0.00    +0.000 C 
ATOM     11  C   UNL     1     105.254 123.336  80.963  0.00  0.00    +0.000 A 
ATOM     12  C   UNL     1     104.849 123.363  82.302  0.00  0.00    +0.000 A 
ATOM     13  C   UNL     1     103.919 124.310  82.741  0.00  0.00    +0.000 A 
ATOM     14  C   UNL     1     103.366 125.243  81.852  0.00  0.00    +0.000 A 
ATOM     15  C   UNL     1     103.766 125.200  80.508  0.00  0.00    +0.000 A 
ATOM     16  C   UNL     1     104.696 124.252  80.067  0.00  0.00    +0.000 A 
ENDBRANCH   1  14
BRANCH   8  17
ATOM     17  C   UNL     1      99.028 130.523  84.597  0.00  0.00    +0.000 C 
ATOM     18  O   UNL     1      99.464 131.609  84.220  0.00  0.00    +0.000 OA
ATOM     19 CL   UNL     1      97.844 130.365  85.878  0.00  0.00    +0.000 Cl
ENDBRANCH   8  17
TORSDOF 2
ENDMDL
