MODEL 1
REMARK VINA RESULT:      -4.9      0.000      0.000
REMARK  Name = *****
REMARK  4 active torsions:
REMARK  status: ('A' for Active; 'I' for Inactive)
REMARK    1  A    between atoms: C_4  and  C_7
REMARK    2  A    between atoms: C_7  and  C_8
REMARK    3  A    between atoms: C_8  and  C_9
REMARK    4  A    between atoms: C_14  and  N_15
REMARK                            x       y       z     vdW  Elec       q    Type
REMARK                         _______ _______ _______ _____ _____    ______ ____
ROOT
ATOM      1  C   UNL     1     105.008 125.644  81.254  0.00  0.00    +0.000 C 
ATOM      2  F   UNL     1     106.035 126.012  80.415  0.00  0.00    +0.000 F 
ATOM      3  F   UNL     1     105.312 126.264  82.443  0.00  0.00    +0.000 F 
ENDROOT
BRANCH   1   4
ATOM      4  C   UNL     1     104.949 124.135  81.439  0.00  0.00    +0.000 A 
ATOM      5  C   UNL     1     104.552 123.622  82.692  0.00  0.00    +0.000 A 
ATOM      6  C   UNL     1     104.417 122.251  82.895  0.00  0.00    +0.000 A 
ATOM      7  C   UNL     1     104.657 121.375  81.844  0.00  0.00    +0.000 A 
ATOM      8  C   UNL     1     105.057 121.871  80.602  0.00  0.00    +0.000 A 
ATOM      9  C   UNL     1     105.263 123.243  80.399  0.00  0.00    +0.000 A 
BRANCH   9  10
ATOM     10  N   UNL     1     105.561 123.692  79.104  0.00  0.00    +0.000 N 
ATOM     11  H   UNL     1     104.833 123.902  78.475  0.00  0.00    +0.000 HD
ATOM     12  H   UNL     1     106.499 123.800  78.824  0.00  0.00    +0.000 HD
ENDBRANCH   9  10
ENDBRANCH   1   4
BRANCH   1  13
ATOM     13  C   UNL     1     103.661 126.222  80.713  0.00  0.00    +0.000 C 
ATOM     14  F   UNL     1     102.990 125.236  80.031  0.00  0.00    +0.000 F 
ATOM     15  F   UNL     1     103.906 127.185  79.770  0.00  0.00    +0.000 F 
BRANCH  13  19
ATOM     16  C   UNL     1     101.195 127.806  83.897  0.00  0.00    +0.000 A 
ATOM     17  C   UNL     1     100.954 126.527  83.400  0.00  0.00    +0.000 A 
ATOM     18  C   UNL     1     101.751 126.014  82.375  0.00  0.00    +0.000 A 
ATOM     19  C   UNL     1     102.798 126.779  81.837  0.00  0.00    +0.000 A 
ATOM     20  C   UNL     1     103.032 128.064  82.348  0.00  0.00    +0.000 A 
ATOM     21  C   UNL     1     102.233 128.575  83.372  0.00  0.00    +0.000 A 
ENDBRANCH  13  19
ENDBRANCH   1  13
TORSDOF 4
ENDMDL
