MODEL 1
REMARK VINA RESULT:      -4.0      0.000      0.000
REMARK  Name = *****
REMARK  3 active torsions:
REMARK  status: ('A' for Active; 'I' for Inactive)
REMARK    1  A    between atoms: C_4  and  C_7
REMARK    2  A    between atoms: C_7  and  S_9
REMARK    3  A    between atoms: S_9  and  C_10
REMARK                            x       y       z     vdW  Elec       q    Type
REMARK                         _______ _______ _______ _____ _____    ______ ____
ROOT
ATOM      1  C   UNL     1      86.816  63.061  88.387  0.00  0.00    +0.000 C 
ATOM      2  O   UNL     1      86.858  61.872  88.078  0.00  0.00    +0.000 OA
ENDROOT
BRANCH   1   6
ATOM      3  C   UNL     1      88.477  64.429  92.113  0.00  0.00    +0.000 A 
ATOM      4  C   UNL     1      89.337  64.015  91.098  0.00  0.00    +0.000 A 
ATOM      5  C   UNL     1      88.824  63.569  89.877  0.00  0.00    +0.000 A 
ATOM      6  C   UNL     1      87.441  63.532  89.660  0.00  0.00    +0.000 A 
ATOM      7  C   UNL     1      86.584  63.963  90.686  0.00  0.00    +0.000 A 
ATOM      8  C   UNL     1      87.099  64.405  91.908  0.00  0.00    +0.000 A 
ENDBRANCH   1   6
BRANCH   1   9
ATOM      9  S   UNL     1      86.222  64.266  87.249  0.00  0.00    +0.000 S 
BRANCH   9  10
ATOM     10  C   UNL     1      87.740  64.923  86.705  0.00  0.00    +0.000 C 
ATOM     11  C   UNL     1      88.553  64.315  85.807  0.00  0.00    +0.000 C 
ATOM     12  S   UNL     1      90.029  65.207  85.419  0.00  0.00    +0.000 S 
ATOM     13  C   UNL     1      89.725  66.586  86.440  0.00  0.00    +0.000 C 
ATOM     14  O   UNL     1      90.485  67.542  86.531  0.00  0.00    +0.000 OA
ATOM     15  S   UNL     1      88.217  66.489  87.314  0.00  0.00    +0.000 S 
ATOM     16  S   UNL     1      88.413  62.806  84.945  0.00  0.00    +0.000 S 
ENDBRANCH   9  10
ENDBRANCH   1   9
TORSDOF 3
ENDMDL
