MODEL 1
REMARK VINA RESULT:      -4.9      0.000      0.000
REMARK  Name = *****
REMARK  4 active torsions:
REMARK  status: ('A' for Active; 'I' for Inactive)
REMARK    1  A    between atoms: C_1  and  C_2
REMARK    2  A    between atoms: C_7  and  C_8
REMARK    3  A    between atoms: C_9  and  C_10
REMARK    4  A    between atoms: C_15  and  C_16
REMARK                            x       y       z     vdW  Elec       q    Type
REMARK                         _______ _______ _______ _____ _____    ______ ____
ROOT
ATOM      1  C   UNL     1     102.031 126.209  82.263  0.00  0.00    +0.000 C 
ATOM      2  C   UNL     1     102.905 125.455  81.928  0.00  0.00    +0.000 C 
ENDROOT
BRANCH   1   9
ATOM      3  C   UNL     1     102.699 128.727  83.627  0.00  0.00    +0.000 C 
ATOM      4  C   UNL     1     101.285 128.327  83.307  0.00  0.00    +0.000 A 
ATOM      5  C   UNL     1     100.226 129.174  83.670  0.00  0.00    +0.000 A 
ATOM      6  C   UNL     1      98.904 128.826  83.386  0.00  0.00    +0.000 A 
ATOM      7  C   UNL     1      98.623 127.626  82.737  0.00  0.00    +0.000 A 
ATOM      8  C   UNL     1      99.665 126.774  82.373  0.00  0.00    +0.000 A 
ATOM      9  C   UNL     1     100.993 127.116  82.654  0.00  0.00    +0.000 A 
ENDBRANCH   1   9
BRANCH   2  10
ATOM     10  C   UNL     1     103.950 124.563  81.519  0.00  0.00    +0.000 A 
ATOM     11  C   UNL     1     104.394 124.618  80.192  0.00  0.00    +0.000 A 
ATOM     12  C   UNL     1     105.407 123.768  79.751  0.00  0.00    +0.000 A 
ATOM     13  C   UNL     1     105.982 122.858  80.634  0.00  0.00    +0.000 A 
ATOM     14  C   UNL     1     105.546 122.799  81.959  0.00  0.00    +0.000 A 
ATOM     15  C   UNL     1     104.526 123.647  82.417  0.00  0.00    +0.000 A 
ATOM     16  C   UNL     1     104.078 123.562  83.850  0.00  0.00    +0.000 C 
ENDBRANCH   2  10
TORSDOF 2
ENDMDL
