MODEL 1
REMARK VINA RESULT:      -4.7      0.000      0.000
REMARK  Name = *****
REMARK  6 active torsions:
REMARK  status: ('A' for Active; 'I' for Inactive)
REMARK    1  A    between atoms: C_1  and  C_2
REMARK    2  A    between atoms: C_7  and  C_8
REMARK    3  A    between atoms: C_8  and  O_10
REMARK    4  A    between atoms: O_10  and  C_11
REMARK    5  A    between atoms: C_11  and  C_12
REMARK    6  A    between atoms: C_11  and  C_13
REMARK                            x       y       z     vdW  Elec       q    Type
REMARK                         _______ _______ _______ _____ _____    ______ ____
ROOT
ATOM      1  C   UNL     1      99.343 127.431  82.906  0.00  0.00    +0.000 C 
ATOM      2  O   UNL     1      98.590 127.038  82.031  0.00  0.00    +0.000 OA
ENDROOT
BRANCH   1   9
ATOM      3  C   UNL     1      97.900 127.088  85.522  0.00  0.00    +0.000 C 
ATOM      4  C   UNL     1      98.390 128.426  85.038  0.00  0.00    +0.000 A 
ATOM      5  C   UNL     1      98.145 129.555  85.842  0.00  0.00    +0.000 A 
ATOM      6  C   UNL     1      98.574 130.824  85.451  0.00  0.00    +0.000 A 
ATOM      7  C   UNL     1      99.250 130.988  84.248  0.00  0.00    +0.000 A 
ATOM      8  C   UNL     1      99.496 129.882  83.434  0.00  0.00    +0.000 A 
ATOM      9  C   UNL     1      99.074 128.593  83.814  0.00  0.00    +0.000 A 
ENDBRANCH   1   9
BRANCH   1  10
ATOM     10  O   UNL     1     100.542 126.873  83.215  0.00  0.00    +0.000 OA
BRANCH  10  11
ATOM     11  C   UNL     1     101.609 127.067  82.265  0.00  0.00    +0.000 C 
ATOM     12  C   UNL     1     102.613 128.066  82.838  0.00  0.00    +0.000 C 
BRANCH  11  13
ATOM     13  C   UNL     1     102.272 125.712  81.971  0.00  0.00    +0.000 C 
ATOM     14  C   UNL     1     103.216 125.244  83.080  0.00  0.00    +0.000 C 
ATOM     15  C   UNL     1     104.004 124.112  82.433  0.00  0.00    +0.000 C 
ATOM     16  C   UNL     1     104.057 124.440  80.941  0.00  0.00    +0.000 C 
ATOM     17  C   UNL     1     103.194 125.685  80.747  0.00  0.00    +0.000 C 
ENDBRANCH  11  13
ENDBRANCH  10  11
ENDBRANCH   1  10
TORSDOF 4
ENDMDL
