MODEL 1
REMARK VINA RESULT:      -4.2      0.000      0.000
REMARK  Name = *****
REMARK  3 active torsions:
REMARK  status: ('A' for Active; 'I' for Inactive)
REMARK    1  A    between atoms: C_1  and  C_2
REMARK    2  A    between atoms: C_1  and  S_8
REMARK    3  A    between atoms: S_8  and  C_9
REMARK                            x       y       z     vdW  Elec       q    Type
REMARK                         _______ _______ _______ _____ _____    ______ ____
ROOT
ATOM      1  C   UNL     1     102.878 125.459  83.607  0.00  0.00    +0.000 C 
ENDROOT
BRANCH   1   2
ATOM      2  C   UNL     1     103.592 124.757  82.479  0.00  0.00    +0.000 A 
ATOM      3  C   UNL     1     104.263 123.547  82.703  0.00  0.00    +0.000 A 
ATOM      4  C   UNL     1     104.931 122.902  81.661  0.00  0.00    +0.000 A 
ATOM      5  C   UNL     1     104.941 123.464  80.385  0.00  0.00    +0.000 A 
ATOM      6  C   UNL     1     104.287 124.673  80.152  0.00  0.00    +0.000 A 
ATOM      7  C   UNL     1     103.618 125.319  81.194  0.00  0.00    +0.000 A 
ENDBRANCH   1   2
BRANCH   1   8
ATOM      8  S   UNL     1     102.952 127.270  83.421  0.00  0.00    +0.000 S 
BRANCH   8   9
ATOM      9  C   UNL     1     101.220 127.601  83.163  0.00  0.00    +0.000 A 
ATOM     10  C   UNL     1     100.383 126.647  82.576  0.00  0.00    +0.000 A 
ATOM     11  C   UNL     1      99.027 126.920  82.386  0.00  0.00    +0.000 A 
ATOM     12  C   UNL     1      98.500 128.146  82.788  0.00  0.00    +0.000 A 
ATOM     13  C   UNL     1      99.327 129.097  83.386  0.00  0.00    +0.000 A 
ATOM     14  C   UNL     1     100.682 128.823  83.576  0.00  0.00    +0.000 A 
ENDBRANCH   8   9
ENDBRANCH   1   8
TORSDOF 3
ENDMDL
