REMARK  Name = *****
REMARK  7 active torsions:
REMARK  status: ('A' for Active; 'I' for Inactive)
REMARK    1  A    between atoms: C_1  and  C_2
REMARK    2  A    between atoms: C_4  and  C_19
REMARK    3  A    between atoms: C_5  and  O_9
REMARK    4  A    between atoms: C_6  and  C_8
REMARK    5  A    between atoms: O_9  and  C_10
REMARK    6  A    between atoms: C_10  and  S_11
REMARK    7  A    between atoms: C_10  and  C_13
REMARK                            x       y       z     vdW  Elec       q    Type
REMARK                         _______ _______ _______ _____ _____    ______ ____
ROOT
ATOM      1  O   UNL     1      -1.008  -2.521  -0.003  0.00  0.00    +0.000 OA
ENDROOT
BRANCH   1   6
ATOM      2  C   UNL     1       1.931   2.338   0.441  0.00  0.00    +0.000 C 
ATOM      3  C   UNL     1       1.163   1.058   0.286  0.00  0.00    +0.000 A 
ATOM      4  C   UNL     1       1.809  -0.176   0.448  0.00  0.00    +0.000 A 
ATOM      5  C   UNL     1       1.098  -1.379   0.349  0.00  0.00    +0.000 A 
ATOM      6  C   UNL     1      -0.285  -1.314   0.130  0.00  0.00    +0.000 A 
ATOM      7  C   UNL     1      -0.957  -0.099  -0.060  0.00  0.00    +0.000 A 
ATOM      8  C   UNL     1      -0.218   1.087   0.045  0.00  0.00    +0.000 A 
ATOM      9  C   UNL     1      -2.434  -0.044  -0.306  0.00  0.00    +0.000 C 
ATOM     10  C   UNL     1       1.806  -2.688   0.535  0.00  0.00    +0.000 C 
ENDBRANCH   1   6
BRANCH   1  11
ATOM     11  C   UNL     1      -1.613  -3.177   1.065  0.00  0.00    +0.000 C 
BRANCH  11  12
ATOM     12  C   UNL     1      -2.224  -4.429   0.580  0.00  0.00    +0.000 A 
ATOM     13  C   UNL     1      -2.934  -4.427  -0.629  0.00  0.00    +0.000 A 
ATOM     14  C   UNL     1      -3.520  -5.604  -1.099  0.00  0.00    +0.000 A 
ATOM     15  C   UNL     1      -3.398  -6.785  -0.369  0.00  0.00    +0.000 A 
ATOM     16  C   UNL     1      -2.689  -6.794   0.832  0.00  0.00    +0.000 A 
ATOM     17  C   UNL     1      -2.100  -5.621   1.308  0.00  0.00    +0.000 A 
ENDBRANCH  11  12
BRANCH  11  18
ATOM     18  S   UNL     1      -1.680  -2.720   2.633  0.00  0.00    +0.000 S 
ATOM     19  O   UNL     1      -1.020  -1.437   2.997  0.00  0.00    +0.000 OA
ENDBRANCH  11  18
ENDBRANCH   1  11
TORSDOF 4
