MODEL 1
REMARK VINA RESULT:      -4.4      0.000      0.000
REMARK  Name = *****
REMARK  2 active torsions:
REMARK  status: ('A' for Active; 'I' for Inactive)
REMARK    1  A    between atoms: C_4  and  C_7
REMARK    2  A    between atoms: C_8  and  C_9
REMARK                            x       y       z     vdW  Elec       q    Type
REMARK                         _______ _______ _______ _____ _____    ______ ____
ROOT
ATOM      1  C   UNL     1     102.046 125.962  82.260  0.00  0.00    +0.000 C 
ATOM      2  C   UNL     1     102.932 126.165  81.270  0.00  0.00    +0.000 C 
ENDROOT
BRANCH   1   6
ATOM      3  C   UNL     1      99.081 128.850  83.338  0.00  0.00    +0.000 A 
ATOM      4  C   UNL     1     100.418 129.092  83.648  0.00  0.00    +0.000 A 
ATOM      5  C   UNL     1     101.396 128.153  83.308  0.00  0.00    +0.000 A 
ATOM      6  C   UNL     1     101.044 126.959  82.664  0.00  0.00    +0.000 A 
ATOM      7  C   UNL     1      99.699 126.736  82.343  0.00  0.00    +0.000 A 
ATOM      8  C   UNL     1      98.721 127.674  82.684  0.00  0.00    +0.000 A 
ENDBRANCH   1   6
BRANCH   2   9
ATOM      9  C   UNL     1     103.902 125.188  80.894  0.00  0.00    +0.000 A 
ATOM     10  C   UNL     1     104.691 125.067  79.757  0.00  0.00    +0.000 A 
ATOM     11  C   UNL     1     105.545 123.923  79.780  0.00  0.00    +0.000 A 
ATOM     12  C   UNL     1     105.379 123.208  80.935  0.00  0.00    +0.000 A 
ATOM     13  S   UNL     1     104.230 123.878  81.977  0.00  0.00    +0.000 S 
ATOM     14 BR   UNL     1     106.329 121.642  81.328  0.00  0.00    +0.000 Br
ENDBRANCH   2   9
TORSDOF 2
ENDMDL
