MODEL 1
REMARK VINA RESULT:      -4.8      0.000      0.000
REMARK  Name = *****
REMARK  5 active torsions:
REMARK  status: ('A' for Active; 'I' for Inactive)
REMARK    1  A    between atoms: C_1  and  C_2
REMARK    2  A    between atoms: C_2  and  C_4
REMARK    3  A    between atoms: C_4  and  C_5
REMARK    4  A    between atoms: C_4  and  C_13
REMARK    5  A    between atoms: C_5  and  C_6
REMARK                            x       y       z     vdW  Elec       q    Type
REMARK                         _______ _______ _______ _____ _____    ______ ____
ROOT
ATOM      1  C   UNL     1      87.211  70.262  88.401  0.00  0.00    +0.000 C 
ENDROOT
BRANCH   1   2
ATOM      2  C   UNL     1      86.176  71.110  87.678  0.00  0.00    +0.000 A 
ATOM      3  C   UNL     1      85.131  71.743  88.369  0.00  0.00    +0.000 A 
ATOM      4  C   UNL     1      84.184  72.506  87.684  0.00  0.00    +0.000 A 
ATOM      5  C   UNL     1      84.265  72.642  86.300  0.00  0.00    +0.000 A 
ATOM      6  C   UNL     1      85.291  72.012  85.599  0.00  0.00    +0.000 A 
ATOM      7  C   UNL     1      86.239  71.248  86.282  0.00  0.00    +0.000 A 
ENDBRANCH   1   2
BRANCH   1   9
ATOM      8  C   UNL     1      88.453  71.795  90.092  0.00  0.00    +0.000 C 
ATOM      9  C   UNL     1      87.455  70.685  89.855  0.00  0.00    +0.000 C 
ATOM     10  O   UNL     1      86.943  70.107  90.815  0.00  0.00    +0.000 OA
ENDBRANCH   1   9
BRANCH   1  11
ATOM     11  C   UNL     1      87.006  68.739  88.217  0.00  0.00    +0.000 C 
BRANCH  11  12
ATOM     12  C   UNL     1      88.087  67.969  87.489  0.00  0.00    +0.000 A 
ATOM     13  C   UNL     1      88.087  66.565  87.496  0.00  0.00    +0.000 A 
ATOM     14  C   UNL     1      89.085  65.850  86.830  0.00  0.00    +0.000 A 
ATOM     15  C   UNL     1      90.086  66.533  86.145  0.00  0.00    +0.000 A 
ATOM     16  C   UNL     1      90.096  67.926  86.120  0.00  0.00    +0.000 A 
ATOM     17  C   UNL     1      89.100  68.641  86.788  0.00  0.00    +0.000 A 
ATOM     18 CL   UNL     1      91.317  65.652  85.326  0.00  0.00    +0.000 Cl
ENDBRANCH  11  12
ENDBRANCH   1  11
TORSDOF 4
ENDMDL
