MODEL 1
REMARK VINA RESULT:      -4.6      0.000      0.000
REMARK  Name = *****
REMARK  3 active torsions:
REMARK  status: ('A' for Active; 'I' for Inactive)
REMARK    1  A    between atoms: C_5  and  C_7
REMARK    2  A    between atoms: C_7  and  O_9
REMARK    3  A    between atoms: O_9  and  C_10
REMARK                            x       y       z     vdW  Elec       q    Type
REMARK                         _______ _______ _______ _____ _____    ______ ____
ROOT
ATOM      1  C   UNL     1      99.372 127.482  82.993  0.00  0.00    +0.000 C 
ATOM      2  O   UNL     1      98.681 127.199  82.024  0.00  0.00    +0.000 OA
ENDROOT
BRANCH   1   7
ATOM      3  C   UNL     1      99.241 131.009  84.300  0.00  0.00    +0.000 A 
ATOM      4  C   UNL     1      98.541 130.852  85.496  0.00  0.00    +0.000 A 
ATOM      5  C   UNL     1      98.113 129.584  85.891  0.00  0.00    +0.000 A 
ATOM      6  C   UNL     1      98.379 128.478  85.085  0.00  0.00    +0.000 A 
ATOM      7  C   UNL     1      99.065 128.625  83.878  0.00  0.00    +0.000 A 
ATOM      8  C   UNL     1      99.506 129.899  83.494  0.00  0.00    +0.000 A 
ATOM      9  F   UNL     1      97.980 127.273  85.520  0.00  0.00    +0.000 F 
ENDBRANCH   1   7
BRANCH   1  10
ATOM     10  O   UNL     1     100.459 126.786  83.479  0.00  0.00    +0.000 OA
BRANCH  10  11
ATOM     11  C   UNL     1     101.587 126.894  82.665  0.00  0.00    +0.000 A 
ATOM     12  C   UNL     1     101.919 125.855  81.800  0.00  0.00    +0.000 A 
ATOM     13  C   UNL     1     103.074 125.974  81.037  0.00  0.00    +0.000 A 
ATOM     14  C   UNL     1     103.894 127.095  81.139  0.00  0.00    +0.000 A 
ATOM     15  C   UNL     1     103.560 128.120  82.026  0.00  0.00    +0.000 A 
ATOM     16  C   UNL     1     102.404 128.018  82.800  0.00  0.00    +0.000 A 
ATOM     17  F   UNL     1     103.409 124.989  80.192  0.00  0.00    +0.000 F 
ENDBRANCH  10  11
ENDBRANCH   1  10
TORSDOF 3
ENDMDL
