MODEL 1
REMARK VINA RESULT:      -4.9      0.000      0.000
REMARK  Name = *****
REMARK  2 active torsions:
REMARK  status: ('A' for Active; 'I' for Inactive)
REMARK    1  A    between atoms: C_4  and  C_7
REMARK    2  A    between atoms: C_10  and  C_12
REMARK                            x       y       z     vdW  Elec       q    Type
REMARK                         _______ _______ _______ _____ _____    ______ ____
ROOT
ATOM      1  C   UNL     1     101.823 126.037  83.442  0.00  0.00    +0.000 A 
ATOM      2  N   UNL     1     102.464 125.270  84.298  0.00  0.00    +0.000 NA
ATOM      3  N   UNL     1     103.375 124.542  83.562  0.00  0.00    +0.000 NA
ATOM      4  C   UNL     1     103.227 124.918  82.309  0.00  0.00    +0.000 A 
ATOM      5  O   UNL     1     102.254 125.870  82.152  0.00  0.00    +0.000 OA
ENDROOT
BRANCH   1   9
ATOM      6  C   UNL     1      99.142 129.414  82.984  0.00  0.00    +0.000 C 
ATOM      7  C   UNL     1      98.572 128.007  82.823  0.00  0.00    +0.000 C 
ATOM      8  C   UNL     1      99.674 126.976  82.587  0.00  0.00    +0.000 C 
ATOM      9  C   UNL     1     100.739 127.026  83.692  0.00  0.00    +0.000 C 
ATOM     10  C   UNL     1     101.308 128.444  83.849  0.00  0.00    +0.000 C 
ATOM     11  C   UNL     1     100.200 129.469  84.082  0.00  0.00    +0.000 C 
ENDBRANCH   1   9
BRANCH   4  12
ATOM     12  C   UNL     1     103.951 124.453  81.094  0.00  0.00    +0.000 C 
ATOM     13  C   UNL     1     104.750 123.174  81.378  0.00  0.00    +0.000 C 
ATOM     14  C   UNL     1     105.517 122.706  80.143  0.00  0.00    +0.000 C 
ATOM     15  C   UNL     1     106.411 123.809  79.584  0.00  0.00    +0.000 C 
ATOM     16  C   UNL     1     105.622 125.083  79.300  0.00  0.00    +0.000 C 
ATOM     17  C   UNL     1     104.855 125.558  80.533  0.00  0.00    +0.000 C 
ENDBRANCH   4  12
TORSDOF 2
ENDMDL
