MODEL 1
REMARK VINA RESULT:      -4.9      0.000      0.000
REMARK  Name = *****
REMARK  5 active torsions:
REMARK  status: ('A' for Active; 'I' for Inactive)
REMARK    1  A    between atoms: C_1  and  C_2
REMARK    2  A    between atoms: C_2  and  C_3
REMARK    3  A    between atoms: C_2  and  C_9
REMARK    4  A    between atoms: C_9  and  C_10
REMARK    5  A    between atoms: C_9  and  C_12
REMARK                            x       y       z     vdW  Elec       q    Type
REMARK                         _______ _______ _______ _____ _____    ______ ____
ROOT
ATOM      1  C   UNL     1     102.683 127.285  82.645  0.00  0.00    +0.000 C 
ENDROOT
BRANCH   1   2
ATOM      2  C   UNL     1     101.196 127.565  82.860  0.00  0.00    +0.000 A 
ATOM      3  C   UNL     1     100.247 126.652  82.366  0.00  0.00    +0.000 A 
ATOM      4  C   UNL     1      98.880 126.886  82.523  0.00  0.00    +0.000 A 
ATOM      5  C   UNL     1      98.438 128.036  83.171  0.00  0.00    +0.000 A 
ATOM      6  C   UNL     1      99.363 128.955  83.660  0.00  0.00    +0.000 A 
ATOM      7  C   UNL     1     100.731 128.725  83.505  0.00  0.00    +0.000 A 
ENDBRANCH   1   2
BRANCH   1   9
ATOM      8  C   UNL     1     103.670 127.495  80.246  0.00  0.00    +0.000 C 
ATOM      9  C   UNL     1     102.942 126.604  81.267  0.00  0.00    +0.000 C 
BRANCH   9  10
ATOM     10  C   UNL     1     103.613 125.243  81.439  0.00  0.00    +0.000 A 
ATOM     11  C   UNL     1     104.217 124.563  80.370  0.00  0.00    +0.000 A 
ATOM     12  C   UNL     1     104.843 123.332  80.571  0.00  0.00    +0.000 A 
ATOM     13  C   UNL     1     104.879 122.763  81.841  0.00  0.00    +0.000 A 
ATOM     14  C   UNL     1     104.291 123.426  82.914  0.00  0.00    +0.000 A 
ATOM     15  C   UNL     1     103.664 124.658  82.716  0.00  0.00    +0.000 A 
ENDBRANCH   9  10
ENDBRANCH   1   9
BRANCH   1  16
ATOM     16  C   UNL     1     103.540 128.473  82.857  0.00  0.00    +0.000 C 
ATOM     17  N   UNL     1     104.215 129.401  83.041  0.00  0.00    +0.000 NA
ENDBRANCH   1  16
TORSDOF 4
ENDMDL
