MODEL 1
REMARK VINA RESULT:      -4.9      0.000      0.000
REMARK  Name = *****
REMARK  5 active torsions:
REMARK  status: ('A' for Active; 'I' for Inactive)
REMARK    1  A    between atoms: C_1  and  C_11
REMARK    2  A    between atoms: C_2  and  C_3
REMARK    3  A    between atoms: C_6  and  O_9
REMARK    4  A    between atoms: O_9  and  C_10
REMARK    5  A    between atoms: C_14  and  C_17
REMARK                            x       y       z     vdW  Elec       q    Type
REMARK                         _______ _______ _______ _____ _____    ______ ____
ROOT
ATOM      1  C   UNL     1      87.996  65.112  88.383  0.00  0.00    +0.000 C 
ATOM      2  C   UNL     1      87.394  66.222  87.923  0.00  0.00    +0.000 C 
ENDROOT
BRANCH   2   3
ATOM      3  C   UNL     1      88.120  67.392  87.410  0.00  0.00    +0.000 A 
ATOM      4  C   UNL     1      89.217  67.276  86.548  0.00  0.00    +0.000 A 
ATOM      5  C   UNL     1      89.867  68.415  86.054  0.00  0.00    +0.000 A 
ATOM      6  C   UNL     1      89.420  69.687  86.410  0.00  0.00    +0.000 A 
ATOM      7  C   UNL     1      88.316  69.808  87.255  0.00  0.00    +0.000 A 
ATOM      8  C   UNL     1      87.667  68.672  87.748  0.00  0.00    +0.000 A 
BRANCH   6   9
ATOM      9  O   UNL     1      89.960  70.875  86.001  0.00  0.00    +0.000 OA
ATOM     10  C   UNL     1      90.306  70.984  84.625  0.00  0.00    +0.000 C 
ENDBRANCH   6   9
ENDBRANCH   2   3
BRANCH   1  11
ATOM     11  C   UNL     1      87.271  63.948  88.914  0.00  0.00    +0.000 A 
ATOM     12  C   UNL     1      87.065  62.788  88.159  0.00  0.00    +0.000 A 
ATOM     13  C   UNL     1      86.398  61.688  88.710  0.00  0.00    +0.000 A 
ATOM     14  C   UNL     1      85.926  61.727  90.030  0.00  0.00    +0.000 A 
ATOM     15  C   UNL     1      86.156  62.880  90.793  0.00  0.00    +0.000 A 
ATOM     16  C   UNL     1      86.823  63.978  90.240  0.00  0.00    +0.000 A 
BRANCH  14  17
ATOM     17  C   UNL     1      85.228  60.532  90.631  0.00  0.00    +0.000 C 
ATOM     18  F   UNL     1      83.969  60.347  90.140  0.00  0.00    +0.000 F 
ATOM     19  F   UNL     1      85.895  59.370  90.394  0.00  0.00    +0.000 F 
ATOM     20  F   UNL     1      85.089  60.616  91.983  0.00  0.00    +0.000 F 
ENDBRANCH  14  17
ENDBRANCH   1  11
TORSDOF 4
ENDMDL
