MODEL 1
REMARK VINA RESULT:      -4.7      0.000      0.000
REMARK  Name = *****
REMARK  2 active torsions:
REMARK  status: ('A' for Active; 'I' for Inactive)
REMARK    1  A    between atoms: C_3  and  C_8
REMARK    2  A    between atoms: N_9  and  C_10
REMARK                            x       y       z     vdW  Elec       q    Type
REMARK                         _______ _______ _______ _____ _____    ______ ____
ROOT
ATOM      1  C   UNL     1     101.967 125.953  82.508  0.00  0.00    +0.000 C 
ATOM      2  N   UNL     1     102.768 126.030  81.494  0.00  0.00    +0.000 NA
ENDROOT
BRANCH   1   5
ATOM      3  C   UNL     1      98.632 127.685  82.606  0.00  0.00    +0.000 A 
ATOM      4  C   UNL     1      99.621 126.728  82.370  0.00  0.00    +0.000 A 
ATOM      5  C   UNL     1     100.939 126.979  82.768  0.00  0.00    +0.000 A 
ATOM      6  C   UNL     1     101.273 128.180  83.400  0.00  0.00    +0.000 A 
ATOM      7  C   UNL     1     100.279 129.128  83.631  0.00  0.00    +0.000 A 
ATOM      8  C   UNL     1      98.962 128.886  83.238  0.00  0.00    +0.000 A 
ATOM      9 CL   UNL     1     100.675 130.611  84.409  0.00  0.00    +0.000 Cl
ENDBRANCH   1   5
BRANCH   2  10
ATOM     10  C   UNL     1     103.696 124.990  81.364  0.00  0.00    +0.000 A 
ATOM     11  C   UNL     1     103.960 124.140  82.442  0.00  0.00    +0.000 A 
ATOM     12  C   UNL     1     104.874 123.092  82.308  0.00  0.00    +0.000 A 
ATOM     13  C   UNL     1     105.517 122.888  81.088  0.00  0.00    +0.000 A 
ATOM     14  C   UNL     1     105.249 123.719  80.002  0.00  0.00    +0.000 A 
ATOM     15  C   UNL     1     104.334 124.765  80.142  0.00  0.00    +0.000 A 
ATOM     16 CL   UNL     1     106.644 121.599  80.921  0.00  0.00    +0.000 Cl
ENDBRANCH   2  10
TORSDOF 2
ENDMDL
