REMARK  Name = *****
REMARK  4 active torsions:
REMARK  status: ('A' for Active; 'I' for Inactive)
REMARK    1  A    between atoms: C_1  and  C_2
REMARK    2  A    between atoms: C_4  and  C_8
REMARK    3  A    between atoms: C_9  and  C_10
REMARK    4  A    between atoms: C_15  and  C_16
REMARK                            x       y       z     vdW  Elec       q    Type
REMARK                         _______ _______ _______ _____ _____    ______ ____
ROOT
ATOM      1  C   UNL     1       5.214   2.680  -0.580  0.00  0.00    +0.000 C 
ATOM      2  C   UNL     1       5.780   3.724  -0.766  0.00  0.00    +0.000 C 
ENDROOT
BRANCH   1   6
ATOM      3  C   UNL     1       0.989   0.142   0.046  0.00  0.00    +0.000 C 
ATOM      4  C   UNL     1       2.486   0.186  -0.032  0.00  0.00    +0.000 A 
ATOM      5  C   UNL     1       3.151   1.400  -0.256  0.00  0.00    +0.000 A 
ATOM      6  C   UNL     1       4.544   1.436  -0.360  0.00  0.00    +0.000 A 
ATOM      7  C   UNL     1       5.282   0.256  -0.253  0.00  0.00    +0.000 A 
ATOM      8  C   UNL     1       4.627  -0.959  -0.046  0.00  0.00    +0.000 A 
ATOM      9  C   UNL     1       3.235  -0.994   0.059  0.00  0.00    +0.000 A 
ENDBRANCH   1   6
BRANCH   2  10
ATOM     10  C   UNL     1       6.456   4.968  -0.987  0.00  0.00    +0.000 A 
ATOM     11  C   UNL     1       5.867   6.143  -0.506  0.00  0.00    +0.000 A 
ATOM     12  C   UNL     1       6.490   7.376  -0.699  0.00  0.00    +0.000 A 
ATOM     13  C   UNL     1       7.706   7.440  -1.373  0.00  0.00    +0.000 A 
ATOM     14  C   UNL     1       8.300   6.273  -1.856  0.00  0.00    +0.000 A 
ATOM     15  C   UNL     1       7.685   5.024  -1.669  0.00  0.00    +0.000 A 
ATOM     16  C   UNL     1       8.349   3.784  -2.201  0.00  0.00    +0.000 C 
ENDBRANCH   2  10
TORSDOF 2
