MODEL 1
REMARK VINA RESULT:      -4.6      0.000      0.000
REMARK  Name = *****
REMARK  5 active torsions:
REMARK  status: ('A' for Active; 'I' for Inactive)
REMARK    1  A    between atoms: C_1  and  C_2
REMARK    2  A    between atoms: C_5  and  O_8
REMARK    3  A    between atoms: O_8  and  S_9
REMARK    4  A    between atoms: S_9  and  C_10
REMARK    5  A    between atoms: C_14  and  C_16
REMARK                            x       y       z     vdW  Elec       q    Type
REMARK                         _______ _______ _______ _____ _____    ______ ____
ROOT
ATOM      1  O   UNL     1      87.845  70.530  87.991  0.00  0.00    +0.000 OA
ENDROOT
BRANCH   1   6
ATOM      2  C   UNL     1      83.165  73.113  86.109  0.00  0.00    +0.000 C 
ATOM      3  C   UNL     1      84.391  72.410  86.612  0.00  0.00    +0.000 A 
ATOM      4  C   UNL     1      85.369  71.962  85.714  0.00  0.00    +0.000 A 
ATOM      5  C   UNL     1      86.526  71.337  86.182  0.00  0.00    +0.000 A 
ATOM      6  C   UNL     1      86.722  71.184  87.553  0.00  0.00    +0.000 A 
ATOM      7  C   UNL     1      85.755  71.619  88.459  0.00  0.00    +0.000 A 
ATOM      8  C   UNL     1      84.598  72.243  87.988  0.00  0.00    +0.000 A 
ENDBRANCH   1   6
BRANCH   1   9
ATOM      9  S   UNL     1      89.010  70.303  86.815  0.00  0.00    +0.000 S 
BRANCH   9  10
ATOM     10  C   UNL     1      89.000  68.517  86.767  0.00  0.00    +0.000 A 
ATOM     11  C   UNL     1      87.966  67.783  87.356  0.00  0.00    +0.000 A 
ATOM     12  C   UNL     1      87.982  66.388  87.318  0.00  0.00    +0.000 A 
ATOM     13  C   UNL     1      89.033  65.720  86.691  0.00  0.00    +0.000 A 
ATOM     14  C   UNL     1      90.071  66.439  86.087  0.00  0.00    +0.000 A 
ATOM     15  C   UNL     1      90.054  67.840  86.144  0.00  0.00    +0.000 A 
ATOM     16  C   UNL     1      91.222  65.722  85.445  0.00  0.00    +0.000 C 
ENDBRANCH   9  10
ENDBRANCH   1   9
TORSDOF 3
ENDMDL
