MODEL 1
REMARK VINA RESULT:      -3.9      0.000      0.000
REMARK  Name = *****
REMARK  4 active torsions:
REMARK  status: ('A' for Active; 'I' for Inactive)
REMARK    1  A    between atoms: C_4  and  O_7
REMARK    2  A    between atoms: O_7  and  C_8
REMARK    3  A    between atoms: C_8  and  O_10
REMARK    4  A    between atoms: O_10  and  C_11
REMARK                            x       y       z     vdW  Elec       q    Type
REMARK                         _______ _______ _______ _____ _____    ______ ____
ROOT
ATOM      1  C   UNL     1      90.176  65.896  86.058  0.00  0.00    +0.000 C 
ATOM      2  S   UNL     1      91.333  65.133  85.158  0.00  0.00    +0.000 S 
ENDROOT
BRANCH   1   3
ATOM      3  O   UNL     1      89.005  65.377  86.488  0.00  0.00    +0.000 OA
BRANCH   3   7
ATOM      4  C   UNL     1      86.583  64.480  89.856  0.00  0.00    +0.000 C 
ATOM      5  C   UNL     1      87.989  63.883  89.806  0.00  0.00    +0.000 C 
ATOM      6  C   UNL     1      88.587  63.961  88.404  0.00  0.00    +0.000 C 
ATOM      7  C   UNL     1      88.565  65.393  87.868  0.00  0.00    +0.000 C 
ATOM      8  C   UNL     1      87.143  65.960  87.892  0.00  0.00    +0.000 C 
ATOM      9  C   UNL     1      86.545  65.898  89.293  0.00  0.00    +0.000 C 
ENDBRANCH   3   7
ENDBRANCH   1   3
BRANCH   1  10
ATOM     10  O   UNL     1      90.396  67.180  86.416  0.00  0.00    +0.000 OA
BRANCH  10  11
ATOM     11  C   UNL     1      89.597  68.310  85.987  0.00  0.00    +0.000 C 
ATOM     12  C   UNL     1      89.953  68.819  84.586  0.00  0.00    +0.000 C 
ATOM     13  C   UNL     1      89.052  69.979  84.172  0.00  0.00    +0.000 C 
ATOM     14  C   UNL     1      89.042  71.090  85.220  0.00  0.00    +0.000 C 
ATOM     15  C   UNL     1      88.646  70.565  86.598  0.00  0.00    +0.000 C 
ATOM     16  C   UNL     1      89.550  69.418  87.042  0.00  0.00    +0.000 C 
ENDBRANCH  10  11
ENDBRANCH   1  10
TORSDOF 4
ENDMDL
