MODEL 1
REMARK VINA RESULT:      -4.1      0.000      0.000
REMARK  Name = *****
REMARK  5 active torsions:
REMARK  status: ('A' for Active; 'I' for Inactive)
REMARK    1  A    between atoms: C_4  and  C_7
REMARK    2  A    between atoms: C_7  and  C_8
REMARK    3  A    between atoms: C_8  and  O_10
REMARK    4  A    between atoms: O_10  and  C_11
REMARK    5  A    between atoms: C_11  and  C_12
REMARK                            x       y       z     vdW  Elec       q    Type
REMARK                         _______ _______ _______ _____ _____    ______ ____
ROOT
ATOM      1  C   UNL     1      90.440  66.299  85.961  0.00  0.00    +0.000 C 
ATOM      2  O   UNL     1      91.395  65.757  85.419  0.00  0.00    +0.000 OA
ENDROOT
BRANCH   1   3
ATOM      3  C   UNL     1      89.078  65.666  86.095  0.00  0.00    +0.000 C 
BRANCH   3   7
ATOM      4  C   UNL     1      86.572  64.974  89.615  0.00  0.00    +0.000 C 
ATOM      5  C   UNL     1      87.964  64.353  89.577  0.00  0.00    +0.000 C 
ATOM      6  C   UNL     1      88.535  64.338  88.161  0.00  0.00    +0.000 C 
ATOM      7  C   UNL     1      88.544  65.740  87.532  0.00  0.00    +0.000 C 
ATOM      8  C   UNL     1      87.136  66.359  87.578  0.00  0.00    +0.000 C 
ATOM      9  C   UNL     1      86.565  66.367  88.996  0.00  0.00    +0.000 C 
ENDBRANCH   3   7
ENDBRANCH   1   3
BRANCH   1  10
ATOM     10  O   UNL     1      90.437  67.543  86.508  0.00  0.00    +0.000 OA
BRANCH  10  11
ATOM     11  C   UNL     1      89.886  68.580  85.688  0.00  0.00    +0.000 C 
BRANCH  11  12
ATOM     12  C   UNL     1      88.929  69.412  86.501  0.00  0.00    +0.000 A 
ATOM     13  C   UNL     1      89.299  69.883  87.768  0.00  0.00    +0.000 A 
ATOM     14  C   UNL     1      88.407  70.638  88.531  0.00  0.00    +0.000 A 
ATOM     15  C   UNL     1      87.136  70.922  88.039  0.00  0.00    +0.000 A 
ATOM     16  C   UNL     1      86.752  70.449  86.785  0.00  0.00    +0.000 A 
ATOM     17  C   UNL     1      87.643  69.693  86.021  0.00  0.00    +0.000 A 
ENDBRANCH  11  12
ENDBRANCH  10  11
ENDBRANCH   1  10
TORSDOF 5
ENDMDL
