REMARK  Name = *****
REMARK  4 active torsions:
REMARK  status: ('A' for Active; 'I' for Inactive)
REMARK    1  A    between atoms: C_4  and  O_7
REMARK    2  A    between atoms: O_7  and  C_8
REMARK    3  A    between atoms: C_8  and  O_10
REMARK    4  A    between atoms: O_10  and  C_11
REMARK                            x       y       z     vdW  Elec       q    Type
REMARK                         _______ _______ _______ _____ _____    ______ ____
ROOT
ATOM      1  C   UNL     1      -3.329   0.183  -1.260  0.00  0.00    +0.000 C 
ATOM      2  O   UNL     1      -3.192  -1.009  -1.502  0.00  0.00    +0.000 OA
ENDROOT
BRANCH   1   3
ATOM      3  O   UNL     1      -2.416   1.005  -0.613  0.00  0.00    +0.000 OA
BRANCH   3   7
ATOM      4  C   UNL     1       1.196  -0.699   0.594  0.00  0.00    +0.000 A 
ATOM      5  C   UNL     1       0.895  -0.628  -0.768  0.00  0.00    +0.000 A 
ATOM      6  C   UNL     1      -0.314  -0.074  -1.188  0.00  0.00    +0.000 A 
ATOM      7  C   UNL     1      -1.219   0.389  -0.233  0.00  0.00    +0.000 A 
ATOM      8  C   UNL     1      -0.919   0.344   1.127  0.00  0.00    +0.000 A 
ATOM      9  C   UNL     1       0.292  -0.210   1.540  0.00  0.00    +0.000 A 
ENDBRANCH   3   7
ENDBRANCH   1   3
BRANCH   1  10
ATOM     10  O   UNL     1      -4.430   0.966  -1.583  0.00  0.00    +0.000 OA
BRANCH  10  11
ATOM     11  C   UNL     1      -5.424   0.261  -2.261  0.00  0.00    +0.000 A 
ATOM     12  C   UNL     1      -6.425  -0.384  -1.533  0.00  0.00    +0.000 A 
ATOM     13  C   UNL     1      -7.442  -1.046  -2.220  0.00  0.00    +0.000 A 
ATOM     14  C   UNL     1      -7.448  -1.038  -3.613  0.00  0.00    +0.000 A 
ATOM     15  C   UNL     1      -6.459  -0.376  -4.336  0.00  0.00    +0.000 A 
ATOM     16  C   UNL     1      -5.438   0.287  -3.657  0.00  0.00    +0.000 A 
ATOM     17  F   UNL     1      -8.429  -1.671  -4.269  0.00  0.00    +0.000 F 
ENDBRANCH  10  11
ENDBRANCH   1  10
TORSDOF 4
