MODEL 1
REMARK VINA RESULT:      -4.5      0.000      0.000
REMARK  Name = *****
REMARK  4 active torsions:
REMARK  status: ('A' for Active; 'I' for Inactive)
REMARK    1  A    between atoms: C_1  and  C_2
REMARK    2  A    between atoms: C_5  and  C_8
REMARK    3  A    between atoms: C_8  and  O_9
REMARK    4  A    between atoms: O_9  and  C_10
REMARK                            x       y       z     vdW  Elec       q    Type
REMARK                         _______ _______ _______ _____ _____    ______ ____
ROOT
ATOM      1  C   UNL     1     102.890 126.169  81.693  0.00  0.00    +0.000 C 
ENDROOT
BRANCH   1   6
ATOM      2  C   UNL     1     105.944 121.210  81.518  0.00  0.00    +0.000 C 
ATOM      3  C   UNL     1     105.139 122.474  81.567  0.00  0.00    +0.000 A 
ATOM      4  C   UNL     1     104.602 122.938  82.773  0.00  0.00    +0.000 A 
ATOM      5  C   UNL     1     103.873 124.129  82.812  0.00  0.00    +0.000 A 
ATOM      6  C   UNL     1     103.666 124.876  81.645  0.00  0.00    +0.000 A 
ATOM      7  C   UNL     1     104.225 124.423  80.444  0.00  0.00    +0.000 A 
ATOM      8  C   UNL     1     104.953 123.232  80.406  0.00  0.00    +0.000 A 
ENDBRANCH   1   6
BRANCH   1   9
ATOM      9  O   UNL     1     101.592 125.890  82.208  0.00  0.00    +0.000 OA
BRANCH   9  10
ATOM     10  C   UNL     1     100.850 126.956  82.637  0.00  0.00    +0.000 A 
ATOM     11  C   UNL     1     101.337 128.090  83.288  0.00  0.00    +0.000 A 
ATOM     12  C   UNL     1     100.460 129.110  83.674  0.00  0.00    +0.000 A 
ATOM     13  C   UNL     1      99.096 129.000  83.409  0.00  0.00    +0.000 A 
ATOM     14  C   UNL     1      98.605 127.871  82.760  0.00  0.00    +0.000 A 
ATOM     15  C   UNL     1      99.480 126.854  82.376  0.00  0.00    +0.000 A 
ENDBRANCH   9  10
ENDBRANCH   1   9
TORSDOF 3
ENDMDL
