MODEL 1
REMARK VINA RESULT:      -4.6      0.000      0.000
REMARK  Name = *****
REMARK  6 active torsions:
REMARK  status: ('A' for Active; 'I' for Inactive)
REMARK    1  A    between atoms: C_1  and  C_2
REMARK    2  A    between atoms: C_5  and  O_8
REMARK    3  A    between atoms: O_8  and  C_9
REMARK    4  A    between atoms: C_9  and  O_11
REMARK    5  A    between atoms: O_11  and  C_12
REMARK    6  A    between atoms: C_16  and  C_18
REMARK                            x       y       z     vdW  Elec       q    Type
REMARK                         _______ _______ _______ _____ _____    ______ ____
ROOT
ATOM      1  C   UNL     1      89.256  68.125  86.216  0.00  0.00    +0.000 C 
ATOM      2  O   UNL     1      90.409  67.843  86.512  0.00  0.00    +0.000 OA
ENDROOT
BRANCH   1   3
ATOM      3  O   UNL     1      88.204  67.235  86.049  0.00  0.00    +0.000 OA
BRANCH   3   8
ATOM      4  C   UNL     1      87.211  63.786  90.452  0.00  0.00    +0.000 C 
ATOM      5  C   UNL     1      87.487  64.719  89.309  0.00  0.00    +0.000 A 
ATOM      6  C   UNL     1      86.766  65.915  89.171  0.00  0.00    +0.000 A 
ATOM      7  C   UNL     1      87.011  66.767  88.093  0.00  0.00    +0.000 A 
ATOM      8  C   UNL     1      87.985  66.421  87.160  0.00  0.00    +0.000 A 
ATOM      9  C   UNL     1      88.690  65.225  87.262  0.00  0.00    +0.000 A 
ATOM     10  C   UNL     1      88.441  64.377  88.342  0.00  0.00    +0.000 A 
ENDBRANCH   3   8
ENDBRANCH   1   3
BRANCH   1  11
ATOM     11  O   UNL     1      88.754  69.400  85.981  0.00  0.00    +0.000 OA
BRANCH  11  12
ATOM     12  C   UNL     1      88.068  70.071  87.009  0.00  0.00    +0.000 A 
ATOM     13  C   UNL     1      88.577  70.179  88.302  0.00  0.00    +0.000 A 
ATOM     14  C   UNL     1      87.875  70.922  89.250  0.00  0.00    +0.000 A 
ATOM     15  C   UNL     1      86.684  71.565  88.899  0.00  0.00    +0.000 A 
ATOM     16  C   UNL     1      86.179  71.467  87.597  0.00  0.00    +0.000 A 
ATOM     17  C   UNL     1      86.890  70.725  86.646  0.00  0.00    +0.000 A 
ATOM     18  C   UNL     1      84.928  72.193  87.203  0.00  0.00    +0.000 C 
ENDBRANCH  11  12
ENDBRANCH   1  11
TORSDOF 4
ENDMDL
