MODEL 1
REMARK VINA RESULT:      -4.4      0.000      0.000
REMARK  Name = *****
REMARK  3 active torsions:
REMARK  status: ('A' for Active; 'I' for Inactive)
REMARK    1  A    between atoms: C_6  and  C_7
REMARK    2  A    between atoms: C_7  and  S_8
REMARK    3  A    between atoms: S_8  and  C_9
REMARK                            x       y       z     vdW  Elec       q    Type
REMARK                         _______ _______ _______ _____ _____    ______ ____
ROOT
ATOM      1  C   UNL     1     102.214 125.969  81.822  0.00  0.00    +0.000 C 
ENDROOT
BRANCH   1   7
ATOM      2  C   UNL     1     101.828 128.092  83.147  0.00  0.00    +0.000 A 
ATOM      3  C   UNL     1     100.980 129.022  83.751  0.00  0.00    +0.000 A 
ATOM      4  C   UNL     1      99.605 128.837  83.688  0.00  0.00    +0.000 A 
ATOM      5  C   UNL     1      99.059 127.741  83.032  0.00  0.00    +0.000 A 
ATOM      6  C   UNL     1      99.904 126.808  82.430  0.00  0.00    +0.000 A 
ATOM      7  C   UNL     1     101.298 126.971  82.487  0.00  0.00    +0.000 A 
ATOM      8  F   UNL     1      98.792 129.732  84.266  0.00  0.00    +0.000 F 
ENDBRANCH   1   7
BRANCH   1   9
ATOM      9  S   UNL     1     103.470 126.804  80.801  0.00  0.00    +0.000 S 
BRANCH   9  10
ATOM     10  C   UNL     1     104.507 125.419  80.373  0.00  0.00    +0.000 A 
ATOM     11  N   UNL     1     105.596 125.639  79.603  0.00  0.00    +0.000 NA
ATOM     12  C   UNL     1     106.364 124.575  79.283  0.00  0.00    +0.000 A 
ATOM     13  C   UNL     1     106.099 123.287  79.700  0.00  0.00    +0.000 A 
ATOM     14  C   UNL     1     104.976 123.090  80.490  0.00  0.00    +0.000 A 
ATOM     15  C   UNL     1     104.160 124.160  80.836  0.00  0.00    +0.000 A 
ATOM     16 CL   UNL     1     104.591 121.507  81.043  0.00  0.00    +0.000 Cl
ENDBRANCH   9  10
ENDBRANCH   1   9
TORSDOF 3
ENDMDL
