MODEL 1
REMARK VINA RESULT:      -3.9      0.000      0.000
REMARK  Name = *****
REMARK  5 active torsions:
REMARK  status: ('A' for Active; 'I' for Inactive)
REMARK    1  A    between atoms: C_1  and  C_2
REMARK    2  A    between atoms: C_3  and  C_7
REMARK    3  A    between atoms: C_7  and  O_9
REMARK    4  A    between atoms: O_9  and  C_10
REMARK    5  A    between atoms: C_11  and  C_17
REMARK                            x       y       z     vdW  Elec       q    Type
REMARK                         _______ _______ _______ _____ _____    ______ ____
ROOT
ATOM      1  O   UNL     1      86.235  63.739  87.789  0.00  0.00    +0.000 OA
ENDROOT
BRANCH   1   2
ATOM      2  C   UNL     1      87.386  64.275  87.200  0.00  0.00    +0.000 A 
ATOM      3  C   UNL     1      87.721  65.612  87.447  0.00  0.00    +0.000 A 
ATOM      4  C   UNL     1      88.903  66.114  86.882  0.00  0.00    +0.000 A 
ATOM      5  C   UNL     1      89.723  65.284  86.113  0.00  0.00    +0.000 A 
ATOM      6  C   UNL     1      89.385  63.949  85.896  0.00  0.00    +0.000 A 
ATOM      7  C   UNL     1      88.212  63.436  86.449  0.00  0.00    +0.000 A 
ATOM      8 CL   UNL     1      91.172  65.916  85.433  0.00  0.00    +0.000 Cl
ATOM      9  C   UNL     1      86.839  66.497  88.276  0.00  0.00    +0.000 C 
ENDBRANCH   1   2
BRANCH   1  10
ATOM     10  C   UNL     1      86.480  62.775  88.767  0.00  0.00    +0.000 C 
ATOM     11  O   UNL     1      86.574  61.572  88.544  0.00  0.00    +0.000 OA
BRANCH  10  14
ATOM     12  C   UNL     1      89.156  63.755  90.355  0.00  0.00    +0.000 C 
ATOM     13  C   UNL     1      87.726  63.848  90.789  0.00  0.00    +0.000 A 
ATOM     14  C   UNL     1      86.609  63.416  90.073  0.00  0.00    +0.000 A 
ATOM     15  S   UNL     1      85.153  63.728  90.941  0.00  0.00    +0.000 S 
ATOM     16  C   UNL     1      85.986  64.417  92.253  0.00  0.00    +0.000 A 
ATOM     17  C   UNL     1      87.345  64.422  92.050  0.00  0.00    +0.000 A 
ENDBRANCH  10  14
ENDBRANCH   1  10
TORSDOF 3
ENDMDL
