MODEL 1
REMARK VINA RESULT:      -4.7      0.000      0.000
REMARK  Name = *****
REMARK  7 active torsions:
REMARK  status: ('A' for Active; 'I' for Inactive)
REMARK    1  A    between atoms: C_1  and  C_2
REMARK    2  A    between atoms: C_5  and  S_8
REMARK    3  A    between atoms: S_8  and  C_9
REMARK    4  A    between atoms: C_9  and  C_10
REMARK    5  A    between atoms: C_12  and  C_16
REMARK    6  A    between atoms: C_12  and  O_17
REMARK    7  A    between atoms: O_17  and  C_18
REMARK                            x       y       z     vdW  Elec       q    Type
REMARK                         _______ _______ _______ _____ _____    ______ ____
ROOT
ATOM      1  C   UNL     1      88.176  69.172  87.595  0.00  0.00    +0.000 C 
ENDROOT
BRANCH   1   2
ATOM      2  C   UNL     1      89.583  69.339  86.979  0.00  0.00    +0.000 C 
ATOM      3  C   UNL     1      89.936  68.176  86.022  0.00  0.00    +0.000 C 
ATOM      4  C   UNL     1      89.576  68.403  84.536  0.00  0.00    +0.000 C 
ATOM      5  C   UNL     1      90.181  69.737  84.034  0.00  0.00    +0.000 C 
ATOM      6  C   UNL     1      90.058  70.863  85.020  0.00  0.00    +0.000 C 
ATOM      7  C   UNL     1      89.778  70.688  86.321  0.00  0.00    +0.000 C 
ATOM      8  C   UNL     1      88.048  68.437  84.335  0.00  0.00    +0.000 C 
BRANCH   4   9
ATOM      9  O   UNL     1      89.992  67.302  83.701  0.00  0.00    +0.000 OA
ATOM     10  C   UNL     1      89.730  65.986  84.162  0.00  0.00    +0.000 C 
ENDBRANCH   4   9
ENDBRANCH   1   2
BRANCH   1  11
ATOM     11  S   UNL     1      87.816  70.474  88.838  0.00  0.00    +0.000 S 
BRANCH  11  16
ATOM     12  C   UNL     1      82.986  73.166  86.266  0.00  0.00    +0.000 C 
ATOM     13  C   UNL     1      84.193  72.529  86.890  0.00  0.00    +0.000 A 
ATOM     14  C   UNL     1      85.199  71.981  86.089  0.00  0.00    +0.000 A 
ATOM     15  C   UNL     1      86.308  71.357  86.669  0.00  0.00    +0.000 A 
ATOM     16  C   UNL     1      86.424  71.271  88.058  0.00  0.00    +0.000 A 
ATOM     17  C   UNL     1      85.405  71.792  88.860  0.00  0.00    +0.000 A 
ATOM     18  C   UNL     1      84.297  72.416  88.281  0.00  0.00    +0.000 A 
ENDBRANCH  11  16
ENDBRANCH   1  11
TORSDOF 4
ENDMDL
