MODEL 1
REMARK VINA RESULT:      -4.6      0.000      0.000
REMARK  Name = *****
REMARK  6 active torsions:
REMARK  status: ('A' for Active; 'I' for Inactive)
REMARK    1  A    between atoms: C_1  and  C_2
REMARK    2  A    between atoms: C_4  and  C_18
REMARK    3  A    between atoms: C_5  and  S_9
REMARK    4  A    between atoms: C_6  and  C_8
REMARK    5  A    between atoms: S_9  and  C_11
REMARK    6  A    between atoms: C_11  and  C_12
REMARK                            x       y       z     vdW  Elec       q    Type
REMARK                         _______ _______ _______ _____ _____    ______ ____
ROOT
ATOM      1  C   UNL     1      87.312  71.343  90.929  0.00  0.00    +0.000 C 
ATOM      2  C   UNL     1      87.348  71.110  89.448  0.00  0.00    +0.000 A 
ATOM      3  C   UNL     1      88.359  70.339  88.875  0.00  0.00    +0.000 A 
ATOM      4  C   UNL     1      88.380  70.078  87.493  0.00  0.00    +0.000 A 
ATOM      5  C   UNL     1      87.359  70.605  86.664  0.00  0.00    +0.000 A 
ATOM      6  C   UNL     1      86.322  71.375  87.240  0.00  0.00    +0.000 A 
ATOM      7  C   UNL     1      86.330  71.604  88.630  0.00  0.00    +0.000 A 
ATOM      8  C   UNL     1      85.166  71.938  86.455  0.00  0.00    +0.000 C 
ATOM      9  C   UNL     1      89.500  69.226  86.952  0.00  0.00    +0.000 C 
ENDROOT
BRANCH   5  10
ATOM     10  S   UNL     1      87.452  70.257  84.869  0.00  0.00    +0.000 S 
ATOM     11  O   UNL     1      86.078  69.855  84.420  0.00  0.00    +0.000 OA
BRANCH  10  12
ATOM     12  C   UNL     1      87.754  71.975  84.333  0.00  0.00    +0.000 C 
BRANCH  12  13
ATOM     13  C   UNL     1      89.173  72.175  83.863  0.00  0.00    +0.000 A 
ATOM     14  C   UNL     1      89.612  73.440  83.449  0.00  0.00    +0.000 A 
ATOM     15  C   UNL     1      90.923  73.627  83.009  0.00  0.00    +0.000 A 
ATOM     16  C   UNL     1      91.808  72.551  82.978  0.00  0.00    +0.000 A 
ATOM     17  C   UNL     1      91.381  71.288  83.382  0.00  0.00    +0.000 A 
ATOM     18  C   UNL     1      90.070  71.098  83.822  0.00  0.00    +0.000 A 
ENDBRANCH  12  13
ENDBRANCH  10  12
ENDBRANCH   5  10
TORSDOF 3
ENDMDL
