MODEL 1
REMARK VINA RESULT:      -3.8      0.000      0.000
REMARK  Name = *****
REMARK  3 active torsions:
REMARK  status: ('A' for Active; 'I' for Inactive)
REMARK    1  A    between atoms: C_2  and  O_6
REMARK    2  A    between atoms: O_6  and  C_7
REMARK    3  A    between atoms: C_7  and  C_9
REMARK                            x       y       z     vdW  Elec       q    Type
REMARK                         _______ _______ _______ _____ _____    ______ ____
ROOT
ATOM      1  C   UNL     1     102.118 126.930  82.165  0.00  0.00    +0.000 C 
ATOM      2  O   UNL     1     102.526 128.048  82.433  0.00  0.00    +0.000 OA
ENDROOT
BRANCH   1   3
ATOM      3  C   UNL     1     103.011 125.778  81.864  0.00  0.00    +0.000 A 
ATOM      4  C   UNL     1     103.410 124.858  82.845  0.00  0.00    +0.000 A 
ATOM      5  C   UNL     1     104.252 123.792  82.507  0.00  0.00    +0.000 A 
ATOM      6  C   UNL     1     104.693 123.644  81.193  0.00  0.00    +0.000 A 
ATOM      7  C   UNL     1     104.302 124.552  80.211  0.00  0.00    +0.000 A 
ATOM      8  C   UNL     1     103.462 125.618  80.545  0.00  0.00    +0.000 A 
ATOM      9 CL   UNL     1     105.727 122.333  80.782  0.00  0.00    +0.000 Cl
ENDBRANCH   1   3
BRANCH   1  10
ATOM     10  O   UNL     1     100.815 126.560  82.101  0.00  0.00    +0.000 OA
BRANCH  10  12
ATOM     11  C   UNL     1     100.226 126.356  84.466  0.00  0.00    +0.000 C 
ATOM     12  C   UNL     1      99.964 127.085  83.145  0.00  0.00    +0.000 C 
ATOM     13  C   UNL     1      98.516 126.837  82.718  0.00  0.00    +0.000 C 
ATOM     14  S   UNL     1      97.461 127.171  84.147  0.00  0.00    +0.000 S 
ATOM     15  S   UNL     1      98.851 126.728  85.585  0.00  0.00    +0.000 S 
ENDBRANCH  10  12
ENDBRANCH   1  10
TORSDOF 3
ENDMDL
