MODEL 1
REMARK VINA RESULT:      -4.9      0.000      0.000
REMARK  Name = *****
REMARK  4 active torsions:
REMARK  status: ('A' for Active; 'I' for Inactive)
REMARK    1  A    between atoms: C_1  and  C_2
REMARK    2  A    between atoms: C_5  and  C_8
REMARK    3  A    between atoms: C_8  and  C_10
REMARK    4  A    between atoms: C_10  and  C_11
REMARK                            x       y       z     vdW  Elec       q    Type
REMARK                         _______ _______ _______ _____ _____    ______ ____
ROOT
ATOM      1  C   UNL     1     103.317 126.935  81.544  0.00  0.00    +0.000 C 
ATOM      2  O   UNL     1     103.319 127.582  80.496  0.00  0.00    +0.000 OA
ENDROOT
BRANCH   1   7
ATOM      3  C   UNL     1     105.174 121.427  81.692  0.00  0.00    +0.000 C 
ATOM      4  C   UNL     1     104.719 122.856  81.644  0.00  0.00    +0.000 A 
ATOM      5  C   UNL     1     104.263 123.496  82.801  0.00  0.00    +0.000 A 
ATOM      6  C   UNL     1     103.813 124.817  82.747  0.00  0.00    +0.000 A 
ATOM      7  C   UNL     1     103.799 125.519  81.533  0.00  0.00    +0.000 A 
ATOM      8  C   UNL     1     104.236 124.872  80.372  0.00  0.00    +0.000 A 
ATOM      9  C   UNL     1     104.688 123.549  80.429  0.00  0.00    +0.000 A 
ENDBRANCH   1   7
BRANCH   1  10
ATOM     10  C   UNL     1     102.805 127.556  82.832  0.00  0.00    +0.000 C 
BRANCH  10  11
ATOM     11  C   UNL     1     101.294 127.604  82.936  0.00  0.00    +0.000 A 
ATOM     12  C   UNL     1     100.608 128.661  83.567  0.00  0.00    +0.000 A 
ATOM     13  C   UNL     1      99.213 128.678  83.619  0.00  0.00    +0.000 A 
ATOM     14  C   UNL     1      98.492 127.650  83.031  0.00  0.00    +0.000 A 
ATOM     15  C   UNL     1      99.137 126.607  82.381  0.00  0.00    +0.000 A 
ATOM     16  C   UNL     1     100.531 126.589  82.325  0.00  0.00    +0.000 A 
ATOM     17  F   UNL     1      97.154 127.667  83.083  0.00  0.00    +0.000 F 
ATOM     18 CL   UNL     1     101.439 129.988  84.299  0.00  0.00    +0.000 Cl
ENDBRANCH  10  11
ENDBRANCH   1  10
TORSDOF 3
ENDMDL
