MODEL 1
REMARK VINA RESULT:      -5.0      0.000      0.000
REMARK  Name = *****
REMARK  4 active torsions:
REMARK  status: ('A' for Active; 'I' for Inactive)
REMARK    1  A    between atoms: C_1  and  C_2
REMARK    2  A    between atoms: C_4  and  C_8
REMARK    3  A    between atoms: C_8  and  O_10
REMARK    4  A    between atoms: O_10  and  C_11
REMARK                            x       y       z     vdW  Elec       q    Type
REMARK                         _______ _______ _______ _____ _____    ______ ____
ROOT
ATOM      1  C   UNL     1     103.186 126.186  83.067  0.00  0.00    +0.000 A 
ATOM      2  C   UNL     1     103.186 127.047  81.971  0.00  0.00    +0.000 A 
ATOM      3  C   UNL     1     103.584 126.580  80.725  0.00  0.00    +0.000 A 
ATOM      4  C   UNL     1     103.994 125.258  80.577  0.00  0.00    +0.000 A 
ATOM      5  C   UNL     1     104.010 124.405  81.675  0.00  0.00    +0.000 A 
ATOM      6  C   UNL     1     103.611 124.869  82.922  0.00  0.00    +0.000 A 
ATOM      7  F   UNL     1     103.639 124.052  83.985  0.00  0.00    +0.000 F 
ATOM      8  F   UNL     1     104.422 123.137  81.532  0.00  0.00    +0.000 F 
ATOM      9  F   UNL     1     104.386 124.812  79.375  0.00  0.00    +0.000 F 
ATOM     10  F   UNL     1     103.585 127.404  79.668  0.00  0.00    +0.000 F 
ATOM     11  F   UNL     1     102.808 128.324  82.121  0.00  0.00    +0.000 F 
ENDROOT
BRANCH   1  12
ATOM     12  O   UNL     1     102.799 126.655  84.319  0.00  0.00    +0.000 OA
BRANCH  12  13
ATOM     13  C   UNL     1     101.504 126.268  84.610  0.00  0.00    +0.000 C 
ATOM     14  O   UNL     1     101.169 125.266  85.227  0.00  0.00    +0.000 OA
BRANCH  13  18
ATOM     15  C   UNL     1      99.652 130.947  84.106  0.00  0.00    +0.000 C 
ATOM     16  C   UNL     1      99.616 129.481  83.785  0.00  0.00    +0.000 A 
ATOM     17  C   UNL     1     100.547 128.604  84.359  0.00  0.00    +0.000 A 
ATOM     18  C   UNL     1     100.536 127.240  84.033  0.00  0.00    +0.000 A 
ATOM     19  C   UNL     1      99.586 126.756  83.124  0.00  0.00    +0.000 A 
ATOM     20  C   UNL     1      98.669 127.628  82.537  0.00  0.00    +0.000 A 
ATOM     21  C   UNL     1      98.688 128.985  82.861  0.00  0.00    +0.000 A 
ENDBRANCH  13  18
ENDBRANCH  12  13
ENDBRANCH   1  12
TORSDOF 3
ENDMDL
