MODEL 1
REMARK VINA RESULT:      -4.8      0.000      0.000
REMARK  Name = *****
REMARK  4 active torsions:
REMARK  status: ('A' for Active; 'I' for Inactive)
REMARK    1  A    between atoms: C_1  and  C_2
REMARK    2  A    between atoms: C_5  and  O_8
REMARK    3  A    between atoms: O_8  and  C_9
REMARK    4  A    between atoms: C_9  and  C_11
REMARK                            x       y       z     vdW  Elec       q    Type
REMARK                         _______ _______ _______ _____ _____    ______ ____
ROOT
ATOM      1  C   UNL     1      88.178  64.345  86.647  0.00  0.00    +0.000 A 
ATOM      2  C   UNL     1      88.624  65.615  86.998  0.00  0.00    +0.000 A 
ATOM      3  C   UNL     1      89.763  66.142  86.398  0.00  0.00    +0.000 A 
ATOM      4  C   UNL     1      90.460  65.400  85.453  0.00  0.00    +0.000 A 
ATOM      5  C   UNL     1      90.019  64.130  85.106  0.00  0.00    +0.000 A 
ATOM      6  C   UNL     1      88.880  63.599  85.702  0.00  0.00    +0.000 A 
ATOM      7  F   UNL     1      88.481  62.363  85.373  0.00  0.00    +0.000 F 
ATOM      8  F   UNL     1      90.693  63.412  84.198  0.00  0.00    +0.000 F 
ATOM      9  F   UNL     1      91.556  65.910  84.875  0.00  0.00    +0.000 F 
ATOM     10  F   UNL     1      90.185  67.370  86.729  0.00  0.00    +0.000 F 
ATOM     11  F   UNL     1      87.951  66.354  87.891  0.00  0.00    +0.000 F 
ENDROOT
BRANCH   1  12
ATOM     12  C   UNL     1      86.995  63.790  87.304  0.00  0.00    +0.000 C 
ATOM     13  O   UNL     1      85.859  64.112  87.006  0.00  0.00    +0.000 OA
BRANCH  12  14
ATOM     14  O   UNL     1      87.429  62.865  88.228  0.00  0.00    +0.000 OA
BRANCH  14  19
ATOM     15  C   UNL     1      88.119  64.796  93.526  0.00  0.00    +0.000 C 
ATOM     16  C   UNL     1      87.925  64.320  92.117  0.00  0.00    +0.000 A 
ATOM     17  C   UNL     1      86.637  64.068  91.623  0.00  0.00    +0.000 A 
ATOM     18  C   UNL     1      86.457  63.599  90.322  0.00  0.00    +0.000 A 
ATOM     19  C   UNL     1      87.573  63.387  89.516  0.00  0.00    +0.000 A 
ATOM     20  C   UNL     1      88.862  63.595  89.997  0.00  0.00    +0.000 A 
ATOM     21  C   UNL     1      89.036  64.065  91.300  0.00  0.00    +0.000 A 
ENDBRANCH  14  19
ENDBRANCH  12  14
ENDBRANCH   1  12
TORSDOF 3
ENDMDL
