MODEL 1
REMARK VINA RESULT:      -5.0      0.000      0.000
REMARK  Name = *****
REMARK  5 active torsions:
REMARK  status: ('A' for Active; 'I' for Inactive)
REMARK    1  A    between atoms: C_1  and  C_2
REMARK    2  A    between atoms: C_3  and  C_17
REMARK    3  A    between atoms: C_4  and  O_8
REMARK    4  A    between atoms: O_8  and  C_9
REMARK    5  A    between atoms: C_9  and  C_11
REMARK                            x       y       z     vdW  Elec       q    Type
REMARK                         _______ _______ _______ _____ _____    ______ ____
ROOT
ATOM      1  O   UNL     1     102.546 126.873  82.941  0.00  0.00    +0.000 OA
ENDROOT
BRANCH   1   5
ATOM      2  C   UNL     1      99.346 130.482  84.133  0.00  0.00    +0.000 C 
ATOM      3  C   UNL     1      99.682 129.137  83.550  0.00  0.00    +0.000 A 
ATOM      4  C   UNL     1     100.997 128.623  83.584  0.00  0.00    +0.000 A 
ATOM      5  C   UNL     1     101.232 127.362  83.010  0.00  0.00    +0.000 A 
ATOM      6  C   UNL     1     100.211 126.618  82.416  0.00  0.00    +0.000 A 
ATOM      7  C   UNL     1      98.916 127.119  82.413  0.00  0.00    +0.000 A 
ATOM      8  C   UNL     1      98.654 128.369  82.977  0.00  0.00    +0.000 A 
ATOM      9  C   UNL     1     102.130 129.425  84.165  0.00  0.00    +0.000 C 
ENDBRANCH   1   5
BRANCH   1  10
ATOM     10  C   UNL     1     102.719 125.611  83.478  0.00  0.00    +0.000 C 
ATOM     11  O   UNL     1     102.317 125.202  84.557  0.00  0.00    +0.000 OA
BRANCH  10  12
ATOM     12  C   UNL     1     103.498 124.766  82.528  0.00  0.00    +0.000 A 
ATOM     13  C   UNL     1     104.113 123.565  82.910  0.00  0.00    +0.000 A 
ATOM     14  C   UNL     1     104.830 122.815  81.974  0.00  0.00    +0.000 A 
ATOM     15  C   UNL     1     104.937 123.258  80.657  0.00  0.00    +0.000 A 
ATOM     16  C   UNL     1     104.329 124.451  80.269  0.00  0.00    +0.000 A 
ATOM     17  C   UNL     1     103.612 125.202  81.201  0.00  0.00    +0.000 A 
ENDBRANCH  10  12
ENDBRANCH   1  10
TORSDOF 3
ENDMDL
