REMARK  Name = *****
REMARK  6 active torsions:
REMARK  status: ('A' for Active; 'I' for Inactive)
REMARK    1  A    between atoms: C_1  and  C_2
REMARK    2  A    between atoms: C_4  and  C_8
REMARK    3  A    between atoms: C_8  and  C_9
REMARK    4  A    between atoms: C_9  and  O_11
REMARK    5  A    between atoms: O_11  and  C_12
REMARK    6  A    between atoms: C_16  and  C_18
REMARK                            x       y       z     vdW  Elec       q    Type
REMARK                         _______ _______ _______ _____ _____    ______ ____
ROOT
ATOM      1  C   UNL     1      -1.851   3.608  -0.292  0.00  0.00    +0.000 C 
ATOM      2  O   UNL     1      -1.382   4.470  -1.027  0.00  0.00    +0.000 OA
ENDROOT
BRANCH   1   3
ATOM      3  C   UNL     1      -2.200   2.212  -0.746  0.00  0.00    +0.000 C 
BRANCH   3   7
ATOM      4  C   UNL     1      -0.899  -1.683   2.186  0.00  0.00    +0.000 C 
ATOM      5  C   UNL     1      -0.548  -0.679   1.128  0.00  0.00    +0.000 A 
ATOM      6  C   UNL     1      -1.494   0.266   0.707  0.00  0.00    +0.000 A 
ATOM      7  C   UNL     1      -1.188   1.184  -0.309  0.00  0.00    +0.000 A 
ATOM      8  C   UNL     1       0.079   1.145  -0.904  0.00  0.00    +0.000 A 
ATOM      9  C   UNL     1       1.019   0.198  -0.500  0.00  0.00    +0.000 A 
ATOM     10  C   UNL     1       0.705  -0.714   0.506  0.00  0.00    +0.000 A 
ENDBRANCH   3   7
ENDBRANCH   1   3
BRANCH   1  11
ATOM     11  O   UNL     1      -2.146   3.736   1.063  0.00  0.00    +0.000 OA
BRANCH  11  12
ATOM     12  C   UNL     1      -1.826   4.984   1.602  0.00  0.00    +0.000 A 
ATOM     13  C   UNL     1      -0.749   5.060   2.481  0.00  0.00    +0.000 A 
ATOM     14  C   UNL     1      -0.436   6.284   3.066  0.00  0.00    +0.000 A 
ATOM     15  C   UNL     1      -1.210   7.414   2.783  0.00  0.00    +0.000 A 
ATOM     16  C   UNL     1      -2.316   7.327   1.925  0.00  0.00    +0.000 A 
ATOM     17  C   UNL     1      -2.620   6.098   1.328  0.00  0.00    +0.000 A 
ATOM     18  C   UNL     1      -3.121   8.549   1.597  0.00  0.00    +0.000 C 
ENDBRANCH  11  12
ENDBRANCH   1  11
TORSDOF 4
