REMARK  Name = *****
REMARK  2 active torsions:
REMARK  status: ('A' for Active; 'I' for Inactive)
REMARK    1  A    between atoms: C_5  and  C_6
REMARK    2  A    between atoms: C_6  and  C_7
REMARK                            x       y       z     vdW  Elec       q    Type
REMARK                         _______ _______ _______ _____ _____    ______ ____
ROOT
ATOM      1  C   UNL     1       2.786  -1.635   0.355  0.00  0.00    +0.000 C 
ENDROOT
BRANCH   1   6
ATOM      2  C   UNL     1      -1.315   0.989   0.102  0.00  0.00    +0.000 C 
ATOM      3  C   UNL     1      -1.604  -0.491  -0.101  0.00  0.00    +0.000 C 
ATOM      4  C   UNL     1      -0.305  -1.179   0.303  0.00  0.00    +0.000 C 
ATOM      5  C   UNL     1       0.753  -0.165  -0.045  0.00  0.00    +0.000 C 
ATOM      6  C   UNL     1       2.082  -0.360  -0.020  0.00  0.00    +0.000 C 
ATOM      7  C   UNL     1       0.112   1.150  -0.405  0.00  0.00    +0.000 C 
ENDBRANCH   1   6
BRANCH   1   8
ATOM      8  C   UNL     1       3.726  -1.448   1.523  0.00  0.00    +0.000 A 
ATOM      9  C   UNL     1       3.223  -1.349   2.828  0.00  0.00    +0.000 A 
ATOM     10  C   UNL     1       4.087  -1.167   3.909  0.00  0.00    +0.000 A 
ATOM     11  C   UNL     1       5.461  -1.080   3.696  0.00  0.00    +0.000 A 
ATOM     12  C   UNL     1       5.972  -1.171   2.403  0.00  0.00    +0.000 A 
ATOM     13  C   UNL     1       5.110  -1.352   1.320  0.00  0.00    +0.000 A 
ENDBRANCH   1   8
TORSDOF 2
