MODEL 1
REMARK VINA RESULT:      -5.2      0.000      0.000
REMARK  Name = *****
REMARK  2 active torsions:
REMARK  status: ('A' for Active; 'I' for Inactive)
REMARK    1  A    between atoms: C_8  and  C_10
REMARK    2  A    between atoms: C_10  and  C_11
REMARK                            x       y       z     vdW  Elec       q    Type
REMARK                         _______ _______ _______ _____ _____    ______ ____
ROOT
ATOM      1  C   UNL     1      88.858  70.239  87.633  0.00  0.00    +0.000 C 
ATOM      2  F   UNL     1      89.008  70.318  88.995  0.00  0.00    +0.000 F 
ATOM      3  F   UNL     1      89.929  70.942  87.141  0.00  0.00    +0.000 F 
ENDROOT
BRANCH   1  11
ATOM      4  C   UNL     1      89.109  64.508  85.958  0.00  0.00    +0.000 A 
ATOM      5  C   UNL     1      90.380  64.907  85.526  0.00  0.00    +0.000 A 
ATOM      6  C   UNL     1      90.827  66.224  85.693  0.00  0.00    +0.000 A 
ATOM      7  C   UNL     1      89.932  67.090  86.308  0.00  0.00    +0.000 A 
ATOM      8  C   UNL     1      88.669  66.736  86.750  0.00  0.00    +0.000 A 
ATOM      9  C   UNL     1      88.235  65.415  86.577  0.00  0.00    +0.000 A 
ATOM     10  N   UNL     1      88.049  67.824  87.310  0.00  0.00    +0.000 NA
ATOM     11  C   UNL     1      88.942  68.798  87.188  0.00  0.00    +0.000 A 
ATOM     12  O   UNL     1      90.121  68.410  86.588  0.00  0.00    +0.000 OA
ENDBRANCH   1  11
BRANCH   1  13
ATOM     13  C   UNL     1      87.542  70.869  87.189  0.00  0.00    +0.000 A 
ATOM     14  C   UNL     1      87.280  71.092  85.825  0.00  0.00    +0.000 A 
ATOM     15  C   UNL     1      86.081  71.685  85.424  0.00  0.00    +0.000 A 
ATOM     16  C   UNL     1      85.145  72.057  86.383  0.00  0.00    +0.000 A 
ATOM     17  C   UNL     1      85.384  71.850  87.736  0.00  0.00    +0.000 A 
ATOM     18  C   UNL     1      86.581  71.258  88.141  0.00  0.00    +0.000 A 
ATOM     19  F   UNL     1      83.996  72.626  85.996  0.00  0.00    +0.000 F 
ENDBRANCH   1  13
TORSDOF 2
ENDMDL
